
     RDKit          3D

 21 23  0  0  0  0  0  0  0  0999 V2000
   -1.9612   -0.0256   -2.9615 C   0  0  0  0  0  0  0  0  0  0  0  0
   -2.8964    0.1868   -1.8352 C   0  0  0  0  0  0  0  0  0  0  0  0
   -4.2382    0.3936   -2.0956 C   0  0  0  0  0  0  0  0  0  0  0  0
   -5.1071    0.5907   -1.0533 C   0  0  0  0  0  0  0  0  0  0  0  0
   -4.6430    0.5823    0.2447 C   0  0  0  0  0  0  0  0  0  0  0  0
   -3.3086    0.3775    0.5189 C   0  0  0  0  0  0  0  0  0  0  0  0
   -2.4552    0.1825   -0.5318 C   0  0  0  0  0  0  0  0  0  0  0  0
   -1.0720   -0.0323   -0.2955 N   0  0  0  0  0  0  0  0  0  0  0  0
   -0.5042   -0.0576    1.0052 C   0  0  0  0  0  0  0  0  0  0  0  0
   -1.2587    0.1172    1.9800 O   0  0  0  0  0  0  0  0  0  0  0  0
    0.9544   -0.2864    1.2104 C   0  0  0  0  0  0  0  0  0  0  0  0
    1.4639   -0.3035    2.4850 C   0  0  0  0  0  0  0  0  0  0  0  0
    0.7954   -0.1279    3.7447 N   0  0  0  0  0  0  0  0  0  0  0  0
    3.1250   -0.5886    2.2491 S   0  0  0  0  0  0  0  0  0  0  0  0
    3.1458   -0.6806    0.5513 C   0  0  0  0  0  0  0  0  0  0  0  0
    1.8478   -0.4854    0.2085 C   0  0  0  0  0  0  0  0  0  0  0  0
    1.3902   -0.4858   -1.2384 C   0  0  0  0  0  0  0  0  0  0  0  0
    2.3413    0.3241   -2.0864 C   0  0  0  0  0  0  0  0  0  0  0  0
    3.3736    1.0517   -1.2576 C   0  0  0  0  0  0  0  0  0  0  0  0
    4.6189    0.1938   -1.2206 C   0  0  0  0  0  0  0  0  0  0  0  0
    4.3882   -0.9264   -0.2489 C   0  0  0  0  0  0  0  0  0  0  0  0
  1  2  1  0
  2  3  2  0
  3  4  1  0
  4  5  2  0
  5  6  1  0
  6  7  2  0
  7  8  1  0
  8  9  1  0
  9 10  2  0
  9 11  1  0
 11 12  2  0
 12 13  1  0
 12 14  1  0
 14 15  1  0
 15 16  2  0
 16 17  1  0
 17 18  1  0
 18 19  1  0
 19 20  1  0
 20 21  1  0
  7  2  1  0
 16 11  1  0
 21 15  1  0
M  END
>  <zinc_id>  (1) 
ZINC000000130309

>  <smiles>  (1) 
Cc1ccccc1NC(=O)c1c(N)sc2c1CCCCC2

$$$$
