
     RDKit          3D

 19 21  0  0  0  0  0  0  0  0999 V2000
   -2.0883   -2.2582    0.8719 C   0  0  0  0  0  0  0  0  0  0  0  0
   -2.6565   -0.9566    0.4250 C   0  0  0  0  0  0  0  0  0  0  0  0
   -4.0090   -0.7036    0.4177 C   0  0  0  0  0  0  0  0  0  0  0  0
   -4.5261    0.5229   -0.0046 C   0  0  0  0  0  0  0  0  0  0  0  0
   -5.8962    0.6945    0.0195 O   0  0  0  0  0  0  0  0  0  0  0  0
   -3.6588    1.5061   -0.4253 C   0  0  0  0  0  0  0  0  0  0  0  0
   -2.3225    1.2535   -0.4171 C   0  0  0  0  0  0  0  0  0  0  0  0
   -1.7999    0.0295    0.0039 C   0  0  0  0  0  0  0  0  0  0  0  0
   -0.3992   -0.2255    0.0089 N   0  0  0  0  0  0  0  0  0  0  0  0
    0.1316   -1.3184   -0.7924 C   0  0  0  0  0  0  0  0  0  0  0  0
    1.4717   -1.7974   -0.2819 C   0  0  0  0  0  0  0  0  0  0  0  0
    2.3991   -0.6604   -0.0573 C   0  0  0  0  0  0  0  0  0  0  0  0
    3.7391   -0.7551   -0.3700 C   0  0  0  0  0  0  0  0  0  0  0  0
    4.5975    0.3206   -0.1536 C   0  0  0  0  0  0  0  0  0  0  0  0
    5.9417    0.1862   -0.4816 O   0  0  0  0  0  0  0  0  0  0  0  0
    4.0700    1.4801    0.3810 C   0  0  0  0  0  0  0  0  0  0  0  0
    2.7127    1.5512    0.6886 C   0  0  0  0  0  0  0  0  0  0  0  0
    1.8605    0.5002    0.4799 C   0  0  0  0  0  0  0  0  0  0  0  0
    0.4324    0.6304    0.8239 C   0  0  0  0  0  0  0  0  0  0  0  0
  1  2  1  0
  2  3  2  0
  3  4  1  0
  4  5  1  0
  4  6  2  0
  6  7  1  0
  7  8  2  0
  8  9  1  0
  9 10  1  0
 10 11  1  0
 11 12  1  0
 12 13  2  0
 13 14  1  0
 14 15  1  0
 14 16  2  0
 16 17  1  0
 17 18  2  0
 18 19  1  0
  8  2  1  0
 19  9  1  0
 18 12  1  0
M  END
>  <zinc_id>  (1) 
ZINC000000003434

>  <smiles>  (1) 
Cc1cc(O)ccc1N1CCc2cc(O)ccc2C1

$$$$
