
     RDKit          3D

 20 21  0  0  0  0  0  0  0  0999 V2000
    4.2635    2.2584   -1.1197 C   0  0  0  0  0  0  0  0  0  0  0  0
    4.1557    0.7964   -1.5342 C   0  0  0  0  0  0  0  0  0  0  0  0
    2.9224    0.2372   -1.1272 O   0  0  0  0  0  0  0  0  0  0  0  0
    2.6008    0.2081    0.2219 C   0  0  0  0  0  0  0  0  0  0  0  0
    3.4363    0.6873    1.0161 O   0  0  0  0  0  0  0  0  0  0  0  0
    1.3285   -0.3638    0.6947 C   0  0  0  0  0  0  0  0  0  0  0  0
    0.5222   -0.8352   -0.1671 C   0  0  0  0  0  0  0  0  0  0  0  0
    0.8634   -0.8050   -1.6051 C   0  0  0  0  0  0  0  0  0  0  0  0
   -0.8608   -1.4748    0.1555 C   0  0  2  0  0  0  0  0  0  0  0  0
   -1.7952   -0.2340   -0.2798 C   0  0  0  0  0  0  0  0  0  0  0  0
   -1.5046    1.0066    0.0797 C   0  0  0  0  0  0  0  0  0  0  0  0
   -2.2996    2.0508   -0.2922 C   0  0  0  0  0  0  0  0  0  0  0  0
   -3.4045    1.8038   -1.0431 C   0  0  0  0  0  0  0  0  0  0  0  0
   -3.7166    0.5344   -1.4205 C   0  0  0  0  0  0  0  0  0  0  0  0
   -2.8949   -0.5302   -1.0341 C   0  0  0  0  0  0  0  0  0  0  0  0
   -3.2170   -1.8005   -1.4182 F   0  0  0  0  0  0  0  0  0  0  0  0
   -1.0193   -1.4131    1.6308 N   0  0  0  0  0  0  0  0  0  0  0  0
   -0.1318   -0.8994    2.5235 C   0  0  0  0  0  0  0  0  0  0  0  0
   -0.3494   -0.8846    3.8043 O   0  0  0  0  0  0  0  0  0  0  0  0
    1.1008   -0.3424    2.0982 N   0  0  0  0  0  0  0  0  0  0  0  0
  1  2  1  0
  2  3  1  0
  3  4  1  0
  4  5  2  0
  4  6  1  0
  6  7  2  0
  7  8  1  0
  7  9  1  0
  9 10  1  6
 10 11  2  0
 11 12  1  0
 12 13  2  0
 13 14  1  0
 14 15  2  0
 15 16  1  0
  9 17  1  0
 17 18  1  0
 18 19  2  0
 18 20  1  0
 20  6  1  0
 15 10  1  0
M  END
>  <zinc_id>  (1) 
ZINC000000339979

>  <smiles>  (1) 
CCOC(=O)C1=C(C)[C@H](c2ccccc2F)NC(=O)N1

$$$$
