
     RDKit          3D

 21 22  0  0  0  0  0  0  0  0999 V2000
    6.5895    0.8922   -0.9259 C   0  0  0  0  0  0  0  0  0  0  0  0
    5.1644    0.6806   -0.5498 C   0  0  0  0  0  0  0  0  0  0  0  0
    4.1526    0.7017   -1.4947 C   0  0  0  0  0  0  0  0  0  0  0  0
    2.8432    0.5020   -1.1143 C   0  0  0  0  0  0  0  0  0  0  0  0
    2.4716    0.2765    0.1878 C   0  0  0  0  0  0  0  0  0  0  0  0
    1.1025    0.0800    0.4724 N   0  0  0  0  0  0  0  0  0  0  0  0
    0.1408    0.0963   -0.5717 C   0  0  0  0  0  0  0  0  0  0  0  0
    0.5563    0.2913   -1.7459 O   0  0  0  0  0  0  0  0  0  0  0  0
   -1.2771   -0.1045   -0.3015 C   0  0  0  0  0  0  0  0  0  0  0  0
   -2.1728   -0.1228   -1.3484 C   0  0  0  0  0  0  0  0  0  0  0  0
   -3.5205   -0.3111   -1.1186 C   0  0  0  0  0  0  0  0  0  0  0  0
   -4.0320   -0.4880    0.1497 C   0  0  0  0  0  0  0  0  0  0  0  0
   -5.4306   -0.6838    0.3802 N   0  0  0  0  0  4  0  0  0  0  0  0
   -5.7464   -1.3989    1.3466 O   0  0  0  0  0  0  0  0  0  0  0  0
   -6.4219   -0.1402   -0.3871 O   0  0  0  0  0  1  0  0  0  0  0  0
   -3.1269   -0.4688    1.1974 C   0  0  0  0  0  0  0  0  0  0  0  0
   -3.6755   -0.6595    2.5640 C   0  0  0  0  0  0  0  0  0  0  0  0
   -1.7798   -0.2808    0.9705 C   0  0  0  0  0  0  0  0  0  0  0  0
    3.4776    0.2553    1.1296 C   0  0  0  0  0  0  0  0  0  0  0  0
    4.8126    0.4571    0.7536 C   0  0  0  0  0  0  0  0  0  0  0  0
    5.8723    0.4255    1.8139 C   0  0  0  0  0  0  0  0  0  0  0  0
  1  2  1  0
  2  3  2  0
  3  4  1  0
  4  5  2  0
  5  6  1  0
  6  7  1  0
  7  8  2  0
  7  9  1  0
  9 10  2  0
 10 11  1  0
 11 12  2  0
 12 13  1  0
 13 14  2  0
 13 15  1  0
 12 16  1  0
 16 17  1  0
 16 18  2  0
  5 19  1  0
 19 20  2  0
 20 21  1  0
 20  2  1  0
 18  9  1  0
M  CHG  2  13   1  15  -1
M  END
>  <zinc_id>  (1) 
ZINC000000482802

>  <smiles>  (1) 
Cc1ccc(NC(=O)c2ccc([N+](=O)[O-])c(C)c2)cc1C

$$$$
