
     RDKit          3D

 20 22  0  0  0  0  0  0  0  0999 V2000
    5.8469    2.4556    0.2333 C   0  0  0  0  0  0  0  0  0  0  0  0
    5.4395    1.1052    0.2151 O   0  0  0  0  0  0  0  0  0  0  0  0
    4.0817    0.8336    0.1424 C   0  0  0  0  0  0  0  0  0  0  0  0
    3.2311    1.7616    0.0938 O   0  0  0  0  0  0  0  0  0  0  0  0
    3.6304   -0.4935    0.1218 N   0  0  0  0  0  0  0  0  0  0  0  0
    2.2378   -0.8479    0.0475 C   0  0  0  0  0  0  0  0  0  0  0  0
    1.9373   -2.2038    0.0351 C   0  0  0  0  0  0  0  0  0  0  0  0
    0.6323   -2.6462   -0.0342 C   0  0  0  0  0  0  0  0  0  0  0  0
   -0.3986   -1.7011   -0.0927 C   0  0  0  0  0  0  0  0  0  0  0  0
   -0.0665   -0.3608   -0.0786 C   0  0  0  0  0  0  0  0  0  0  0  0
    1.2407    0.0765   -0.0091 C   0  0  0  0  0  0  0  0  0  0  0  0
   -0.9427    0.7629   -0.1292 N   0  0  0  0  0  0  0  0  0  0  0  0
   -2.3788    0.7391   -0.1311 C   0  0  0  0  0  0  0  0  0  0  0  0
   -2.8986    1.9353   -0.5665 C   0  0  0  0  0  0  0  0  0  0  0  0
   -4.2693    2.0694   -0.6250 C   0  0  0  0  0  0  0  0  0  0  0  0
   -5.0812    1.0107   -0.2489 C   0  0  0  0  0  0  0  0  0  0  0  0
   -4.5673   -0.1970    0.1906 C   0  0  0  0  0  0  0  0  0  0  0  0
   -3.1907   -0.3277    0.2479 C   0  0  0  0  0  0  0  0  0  0  0  0
   -2.7472   -1.6654    0.7338 C   0  0  0  0  0  0  0  0  0  0  0  0
   -1.7369   -2.3067   -0.1634 C   0  0  0  0  0  0  0  0  0  0  0  0
  1  2  1  0
  2  3  1  0
  3  4  2  0
  3  5  1  0
  5  6  1  0
  6  7  2  0
  7  8  1  0
  8  9  2  0
  9 10  1  0
 10 11  2  0
 10 12  1  0
 12 13  1  0
 13 14  2  0
 14 15  1  0
 15 16  2  0
 16 17  1  0
 17 18  2  0
 18 19  1  0
 19 20  1  0
 11  6  1  0
 18 13  1  0
 20  9  1  0
M  END
>  <zinc_id>  (1) 
ZINC000000258914

>  <smiles>  (1) 
COC(=O)Nc1ccc2c(c1)Nc1ccccc1CC2

$$$$
