
     RDKit          3D

 20 21  0  0  0  0  0  0  0  0999 V2000
    5.0726   -1.3163   -1.6922 C   0  0  0  0  0  0  0  0  0  0  0  0
    4.8738   -0.2138   -0.6864 C   0  0  0  0  0  0  0  0  0  0  0  0
    5.3059    1.0707   -1.3576 C   0  0  0  0  0  0  0  0  0  0  0  0
    5.7302   -0.4134    0.5409 C   0  0  0  0  0  0  0  0  0  0  0  0
    3.4209   -0.1340   -0.2892 C   0  0  0  0  0  0  0  0  0  0  0  0
    2.9482   -0.4958    0.9420 C   0  0  0  0  0  0  0  0  0  0  0  0
    1.5721   -0.3566    1.1874 C   0  0  0  0  0  0  0  0  0  0  0  0
    0.7342    0.1195    0.2385 C   0  0  0  0  0  0  0  0  0  0  0  0
   -0.7213    0.2973    0.4282 C   0  0  0  0  0  0  0  0  0  0  0  0
   -1.1087    0.8287    1.4982 O   0  0  0  0  0  0  0  0  0  0  0  0
   -1.6581   -0.0891   -0.5085 N   0  0  0  0  0  0  0  0  0  0  0  0
   -3.0565    0.0271   -0.4226 C   0  0  0  0  0  0  0  0  0  0  0  0
   -3.6516    0.6829    0.6499 C   0  0  0  0  0  0  0  0  0  0  0  0
   -5.0158    0.8093    0.7158 C   0  0  0  0  0  0  0  0  0  0  0  0
   -5.8702    0.3154   -0.2378 C   0  0  0  0  0  0  0  0  0  0  0  0
   -5.2803   -0.3405   -1.3065 C   0  0  0  0  0  0  0  0  0  0  0  0
   -3.8926   -0.4834   -1.3936 C   0  0  0  0  0  0  0  0  0  0  0  0
   -3.2865   -1.1418   -2.4587 O   0  0  0  0  0  0  0  0  0  0  0  0
    1.2719    0.4769   -1.0054 C   0  0  0  0  0  0  0  0  0  0  0  0
    2.6119    0.3569   -1.2821 C   0  0  0  0  0  0  0  0  0  0  0  0
  1  2  1  0
  2  3  1  0
  2  4  1  0
  2  5  1  0
  5  6  2  0
  6  7  1  0
  7  8  2  0
  8  9  1  0
  9 10  2  0
  9 11  1  0
 11 12  1  0
 12 13  2  0
 13 14  1  0
 14 15  2  0
 15 16  1  0
 16 17  2  0
 17 18  1  0
  8 19  1  0
 19 20  2  0
 20  5  1  0
 17 12  1  0
M  END
>  <zinc_id>  (1) 
ZINC000000362700

>  <smiles>  (1) 
CC(C)(C)c1ccc(C(=O)Nc2ccccc2O)cc1

$$$$
