
     RDKit          3D

 21 23  0  0  0  0  0  0  0  0999 V2000
   -2.8622   -1.1406    1.7455 C   0  0  0  0  0  0  0  0  0  0  0  0
   -2.7694   -1.3393    0.3684 O   0  0  0  0  0  0  0  0  0  0  0  0
   -2.2432   -0.1881   -0.2073 C   0  0  0  0  0  0  0  0  0  0  0  0
   -0.8867    0.1361    0.3404 C   0  0  0  0  0  0  0  0  0  0  0  0
    0.3039   -0.1624   -0.2718 C   0  0  0  0  0  0  0  0  0  0  0  0
    1.4565    0.2146    0.3673 C   0  0  0  0  0  0  0  0  0  0  0  0
    2.7875   -0.0867   -0.1906 C   0  0  0  0  0  0  0  0  0  0  0  0
    3.9167    0.3475    0.4484 C   0  0  0  0  0  0  0  0  0  0  0  0
    5.1931    0.0637   -0.0049 C   0  0  0  0  0  0  0  0  0  0  0  0
    5.3018   -0.6898   -1.1490 C   0  0  0  0  0  0  0  0  0  0  0  0
    4.1892   -1.1264   -1.7850 C   0  0  0  0  0  0  0  0  0  0  0  0
    2.9267   -0.8306   -1.3174 C   0  0  0  0  0  0  0  0  0  0  0  0
    1.3794    0.8440    1.5389 N   0  0  0  0  0  0  0  0  0  0  0  0
    0.2011    1.1550    2.1664 C   0  0  0  0  0  0  0  0  0  0  0  0
    0.2041    1.8301    3.4138 N   0  0  0  0  0  0  0  0  0  0  0  0
   -0.9144    0.7716    1.5166 N   0  0  0  0  0  0  0  0  0  0  0  0
   -3.1423    0.9930    0.1137 C   0  0  0  0  0  0  0  0  0  0  0  0
   -4.5716    0.5905   -0.1300 C   0  0  0  0  0  0  0  0  0  0  0  0
   -4.6308   -0.5726   -1.0679 C   0  0  0  0  0  0  0  0  0  0  0  0
   -3.6305   -0.4551   -2.2051 C   0  0  0  0  0  0  0  0  0  0  0  0
   -2.2089   -0.3543   -1.7162 C   0  0  0  0  0  0  0  0  0  0  0  0
  1  2  1  0
  2  3  1  0
  3  4  1  0
  4  5  2  0
  5  6  1  0
  6  7  1  0
  7  8  2  0
  8  9  1  0
  9 10  2  0
 10 11  1  0
 11 12  2  0
  6 13  2  0
 13 14  1  0
 14 15  1  0
 14 16  2  0
  3 17  1  0
 17 18  1  0
 18 19  1  0
 19 20  1  0
 20 21  1  0
 21  3  1  0
 16  4  1  0
 12  7  1  0
M  END
>  <zinc_id>  (1) 
ZINC000000188889

>  <smiles>  (1) 
COC1(c2cc(-c3ccccc3)nc(N)n2)CCCCC1

$$$$
