
     RDKit          3D

 21 23  0  0  0  0  0  0  0  0999 V2000
   -0.5746    2.1517    1.8347 O   0  0  0  0  0  0  0  0  0  0  0  0
    0.1063    1.2506    1.2848 C   0  0  0  0  0  0  0  0  0  0  0  0
    1.4223    1.3807    0.8392 N   0  0  0  0  0  0  0  0  0  0  0  0
    1.6456    0.2759   -0.2680 C   0  0  1  0  0  0  0  0  0  0  0  0
    3.0132   -0.3162    0.4785 C   0  0  0  0  0  0  0  0  0  0  0  0
    3.9630    0.8454    0.5172 C   0  0  0  0  0  0  0  0  0  0  0  0
    3.8821    1.5632   -0.8048 C   0  0  0  0  0  0  0  0  0  0  0  0
    4.4620    0.6257   -1.8543 C   0  0  0  0  0  0  0  0  0  0  0  0
    3.7379   -0.6955   -1.8789 C   0  0  0  0  0  0  0  0  0  0  0  0
    3.5569   -1.3086   -0.5310 C   0  0  0  0  0  0  0  0  0  0  0  0
    0.6735   -0.8034    0.3946 C   0  0  0  0  0  0  0  0  0  0  0  0
    0.8952   -1.9862    0.2971 O   0  0  0  0  0  0  0  0  0  0  0  0
   -0.3324   -0.0764    1.0101 N   0  0  0  0  0  0  0  0  0  0  0  0
   -1.6507   -0.5934    1.3314 C   0  0  0  0  0  0  0  0  0  0  0  0
   -2.5749   -0.3671    0.2094 C   0  0  0  0  0  0  0  0  0  0  0  0
   -2.1127    0.2582   -0.9196 C   0  0  0  0  0  0  0  0  0  0  0  0
   -2.9503    0.4746   -1.9625 C   0  0  0  0  0  0  0  0  0  0  0  0
   -4.2573    0.0680   -1.8863 C   0  0  0  0  0  0  0  0  0  0  0  0
   -4.7137   -0.5606   -0.7459 C   0  0  0  0  0  0  0  0  0  0  0  0
   -3.8772   -0.7869    0.3189 C   0  0  0  0  0  0  0  0  0  0  0  0
   -4.3141   -1.4000    1.4364 F   0  0  0  0  0  0  0  0  0  0  0  0
  1  2  2  0
  2  3  1  0
  3  4  1  0
  4  5  1  1
  5  6  1  0
  6  7  1  0
  7  8  1  0
  8  9  1  0
  9 10  1  0
  4 11  1  0
 11 12  2  0
 11 13  1  0
 13 14  1  0
 14 15  1  0
 15 16  2  0
 16 17  1  0
 17 18  2  0
 18 19  1  0
 19 20  2  0
 20 21  1  0
 13  2  1  0
 20 15  1  0
 10  5  1  0
M  END
>  <zinc_id>  (1) 
ZINC000003572944

>  <smiles>  (1) 
O=C1N[C@@H](C2CCCCC2)C(=O)N1Cc1ccccc1F

$$$$
