
     RDKit          3D

 23 26  0  0  0  0  0  0  0  0999 V2000
   -4.9224    3.0240   -0.3947 C   0  0  0  0  0  0  0  0  0  0  0  0
   -4.3382    2.0393   -1.2402 O   0  0  0  0  0  0  0  0  0  0  0  0
   -3.3478    1.1899   -0.7577 C   0  0  0  0  0  0  0  0  0  0  0  0
   -2.9367    1.3044    0.5339 C   0  0  0  0  0  0  0  0  0  0  0  0
   -1.9313    0.4203    0.9724 C   0  0  0  0  0  0  0  0  0  0  0  0
   -1.3980   -0.5145    0.1166 C   0  0  0  0  0  0  0  0  0  0  0  0
   -0.2990   -1.3739    0.8465 C   0  0  1  0  0  0  0  0  0  0  0  0
   -0.2220   -2.6671    0.0796 C   0  0  0  0  0  0  0  0  0  0  0  0
   -1.3041   -3.6979    0.1588 C   0  0  0  0  0  0  0  0  0  0  0  0
    0.7714   -2.9582   -0.6825 C   0  0  0  0  0  0  0  0  0  0  0  0
    0.7025   -4.2264   -1.3473 O   0  0  0  0  0  0  0  0  0  0  0  0
    1.8917   -2.1705   -0.9202 O   0  0  0  0  0  0  0  0  0  0  0  0
    1.9026   -0.9453   -0.2443 C   0  0  0  0  0  0  0  0  0  0  0  0
    3.0188   -0.1032   -0.4493 C   0  0  0  0  0  0  0  0  0  0  0  0
    3.0923    1.1167    0.1859 C   0  0  0  0  0  0  0  0  0  0  0  0
    2.0818    1.5254    1.0238 C   0  0  0  0  0  0  0  0  0  0  0  0
    1.0205    0.6928    1.2009 C   0  0  0  0  0  0  0  0  0  0  0  0
    0.9309   -0.5549    0.5600 C   0  0  0  0  0  0  0  0  0  0  0  0
    2.4196    2.8012    1.5305 O   0  0  0  0  0  0  0  0  0  0  0  0
    3.4526    3.2964    0.6674 C   0  0  0  0  0  0  0  0  0  0  0  0
    4.0640    2.1170    0.1564 O   0  0  0  0  0  0  0  0  0  0  0  0
   -1.8294   -0.5756   -1.1006 C   0  0  0  0  0  0  0  0  0  0  0  0
   -2.8199    0.2600   -1.6154 C   0  0  0  0  0  0  0  0  0  0  0  0
  1  2  1  0
  2  3  1  0
  3  4  2  0
  4  5  1  0
  5  6  2  0
  7  6  1  6
  7  8  1  0
  8  9  1  0
  8 10  2  0
 10 11  1  0
 10 12  1  0
 12 13  1  0
 13 14  2  0
 14 15  1  0
 15 16  2  0
 16 17  1  0
 17 18  2  0
 16 19  1  0
 19 20  1  0
 20 21  1  0
  6 22  1  0
 22 23  2  0
 23  3  1  0
 18  7  1  0
 18 13  1  0
 21 15  1  0
M  END
>  <zinc_id>  (1) 
ZINC000000044300

>  <smiles>  (1) 
COc1ccc([C@H]2C(C)=C(O)Oc3cc4c(cc32)OCO4)cc1

$$$$
