
     RDKit          3D

 19 21  0  0  0  0  0  0  0  0999 V2000
    4.7439   -1.5832   -0.4564 O   0  0  0  0  0  0  0  0  0  0  0  0
    3.5454   -0.9196   -0.3800 C   0  0  0  0  0  0  0  0  0  0  0  0
    2.7403   -1.1690    0.7127 C   0  0  0  0  0  0  0  0  0  0  0  0
    1.5323   -0.5182    0.8159 C   0  0  0  0  0  0  0  0  0  0  0  0
    1.1293    0.3783   -0.1677 C   0  0  0  0  0  0  0  0  0  0  0  0
   -0.2022    1.0241    0.0581 C   0  0  0  0  0  0  0  0  0  0  0  0
   -1.2893    0.0432    0.0792 C   0  0  0  0  0  0  0  0  0  0  0  0
   -2.2978    0.0591   -0.8821 C   0  0  0  0  0  0  0  0  0  0  0  0
   -3.3168   -0.8834   -0.8422 C   0  0  0  0  0  0  0  0  0  0  0  0
   -3.3757   -1.8579    0.1313 C   0  0  0  0  0  0  0  0  0  0  0  0
   -4.4244   -2.7753    0.1186 O   0  0  0  0  0  0  0  0  0  0  0  0
   -2.3749   -1.8696    1.0807 C   0  0  0  0  0  0  0  0  0  0  0  0
   -1.3523   -0.9315    1.0482 C   0  0  0  0  0  0  0  0  0  0  0  0
   -0.0639    1.7999    1.3679 C   0  0  0  0  0  0  0  0  0  0  0  0
    0.6622    3.0536    0.8582 C   0  0  0  0  0  0  0  0  0  0  0  0
   -0.2437    3.4232   -0.3211 C   0  0  0  0  0  0  0  0  0  0  0  0
   -0.4371    2.1067   -0.9971 C   0  0  0  0  0  0  0  0  0  0  0  0
    1.9050    0.6402   -1.2532 C   0  0  0  0  0  0  0  0  0  0  0  0
    3.1197   -0.0206   -1.3471 C   0  0  0  0  0  0  0  0  0  0  0  0
  1  2  1  0
  2  3  2  0
  3  4  1  0
  4  5  2  0
  5  6  1  0
  6  7  1  0
  7  8  2  0
  8  9  1  0
  9 10  2  0
 10 11  1  0
 10 12  1  0
 12 13  2  0
  6 14  1  0
 14 15  1  0
 15 16  1  0
 16 17  1  0
  5 18  1  0
 18 19  2  0
 19  2  1  0
 17  6  1  0
 13  7  1  0
M  END
>  <zinc_id>  (1) 
ZINC000000235823

>  <smiles>  (1) 
Oc1ccc(C2(c3ccc(O)cc3)CCCC2)cc1

$$$$
