
     RDKit          3D

 17 18  0  0  0  0  0  0  0  0999 V2000
   -4.7905   -0.6845    1.4213 C   0  0  0  0  0  0  0  0  0  0  0  0
   -4.5837   -0.4092   -0.0523 C   0  0  0  0  0  0  0  0  0  0  0  0
   -3.6186   -1.4050   -0.6638 C   0  0  0  0  0  0  0  0  0  0  0  0
   -3.4986   -1.0180   -2.1435 C   0  0  0  0  0  0  0  0  0  0  0  0
   -2.9606    0.4178   -2.1385 C   0  0  0  0  0  0  0  0  0  0  0  0
   -1.6350    0.3336   -1.4299 C   0  0  0  0  0  0  0  0  0  0  0  0
   -1.5708    0.4953   -0.0626 C   0  0  0  0  0  0  0  0  0  0  0  0
   -0.3650    0.4209    0.5999 C   0  0  0  0  0  0  0  0  0  0  0  0
    0.7924    0.1852   -0.0864 C   0  0  0  0  0  0  0  0  0  0  0  0
    2.0717    0.1051    0.6065 C   0  0  0  0  0  0  0  0  0  0  0  0
    2.3248    0.2335    1.9034 N   0  0  0  0  0  0  0  0  0  0  0  0
    3.5025    0.1345    2.3382 N   0  0  0  0  0  0  0  0  0  0  0  0
    4.5025   -0.1007    1.4919 C   0  0  0  0  0  0  0  0  0  0  0  0
    5.9055   -0.2478    1.7749 N   0  0  0  0  0  0  0  0  0  0  0  0
    3.6532   -0.1765   -0.0050 S   0  0  0  0  0  0  0  0  0  0  0  0
    0.7369    0.0237   -1.4433 C   0  0  0  0  0  0  0  0  0  0  0  0
   -0.4669    0.0972   -2.1108 C   0  0  0  0  0  0  0  0  0  0  0  0
  1  2  1  0
  2  3  1  0
  3  4  1  0
  4  5  1  0
  5  6  1  0
  6  7  2  0
  7  8  1  0
  8  9  2  0
  9 10  1  0
 10 11  2  0
 11 12  1  0
 12 13  2  0
 13 14  1  0
 13 15  1  0
  9 16  1  0
 16 17  2  0
 17  6  1  0
 15 10  1  0
M  END
>  <zinc_id>  (1) 
ZINC000002022863

>  <smiles>  (1) 
CCCCCc1ccc(-c2nnc(N)s2)cc1

$$$$
