
     RDKit          3D

 21 24  0  0  0  0  0  0  0  0999 V2000
   -2.6516   -1.4572   -2.0014 C   0  0  0  0  0  0  0  0  0  0  0  0
   -3.1753   -0.1983   -1.2981 C   0  0  0  0  0  0  0  0  0  0  0  0
   -3.0939   -0.7481    0.2566 C   0  0  1  0  0  0  0  0  0  0  0  0
   -1.4978   -1.0147    0.2231 C   0  0  0  0  0  0  0  0  0  0  0  0
   -0.9131    0.3816   -0.4325 C   0  0  2  0  0  0  0  0  0  0  0  0
    0.5660   -0.0883   -0.5018 C   0  0  0  0  0  0  0  0  0  0  0  0
    1.0748   -1.0984   -1.1612 N   0  0  0  0  0  0  0  0  0  0  0  0
    2.4398   -1.1490   -0.9578 C   0  0  0  0  0  0  0  0  0  0  0  0
    3.4611   -1.9627   -1.3815 C   0  0  0  0  0  0  0  0  0  0  0  0
    4.7410   -1.7339   -0.9858 C   0  0  0  0  0  0  0  0  0  0  0  0
    5.1069   -0.6965   -0.1513 C   0  0  0  0  0  0  0  0  0  0  0  0
    4.0849    0.1263    0.2789 C   0  0  0  0  0  0  0  0  0  0  0  0
    2.7784   -0.0946   -0.1156 C   0  0  0  0  0  0  0  0  0  0  0  0
    1.5715    0.5242    0.1306 C   0  0  0  0  0  0  0  0  0  0  0  0
    1.3418    1.7350    0.9966 C   0  0  0  0  0  0  0  0  0  0  0  0
    0.1673    1.2295    1.7941 C   0  0  0  0  0  0  0  0  0  0  0  0
   -0.9280    1.0658    0.9935 N   0  0  0  0  0  0  0  0  0  0  0  0
   -2.2605    1.4253    1.2276 C   0  0  0  0  0  0  0  0  0  0  0  0
   -3.2314    0.6709    0.9245 C   0  0  0  0  0  0  0  0  0  0  0  0
   -4.6621    0.9895    1.1448 C   0  0  0  0  0  0  0  0  0  0  0  0
   -4.9198    2.0934    1.6725 O   0  0  0  0  0  0  0  0  0  0  0  0
  1  2  1  0
  3  2  1  6
  3  4  1  0
  5  4  1  1
  5  6  1  0
  6  7  1  0
  7  8  1  0
  8  9  2  0
  9 10  1  0
 10 11  2  0
 11 12  1  0
 12 13  2  0
 13 14  1  0
 14 15  1  0
 15 16  1  0
 16 17  1  0
 17 18  1  0
 18 19  2  0
 19 20  1  0
 20 21  2  0
 19  3  1  0
 17  5  1  0
 14  6  2  0
 13  8  1  0
M  END
>  <zinc_id>  (1) 
ZINC000001433169

>  <smiles>  (1) 
CC[C@H]1C[C@@H]2c3[nH]c4ccccc4c3CCN2C=C1C=O

$$$$
