
     RDKit          3D

 18 19  0  0  0  0  0  0  0  0999 V2000
   -7.0236    1.0331    0.5455 C   0  0  0  0  0  0  0  0  0  0  0  0
   -5.5565    0.8583    0.6639 C   0  0  0  0  0  0  0  0  0  0  0  0
   -4.9219    0.7420    1.8755 C   0  0  0  0  0  0  0  0  0  0  0  0
   -3.5542    0.5810    1.9316 C   0  0  0  0  0  0  0  0  0  0  0  0
   -2.7625    0.5283    0.8057 C   0  0  0  0  0  0  0  0  0  0  0  0
   -0.9933    0.3194    0.8957 S   0  0  0  0  0  0  0  0  0  0  0  0
   -0.2887    0.2963   -0.7851 C   0  0  0  0  0  0  0  0  0  0  0  0
    1.1917    0.1212   -0.7012 C   0  0  0  0  0  0  0  0  0  0  0  0
    1.7745   -1.1288   -0.7014 C   0  0  0  0  0  0  0  0  0  0  0  0
    3.1422   -1.3011   -0.6242 C   0  0  0  0  0  0  0  0  0  0  0  0
    4.0028   -0.2225   -0.5423 C   0  0  0  0  0  0  0  0  0  0  0  0
    5.4456   -0.4106   -0.4610 C   0  0  0  0  0  0  0  0  0  0  0  0
    6.0427   -1.6984   -0.4613 N   0  0  0  0  0  0  0  0  0  0  0  0
    6.2243    0.5712   -0.3868 O   0  0  0  0  0  0  0  0  0  0  0  0
    3.4171    1.0271   -0.5423 C   0  0  0  0  0  0  0  0  0  0  0  0
    2.0489    1.1990   -0.6196 C   0  0  0  0  0  0  0  0  0  0  0  0
   -3.4028    0.6455   -0.4140 C   0  0  0  0  0  0  0  0  0  0  0  0
   -4.7863    0.8087   -0.4787 C   0  0  0  0  0  0  0  0  0  0  0  0
  1  2  1  0
  2  3  2  0
  3  4  1  0
  4  5  2  0
  5  6  1  0
  6  7  1  0
  7  8  1  0
  8  9  2  0
  9 10  1  0
 10 11  2  0
 11 12  1  0
 12 13  1  0
 12 14  2  0
 11 15  1  0
 15 16  2  0
  5 17  1  0
 17 18  2  0
 18  2  1  0
 16  8  1  0
M  END
>  <zinc_id>  (1) 
ZINC000000571929

>  <smiles>  (1) 
Cc1ccc(SCc2ccc(C(N)=O)cc2)cc1

$$$$
