
     RDKit          3D

 29 32  0  0  0  0  0  0  0  0999 V2000
   -7.8918   -2.2230   -1.0528 C   0  0  0  0  0  0  0  0  0  0  0  0
   -6.7388   -1.4004   -0.6055 C   0  0  0  0  0  0  0  0  0  0  0  0
   -5.3907   -1.6713   -0.7088 C   0  0  0  0  0  0  0  0  0  0  0  0
   -4.7456   -0.5914   -0.1437 C   0  0  0  0  0  0  0  0  0  0  0  0
   -3.3266   -0.3427    0.0189 C   0  0  0  0  0  0  0  0  0  0  0  0
   -2.5431   -1.2108   -0.4022 O   0  0  0  0  0  0  0  0  0  0  0  0
   -2.9157    0.8255    0.6229 N   0  0  0  0  0  0  0  0  0  0  0  0
   -3.7505    1.8974    1.1743 C   0  0  0  0  0  0  0  0  0  0  0  0
   -2.9304    3.1263    1.2853 C   0  0  0  0  0  0  0  0  0  0  0  0
   -1.7914    2.8881    0.3594 C   0  0  0  0  0  0  0  0  0  0  0  0
   -1.4867    1.3277    0.9227 C   0  0  2  0  0  0  0  0  0  0  0  0
   -0.7037    0.9406   -0.3994 C   0  0  0  0  0  0  0  0  0  0  0  0
   -1.3920    0.7507   -1.3748 O   0  0  0  0  0  0  0  0  0  0  0  0
    0.6889    0.8433   -0.3669 N   0  0  0  0  0  0  0  0  0  0  0  0
    1.5401    0.5077   -1.4599 C   0  0  0  0  0  0  0  0  0  0  0  0
    2.7299   -0.3193   -1.1196 C   0  0  0  0  0  0  0  0  0  0  0  0
    3.0186   -0.4709    0.2565 N   0  0  0  0  0  0  0  0  0  0  0  0
    4.3190   -0.8444    0.6986 C   0  0  0  0  0  0  0  0  0  0  0  0
    4.5511   -1.9922    1.4300 C   0  0  0  0  0  0  0  0  0  0  0  0
    5.7935   -2.3908    1.8776 C   0  0  0  0  0  0  0  0  0  0  0  0
    6.8727   -1.6001    1.5802 C   0  0  0  0  0  0  0  0  0  0  0  0
    6.6784   -0.4439    0.8501 C   0  0  0  0  0  0  0  0  0  0  0  0
    7.9130    0.3546    0.5740 C   0  0  0  0  0  0  0  0  0  0  0  0
    5.4392   -0.0620    0.4131 C   0  0  0  0  0  0  0  0  0  0  0  0
    5.2672    1.1775   -0.3635 C   0  0  0  0  0  0  0  0  0  0  0  0
    1.9858   -0.2463    1.2488 C   0  0  0  0  0  0  0  0  0  0  0  0
    1.3876    1.1067    0.9072 C   0  0  0  0  0  0  0  0  0  0  0  0
   -5.6854    0.2706    0.2703 N   0  0  0  0  0  0  0  0  0  0  0  0
   -6.8924   -0.2072   -0.0032 N   0  0  0  0  0  0  0  0  0  0  0  0
  1  2  1  0
  2  3  2  0
  3  4  1  0
  4  5  1  0
  5  6  2  0
  5  7  1  0
  7  8  1  0
  8  9  1  0
  9 10  1  0
 10 11  1  0
 11 12  1  6
 12 13  2  0
 12 14  1  0
 14 15  1  0
 15 16  1  0
 16 17  1  0
 17 18  1  0
 18 19  2  0
 19 20  1  0
 20 21  2  0
 21 22  1  0
 22 23  1  0
 22 24  2  0
 24 25  1  0
 17 26  1  0
 26 27  1  0
  4 28  2  0
 28 29  1  0
 29  2  1  0
 11  7  1  0
 27 14  1  0
 24 18  1  0
M  END
>  <zinc_id>  (1) 
ZINC000000041025

>  <smiles>  (1) 
Cc1cc(C(=O)N2CCC[C@@H]2C(=O)N2CCN(c3cccc(C)c3C)CC2)n[nH]1

$$$$
