
     RDKit          3D

 20 22  0  0  0  0  0  0  0  0999 V2000
    4.8684    0.7826   -1.0901 C   0  0  0  0  0  0  0  0  0  0  0  0
    4.7970   -0.6057   -0.5105 C   0  0  0  0  0  0  0  0  0  0  0  0
    3.9694   -0.5974    0.7213 C   0  0  0  0  0  0  0  0  0  0  0  0
    2.5823   -0.1198    0.3777 C   0  0  0  0  0  0  0  0  0  0  0  0
    2.2682    1.2127    0.2554 C   0  0  0  0  0  0  0  0  0  0  0  0
    3.2081    2.1927    0.4749 O   0  0  0  0  0  0  0  0  0  0  0  0
    0.9841    1.6203   -0.0936 C   0  0  0  0  0  0  0  0  0  0  0  0
    0.0201    0.6723   -0.3183 C   0  0  0  0  0  0  0  0  0  0  0  0
    0.2945   -0.6723   -0.2056 C   0  0  0  0  0  0  0  0  0  0  0  0
    1.5732   -1.0374    0.1403 C   0  0  0  0  0  0  0  0  0  0  0  0
    1.9061   -2.3914    0.2669 O   0  0  0  0  0  0  0  0  0  0  0  0
   -0.5990   -1.8372   -0.4117 C   0  0  0  0  0  0  0  0  0  0  0  0
   -1.8459   -1.8141    0.3964 C   0  0  0  0  0  0  0  0  0  0  0  0
   -2.7412   -0.6628    0.1550 C   0  0  0  0  0  0  0  0  0  0  0  0
   -4.0362   -1.0242    0.4631 C   0  0  0  0  0  0  0  0  0  0  0  0
   -5.1049   -0.1472    0.3351 C   0  0  0  0  0  0  0  0  0  0  0  0
   -4.8541    1.1453   -0.1220 C   0  0  0  0  0  0  0  0  0  0  0  0
   -3.5480    1.4866   -0.4249 C   0  0  0  0  0  0  0  0  0  0  0  0
   -2.4964    0.6156   -0.2972 C   0  0  0  0  0  0  0  0  0  0  0  0
   -1.2457    1.1813   -0.6659 O   0  0  0  0  0  0  0  0  0  0  0  0
  1  2  1  0
  2  3  1  0
  3  4  1  0
  4  5  2  0
  5  6  1  0
  5  7  1  0
  7  8  2  0
  8  9  1  0
  9 10  2  0
 10 11  1  0
  9 12  1  0
 12 13  1  0
 13 14  1  0
 14 15  2  0
 15 16  1  0
 16 17  2  0
 17 18  1  0
 18 19  2  0
 19 20  1  0
 10  4  1  0
 19 14  1  0
 20  8  1  0
M  END
>  <zinc_id>  (1) 
ZINC000000021531

>  <smiles>  (1) 
CCCc1c(O)cc2c(c1O)CCc1ccccc1O2

$$$$
