
     RDKit          3D

 20 21  0  0  0  0  0  0  0  0999 V2000
   -7.1853   -0.5875    0.1466 C   0  0  0  0  0  0  0  0  0  0  0  0
   -5.7697   -0.8103    0.1217 O   0  0  0  0  0  0  0  0  0  0  0  0
   -4.8826    0.2719   -0.0232 C   0  0  0  0  0  0  0  0  0  0  0  0
   -5.3558    1.4109   -0.1275 O   0  0  0  0  0  0  0  0  0  0  0  0
   -3.4454    0.0210   -0.0458 C   0  0  0  0  0  0  0  0  0  0  0  0
   -2.5966    1.0916   -0.1882 C   0  0  0  0  0  0  0  0  0  0  0  0
   -1.2556    0.8708   -0.2107 C   0  0  0  0  0  0  0  0  0  0  0  0
   -0.6822   -0.3988   -0.0959 C   0  0  0  0  0  0  0  0  0  0  0  0
    0.7174   -0.5859   -0.1239 N   0  0  0  0  0  0  0  0  0  0  0  0
    1.5492    0.5538   -0.2731 C   0  0  0  0  0  0  0  0  0  0  0  0
    0.9105    2.0702   -0.4120 S   0  0  0  0  0  0  0  0  0  0  0  0
    2.9706    0.4767   -0.3135 N   0  0  0  0  0  0  0  0  0  0  0  0
    3.7088   -0.7094   -0.2130 C   0  0  0  0  0  0  0  0  0  0  0  0
    3.0836   -1.7924   -0.0769 O   0  0  0  0  0  0  0  0  0  0  0  0
    5.2044   -0.7576   -0.2589 C   0  0  0  0  0  0  0  0  0  0  0  0
    5.8452    0.0478    0.8544 C   0  0  0  0  0  0  0  0  0  0  0  0
    5.9033    1.2332   -0.0597 C   0  0  0  0  0  0  0  0  0  0  0  0
    5.7786    0.2791   -1.2329 C   0  0  0  0  0  0  0  0  0  0  0  0
   -1.5677   -1.4477    0.0454 C   0  0  0  0  0  0  0  0  0  0  0  0
   -2.9307   -1.2373    0.0698 C   0  0  0  0  0  0  0  0  0  0  0  0
  1  2  1  0
  2  3  1  0
  3  4  2  0
  3  5  1  0
  5  6  2  0
  6  7  1  0
  7  8  2  0
  8  9  1  0
  9 10  1  0
 10 11  2  0
 10 12  1  0
 12 13  1  0
 13 14  2  0
 13 15  1  0
 15 16  1  0
 16 17  1  0
 17 18  1  0
  8 19  1  0
 19 20  2  0
 20  5  1  0
 18 15  1  0
M  END
>  <zinc_id>  (1) 
ZINC000002136356

>  <smiles>  (1) 
COC(=O)c1ccc(NC(=S)NC(=O)C2CCC2)cc1

$$$$
