
     RDKit          3D

 19 20  0  0  0  0  0  0  0  0999 V2000
    4.0399    1.9464   -0.1847 C   0  0  0  0  0  0  0  0  0  0  0  0
    4.1128    0.3231    0.0988 C   0  0  1  0  0  0  0  0  0  0  0  0
    3.3776    0.4520    1.5650 C   0  0  0  0  0  0  0  0  0  0  0  0
    2.1521   -0.3577    1.3639 C   0  0  0  0  0  0  0  0  0  0  0  0
    1.6752    0.4623    0.1352 C   0  0  2  0  0  0  0  0  0  0  0  0
    1.7186    1.9199    0.4179 C   0  0  0  0  0  0  0  0  0  0  0  0
    0.4150   -0.0432   -0.3682 C   0  0  0  0  0  0  0  0  0  0  0  0
   -0.0610    0.3548   -1.4548 O   0  0  0  0  0  0  0  0  0  0  0  0
   -0.3093   -1.0009    0.3654 N   0  0  0  0  0  0  0  0  0  0  0  0
   -1.5012   -1.5871    0.0716 N   0  0  0  0  0  0  0  0  0  0  0  0
   -2.7616   -0.9275    0.0533 C   0  0  0  0  0  0  0  0  0  0  0  0
   -2.9707    0.2931   -0.5529 C   0  0  0  0  0  0  0  0  0  0  0  0
   -4.1895    0.9389   -0.5223 C   0  0  0  0  0  0  0  0  0  0  0  0
   -5.2747    0.3630    0.1382 C   0  0  0  0  0  0  0  0  0  0  0  0
   -5.0626   -0.8619    0.7448 C   0  0  0  0  0  0  0  0  0  0  0  0
   -3.8478   -1.4992    0.7131 C   0  0  0  0  0  0  0  0  0  0  0  0
    2.7628    0.0108   -0.7668 C   0  0  0  0  0  0  0  0  0  0  0  0
    2.8966    0.6959   -2.0596 C   0  0  0  0  0  0  0  0  0  0  0  0
    2.8279   -1.4829   -0.9112 C   0  0  0  0  0  0  0  0  0  0  0  0
  2  1  1  6
  2  3  1  0
  3  4  1  0
  4  5  1  0
  5  6  1  1
  5  7  1  0
  7  8  2  0
  7  9  1  0
  9 10  1  0
 10 11  1  0
 11 12  2  0
 12 13  1  0
 13 14  2  0
 14 15  1  0
 15 16  2  0
  5 17  1  0
 17 18  1  0
 17 19  1  0
 17  2  1  0
 16 11  1  0
M  END
>  <zinc_id>  (1) 
ZINC000003845596

>  <smiles>  (1) 
C[C@H]1CC[C@](C)(C(=O)NNc2ccccc2)C1(C)C

$$$$
