
     RDKit          3D

 21 22  0  0  0  0  0  0  0  0999 V2000
    6.1144    1.6237   -1.1715 C   0  0  0  0  0  0  0  0  0  0  0  0
    4.7613    1.1071   -0.8042 C   0  0  0  0  0  0  0  0  0  0  0  0
    3.6007    1.6122   -1.3317 C   0  0  0  0  0  0  0  0  0  0  0  0
    2.3951    1.0760   -0.9369 C   0  0  0  0  0  0  0  0  0  0  0  0
    2.2938    0.0479   -0.0301 C   0  0  0  0  0  0  0  0  0  0  0  0
    0.9937   -0.5059    0.3753 C   0  0  0  0  0  0  0  0  0  0  0  0
    0.9390   -1.4486    1.2030 O   0  0  0  0  0  0  0  0  0  0  0  0
   -0.2324   -0.0154   -0.1354 N   0  0  0  0  0  0  0  0  0  0  0  0
   -1.5146   -0.5117    0.2211 C   0  0  0  0  0  0  0  0  0  0  0  0
   -1.6971   -1.5397    1.1211 C   0  0  0  0  0  0  0  0  0  0  0  0
   -2.9931   -1.9411    1.3941 C   0  0  0  0  0  0  0  0  0  0  0  0
   -4.0724   -1.3353    0.7875 C   0  0  0  0  0  0  0  0  0  0  0  0
   -3.8942   -0.3137   -0.1073 C   0  0  0  0  0  0  0  0  0  0  0  0
   -4.9570    0.3456   -0.7610 N   0  0  0  0  0  4  0  0  0  0  0  0
   -6.0695    0.4028   -0.2246 O   0  0  0  0  0  0  0  0  0  0  0  0
   -4.7856    0.9270   -1.9818 O   0  0  0  0  0  1  0  0  0  0  0  0
   -2.5985    0.1003   -0.3914 C   0  0  0  0  0  0  0  0  0  0  0  0
   -2.3953    1.2143   -1.3666 C   0  0  0  0  0  0  0  0  0  0  0  0
    3.4656   -0.4503    0.4921 C   0  0  0  0  0  0  0  0  0  0  0  0
    4.6836    0.0771    0.1059 C   0  0  0  0  0  0  0  0  0  0  0  0
    5.9626   -0.4721    0.6817 C   0  0  0  0  0  0  0  0  0  0  0  0
  1  2  1  0
  2  3  2  0
  3  4  1  0
  4  5  2  0
  5  6  1  0
  6  7  2  0
  6  8  1  0
  8  9  1  0
  9 10  2  0
 10 11  1  0
 11 12  2  0
 12 13  1  0
 13 14  1  0
 14 15  2  0
 14 16  1  0
 13 17  2  0
 17 18  1  0
  5 19  1  0
 19 20  2  0
 20 21  1  0
 20  2  1  0
 17  9  1  0
M  CHG  2  14   1  16  -1
M  END
>  <zinc_id>  (1) 
ZINC000000441601

>  <smiles>  (1) 
Cc1ccc(C(=O)Nc2cccc([N+](=O)[O-])c2C)cc1C

$$$$
