
     RDKit          3D

 20 22  0  0  0  0  0  0  0  0999 V2000
   -4.7351    1.7309    0.6227 C   0  0  0  0  0  0  0  0  0  0  0  0
   -5.0330    0.4322   -0.0898 C   0  0  0  0  0  0  0  0  0  0  0  0
   -6.5230    0.1788    0.0622 C   0  0  0  0  0  0  0  0  0  0  0  0
   -4.7486    0.6260   -1.5473 C   0  0  0  0  0  0  0  0  0  0  0  0
   -4.3284   -0.6836    0.4822 N   0  0  0  0  0  0  0  0  0  0  0  0
   -2.9267   -0.6602    0.5057 C   0  0  0  0  0  0  0  0  0  0  0  0
   -2.3152    0.0188   -0.3856 N   0  0  0  0  0  0  0  0  0  0  0  0
   -0.9506    0.1332   -0.4862 N   0  0  0  0  0  0  0  0  0  0  0  0
    0.0304   -0.4489    0.3371 C   0  0  0  0  0  0  0  0  0  0  0  0
    1.4598   -0.1729    0.0213 C   0  0  0  0  0  0  0  0  0  0  0  0
    1.9781    0.5899   -0.9868 C   0  0  0  0  0  0  0  0  0  0  0  0
    3.3521    0.5326   -0.8555 C   0  0  0  0  0  0  0  0  0  0  0  0
    4.4027    1.0684   -1.5364 C   0  0  0  0  0  0  0  0  0  0  0  0
    5.7256    0.8402   -1.1767 C   0  0  0  0  0  0  0  0  0  0  0  0
    5.9193    0.0311   -0.0783 C   0  0  0  0  0  0  0  0  0  0  0  0
    4.8926   -0.5338    0.6428 C   0  0  0  0  0  0  0  0  0  0  0  0
    3.5940   -0.2712    0.2378 C   0  0  0  0  0  0  0  0  0  0  0  0
    2.4445   -0.6528    0.7069 O   0  0  0  0  0  0  0  0  0  0  0  0
   -0.2695   -1.2162    1.3598 C   0  0  0  0  0  0  0  0  0  0  0  0
   -1.9692   -1.5426    1.7329 S   0  0  0  0  0  0  0  0  0  0  0  0
  1  2  1  0
  2  3  1  0
  2  4  1  0
  2  5  1  0
  5  6  1  0
  6  7  2  0
  7  8  1  0
  8  9  1  0
  9 10  1  0
 10 11  2  0
 11 12  1  0
 12 13  2  0
 13 14  1  0
 14 15  2  0
 15 16  1  0
 16 17  2  0
 17 18  1  0
  9 19  2  0
 19 20  1  0
 20  6  1  0
 18 10  1  0
 17 12  1  0
M  END
>  <zinc_id>  (1) 
ZINC000003343072

>  <smiles>  (1) 
CC(C)(C)NC1=NNC(c2cc3ccccc3o2)=CS1

$$$$
