
     RDKit          3D

 20 22  0  0  0  0  0  0  0  0999 V2000
    4.3695   -0.2258   -0.6215 C   0  0  0  0  0  0  0  0  0  0  0  0
    3.8967   -1.3251    0.2730 C   0  0  0  0  0  0  0  0  0  0  0  0
    5.0082   -2.0169    1.0319 C   0  0  0  0  0  0  0  0  0  0  0  0
    2.8746   -0.8470    1.2461 C   0  0  0  0  0  0  0  0  0  0  0  0
    1.6479   -0.2888    0.5785 C   0  0  0  0  0  0  0  0  0  0  0  0
    0.4522   -0.8693    0.4456 N   0  0  0  0  0  0  0  0  0  0  0  0
   -0.4157   -0.1074   -0.1986 N   0  0  0  0  0  0  0  0  0  0  0  0
   -1.7886   -0.4322   -0.5087 C   0  0  0  0  0  0  0  0  0  0  0  0
   -2.1843   -0.8334   -1.7599 C   0  0  0  0  0  0  0  0  0  0  0  0
   -3.5255   -1.1354   -2.0117 C   0  0  0  0  0  0  0  0  0  0  0  0
   -4.4842   -1.0414   -1.0244 C   0  0  0  0  0  0  0  0  0  0  0  0
   -4.0986   -0.6376    0.2445 C   0  0  0  0  0  0  0  0  0  0  0  0
   -2.7553   -0.3426    0.4696 C   0  0  0  0  0  0  0  0  0  0  0  0
   -2.3635    0.0738    1.7848 C   0  0  0  0  0  0  0  0  0  0  0  0
   -2.0372    0.4192    2.8228 N   0  0  0  0  0  0  0  0  0  0  0  0
    0.2474    1.0252   -0.5001 C   0  0  0  0  0  0  0  0  0  0  0  0
    1.5533    0.9406   -0.0221 C   0  0  0  0  0  0  0  0  0  0  0  0
    2.3005    2.1826   -0.3463 C   0  0  0  0  0  0  0  0  0  0  0  0
    1.2200    3.1545   -0.7568 C   0  0  0  0  0  0  0  0  0  0  0  0
    0.0826    2.3070   -1.1465 N   0  0  0  0  0  0  0  0  0  0  0  0
  1  2  1  0
  2  3  1  0
  2  4  1  0
  4  5  1  0
  5  6  2  0
  6  7  1  0
  7  8  1  0
  8  9  2  0
  9 10  1  0
 10 11  2  0
 11 12  1  0
 12 13  2  0
 13 14  1  0
 14 15  3  0
  7 16  1  0
 16 17  2  0
 17 18  1  0
 18 19  1  0
 19 20  1  0
 17  5  1  0
 13  8  1  0
 20 16  1  0
M  END
>  <zinc_id>  (1) 
ZINC000003706340

>  <smiles>  (1) 
CC(C)Cc1nn(-c2ccccc2C#N)c2c1CCN2

$$$$
