
     RDKit          3D

 20 21  0  0  0  0  0  0  0  0999 V2000
    4.6203   -1.8950    1.3099 C   0  0  0  0  0  0  0  0  0  0  0  0
    4.8798   -0.5441    0.6814 C   0  0  0  0  0  0  0  0  0  0  0  0
    3.6540    0.1633    0.4659 O   0  0  0  0  0  0  0  0  0  0  0  0
    2.6474   -0.3234   -0.3329 C   0  0  0  0  0  0  0  0  0  0  0  0
    2.7632   -1.4265   -0.9162 O   0  0  0  0  0  0  0  0  0  0  0  0
    1.4015    0.4830   -0.5010 C   0  0  0  0  0  0  0  0  0  0  0  0
    0.4272    0.0799   -1.2345 C   0  0  0  0  0  0  0  0  0  0  0  0
    0.6188   -1.2560   -1.9146 C   0  0  0  0  0  0  0  0  0  0  0  0
   -0.8987    0.8009   -1.4934 C   0  0  1  0  0  0  0  0  0  0  0  0
   -1.8664   -0.0147   -0.5447 C   0  0  0  0  0  0  0  0  0  0  0  0
   -1.6298   -1.2883   -0.2021 C   0  0  0  0  0  0  0  0  0  0  0  0
   -2.5294   -1.9651    0.6469 C   0  0  0  0  0  0  0  0  0  0  0  0
   -3.6502   -1.3354    1.1304 C   0  0  0  0  0  0  0  0  0  0  0  0
   -4.5305   -1.9920    1.9588 F   0  0  0  0  0  0  0  0  0  0  0  0
   -3.8792   -0.0303    0.7705 C   0  0  0  0  0  0  0  0  0  0  0  0
   -2.9731    0.6376   -0.0791 C   0  0  0  0  0  0  0  0  0  0  0  0
   -0.8340    2.0828   -0.7135 N   0  0  0  0  0  0  0  0  0  0  0  0
    0.2021    2.5022    0.0611 C   0  0  0  0  0  0  0  0  0  0  0  0
    0.2208    3.6111    0.7167 O   0  0  0  0  0  0  0  0  0  0  0  0
    1.3560    1.7100    0.1904 N   0  0  0  0  0  0  0  0  0  0  0  0
  1  2  1  0
  2  3  1  0
  3  4  1  0
  4  5  2  0
  4  6  1  0
  6  7  2  0
  7  8  1  0
  7  9  1  0
  9 10  1  6
 10 11  2  0
 11 12  1  0
 12 13  2  0
 13 14  1  0
 13 15  1  0
 15 16  2  0
  9 17  1  0
 17 18  1  0
 18 19  2  0
 18 20  1  0
 20  6  1  0
 16 10  1  0
M  END
>  <zinc_id>  (1) 
ZINC000000339983

>  <smiles>  (1) 
CCOC(=O)C1=C(C)[C@H](c2ccc(F)cc2)NC(=O)N1

$$$$
