
     RDKit          3D

 21 23  0  0  0  0  0  0  0  0999 V2000
    6.5828    0.4261   -1.7091 C   0  0  0  0  0  0  0  0  0  0  0  0
    6.3317   -0.1001   -0.2919 C   0  0  0  0  0  0  0  0  0  0  0  0
    7.1125    0.6980    0.7000 C   0  0  0  0  0  0  0  0  0  0  0  0
    4.8732   -0.0258   -0.0073 C   0  0  0  0  0  0  0  0  0  0  0  0
    3.9306   -0.4517   -0.9169 C   0  0  0  0  0  0  0  0  0  0  0  0
    2.5837   -0.3726   -0.6299 C   0  0  0  0  0  0  0  0  0  0  0  0
    2.1089    0.1283    0.5625 C   0  0  0  0  0  0  0  0  0  0  0  0
    0.6982    0.2299    0.9062 C   0  0  0  0  0  0  0  0  0  0  0  0
   -0.1917   -0.1623    0.0705 N   0  0  0  0  0  0  0  0  0  0  0  0
   -1.5941   -0.0902    0.3455 C   0  0  0  0  0  0  0  0  0  0  0  0
   -2.1123    0.1992    1.5640 C   0  0  0  0  0  0  0  0  0  0  0  0
   -3.4713    0.2525    1.7604 C   0  0  0  0  0  0  0  0  0  0  0  0
   -4.3230    0.0138    0.7263 C   0  0  0  0  0  0  0  0  0  0  0  0
   -5.6774   -0.0007    0.6342 N   0  0  0  0  0  0  0  0  0  0  0  0
   -6.0090   -0.2968   -0.6320 C   0  0  0  0  0  0  0  0  0  0  0  0
   -7.1731   -0.3998   -1.0961 O   0  0  0  0  0  0  0  0  0  0  0  0
   -4.8715   -0.4664   -1.3277 N   0  0  0  0  0  0  0  0  0  0  0  0
   -3.8158   -0.2819   -0.5194 C   0  0  0  0  0  0  0  0  0  0  0  0
   -2.4528   -0.3320   -0.7018 C   0  0  0  0  0  0  0  0  0  0  0  0
    3.0535    0.5543    1.4720 C   0  0  0  0  0  0  0  0  0  0  0  0
    4.4168    0.4779    1.1902 C   0  0  0  0  0  0  0  0  0  0  0  0
  1  2  1  0
  2  3  1  0
  2  4  1  0
  4  5  2  0
  5  6  1  0
  6  7  2  0
  7  8  1  0
  8  9  2  0
  9 10  1  0
 10 11  2  0
 11 12  1  0
 12 13  2  0
 13 14  1  0
 14 15  1  0
 15 16  2  0
 15 17  1  0
 17 18  1  0
 18 19  2  0
  7 20  1  0
 20 21  2  0
 21  4  1  0
 19 10  1  0
 18 13  1  0
M  END
>  <zinc_id>  (1) 
ZINC000000436013

>  <smiles>  (1) 
CC(C)c1ccc(/C=N/c2ccc3[nH]c(=O)[nH]c3c2)cc1

$$$$
