
     RDKit          3D

 22 24  0  0  0  0  0  0  0  0999 V2000
    4.9443    1.2590   -0.8164 C   0  0  0  0  0  0  0  0  0  0  0  0
    3.6947    0.4532   -0.6401 C   0  0  0  0  0  0  0  0  0  0  0  0
    3.6682   -0.7731   -1.2656 C   0  0  0  0  0  0  0  0  0  0  0  0
    2.5600   -1.5466   -1.1400 C   0  0  0  0  0  0  0  0  0  0  0  0
    1.4715   -1.1276   -0.4032 C   0  0  0  0  0  0  0  0  0  0  0  0
    0.2902   -1.9813   -0.2831 N   0  0  0  0  0  0  0  0  0  0  0  0
   -0.8602   -1.6340    0.4397 C   0  0  0  0  0  0  0  0  0  0  0  0
   -0.8845   -0.5872    0.9886 O   0  0  0  0  0  0  0  0  0  0  0  0
   -1.9476   -2.7573    0.3782 C   0  0  1  0  0  0  0  0  0  0  0  0
   -3.2162   -2.0736    1.3360 C   0  0  0  0  0  0  0  0  0  0  0  0
   -3.3494   -2.1369   -0.3725 C   0  0  1  0  0  0  0  0  0  0  0  0
   -3.1057   -0.6642   -0.7911 C   0  0  0  0  0  0  0  0  0  0  0  0
   -4.1487    0.1278   -0.3855 C   0  0  0  0  0  0  0  0  0  0  0  0
   -4.1606    1.5173   -0.6520 C   0  0  0  0  0  0  0  0  0  0  0  0
   -3.0722    2.0098   -1.3345 C   0  0  0  0  0  0  0  0  0  0  0  0
   -2.0328    1.2193   -1.7384 C   0  0  0  0  0  0  0  0  0  0  0  0
   -2.1387   -0.0947   -1.4232 C   0  0  0  0  0  0  0  0  0  0  0  0
    1.5265    0.0948    0.2067 C   0  0  0  0  0  0  0  0  0  0  0  0
    2.6277    0.9146    0.1086 C   0  0  0  0  0  0  0  0  0  0  0  0
    2.7118    2.1880    0.7308 N   0  0  0  0  0  4  0  0  0  0  0  0
    3.8241    2.6251    1.1276 O   0  0  0  0  0  0  0  0  0  0  0  0
    1.5977    2.9677    0.9151 O   0  0  0  0  0  1  0  0  0  0  0  0
  1  2  1  0
  2  3  2  0
  3  4  1  0
  4  5  2  0
  5  6  1  0
  6  7  1  0
  7  8  2  0
  9  7  1  6
  9 10  1  0
 10 11  1  0
 11 12  1  6
 12 13  2  0
 13 14  1  0
 14 15  2  0
 15 16  1  0
 16 17  2  0
  5 18  1  0
 18 19  2  0
 19 20  1  0
 20 21  2  0
 20 22  1  0
 19  2  1  0
 11  9  1  0
 17 12  1  0
M  CHG  2  20   1  22  -1
M  END
>  <zinc_id>  (1) 
ZINC000000300945

>  <smiles>  (1) 
Cc1ccc(NC(=O)[C@H]2C[C@H]2c2ccccc2)cc1[N+](=O)[O-]

$$$$
