
     RDKit          3D

 20 22  0  0  0  0  0  0  0  0999 V2000
    3.4254   -3.1370    0.2640 N   0  0  0  0  0  0  0  0  0  0  0  0
    2.8720   -1.8470   -0.0493 C   0  0  0  0  0  0  0  0  0  0  0  0
    1.6817   -1.7197   -0.7368 C   0  0  0  0  0  0  0  0  0  0  0  0
    1.1204   -0.4994   -1.0550 C   0  0  0  0  0  0  0  0  0  0  0  0
   -0.0838   -0.3950   -1.7506 O   0  0  0  0  0  0  0  0  0  0  0  0
   -1.2763   -0.3488   -1.0605 C   0  0  0  0  0  0  0  0  0  0  0  0
   -1.9170   -1.5327   -0.7835 C   0  0  0  0  0  0  0  0  0  0  0  0
   -3.1152   -1.5728   -0.0968 C   0  0  0  0  0  0  0  0  0  0  0  0
   -3.7038   -0.3999    0.3329 C   0  0  0  0  0  0  0  0  0  0  0  0
   -3.0802    0.7861    0.0659 C   0  0  0  0  0  0  0  0  0  0  0  0
   -1.8839    0.8096   -0.6210 C   0  0  0  0  0  0  0  0  0  0  0  0
   -3.8787    1.9022    0.6120 C   0  0  0  0  0  0  0  0  0  0  0  0
   -5.2121    1.2999    1.0096 C   0  0  0  0  0  0  0  0  0  0  0  0
   -4.9644   -0.1916    1.0746 C   0  0  0  0  0  0  0  0  0  0  0  0
    1.8144    0.6398   -0.6479 C   0  0  0  0  0  0  0  0  0  0  0  0
    3.0066    0.5557    0.0409 C   0  0  0  0  0  0  0  0  0  0  0  0
    3.6978    1.7315    0.4466 N   0  0  0  0  0  4  0  0  0  0  0  0
    4.7726    1.6358    1.0676 O   0  0  0  0  0  0  0  0  0  0  0  0
    3.2037    2.9734    0.1673 O   0  0  0  0  0  1  0  0  0  0  0  0
    3.5207   -0.6901    0.3317 C   0  0  0  0  0  0  0  0  0  0  0  0
  1  2  1  0
  2  3  2  0
  3  4  1  0
  4  5  1  0
  5  6  1  0
  6  7  2  0
  7  8  1  0
  8  9  2  0
  9 10  1  0
 10 11  2  0
 10 12  1  0
 12 13  1  0
 13 14  1  0
  4 15  2  0
 15 16  1  0
 16 17  1  0
 17 18  2  0
 17 19  1  0
 16 20  2  0
 20  2  1  0
 11  6  1  0
 14  9  1  0
M  CHG  2  17   1  19  -1
M  END
>  <zinc_id>  (1) 
ZINC000000265805

>  <smiles>  (1) 
Nc1cc(Oc2ccc3c(c2)CCC3)cc([N+](=O)[O-])c1

$$$$
