
     RDKit          3D

 23 26  0  0  0  0  0  0  0  0999 V2000
   -3.1850   -4.4189   -0.0929 C   0  0  0  0  0  0  0  0  0  0  0  0
   -2.3143   -3.2550   -0.4395 C   0  0  0  0  0  0  0  0  0  0  0  0
   -1.7087   -3.0938   -1.6496 C   0  0  0  0  0  0  0  0  0  0  0  0
   -1.0057   -1.9092   -1.5630 C   0  0  0  0  0  0  0  0  0  0  0  0
   -1.2132   -1.3970   -0.3002 C   0  0  0  0  0  0  0  0  0  0  0  0
   -0.7131   -0.1618    0.3484 C   0  0  0  0  0  0  0  0  0  0  0  0
   -1.5916    0.9990    0.1470 C   0  0  0  0  0  0  0  0  0  0  0  0
   -2.6251    1.3064    1.0259 C   0  0  0  0  0  0  0  0  0  0  0  0
   -3.2607    2.4476    0.5622 C   0  0  0  0  0  0  0  0  0  0  0  0
   -2.5625    2.7720   -0.5927 C   0  0  0  0  0  0  0  0  0  0  0  0
   -2.8286    3.9161   -1.4892 C   0  0  0  0  0  0  0  0  0  0  0  0
   -1.6068    1.8969   -0.7821 O   0  0  0  0  0  0  0  0  0  0  0  0
    0.7066    0.0695    0.1296 C   0  0  0  0  0  0  0  0  0  0  0  0
    1.5982   -0.0553    1.1814 C   0  0  0  0  0  0  0  0  0  0  0  0
    2.9535    0.1632    0.9826 C   0  0  0  0  0  0  0  0  0  0  0  0
    3.4075    0.5056   -0.2701 C   0  0  0  0  0  0  0  0  0  0  0  0
    2.4917    0.6272   -1.3216 C   0  0  0  0  0  0  0  0  0  0  0  0
    1.1453    0.4119   -1.1316 C   0  0  0  0  0  0  0  0  0  0  0  0
    0.2026    0.5338   -2.1985 N   0  0  0  0  0  0  0  0  0  0  0  0
    4.7881    0.6658   -0.1982 O   0  0  0  0  0  0  0  0  0  0  0  0
    5.2565    0.1038    1.0355 C   0  0  0  0  0  0  0  0  0  0  0  0
    4.0701    0.1193    1.8050 O   0  0  0  0  0  0  0  0  0  0  0  0
   -2.0049   -2.2472    0.3253 O   0  0  0  0  0  0  0  0  0  0  0  0
  1  2  1  0
  2  3  2  0
  3  4  1  0
  4  5  2  0
  5  6  1  0
  6  7  1  0
  7  8  2  0
  8  9  1  0
  9 10  2  0
 10 11  1  0
 10 12  1  0
  6 13  1  0
 13 14  2  0
 14 15  1  0
 15 16  2  0
 16 17  1  0
 17 18  2  0
 18 19  1  0
 16 20  1  0
 20 21  1  0
 21 22  1  0
  5 23  1  0
 23  2  1  0
 12  7  1  0
 18 13  1  0
 22 15  1  0
M  END
>  <zinc_id>  (1) 
ZINC000003850583

>  <smiles>  (1) 
Cc1ccc(C(c2ccc(C)o2)c2cc3c(cc2N)OCO3)o1

$$$$
