
     RDKit          3D

 20 22  0  0  0  0  0  0  0  0999 V2000
    4.1833   -0.9314    1.4744 C   0  0  0  0  0  0  0  0  0  0  0  0
    3.9714   -0.0816    0.2386 C   0  0  0  0  0  0  0  0  0  0  0  0
    4.3087   -0.8658   -1.0263 C   0  0  0  0  0  0  0  0  0  0  0  0
    4.7289    1.2098    0.2810 C   0  0  0  0  0  0  0  0  0  0  0  0
    3.8505    2.0973   -0.4993 N   0  0  0  0  0  0  0  0  0  0  0  0
    2.5132    1.6360   -0.3393 C   0  0  0  0  0  0  0  0  0  0  0  0
    1.2781    2.2760   -0.5530 C   0  0  0  0  0  0  0  0  0  0  0  0
    0.1197    1.5762   -0.3087 C   0  0  0  0  0  0  0  0  0  0  0  0
    0.1300    0.2619    0.1409 C   0  0  0  0  0  0  0  0  0  0  0  0
   -1.1370   -0.4134    0.3771 C   0  0  0  0  0  0  0  0  0  0  0  0
   -1.2659   -1.3763    1.3467 C   0  0  0  0  0  0  0  0  0  0  0  0
   -2.4567   -2.0363    1.5954 C   0  0  0  0  0  0  0  0  0  0  0  0
   -3.5538   -1.6844    0.8095 C   0  0  0  0  0  0  0  0  0  0  0  0
   -3.4660   -0.7251   -0.1717 C   0  0  0  0  0  0  0  0  0  0  0  0
   -4.6192   -0.4178   -0.9317 N   0  0  0  0  0  4  0  0  0  0  0  0
   -5.6952   -0.9884   -0.7342 O   0  0  0  0  0  0  0  0  0  0  0  0
   -4.5482    0.5368   -1.9144 O   0  0  0  0  0  1  0  0  0  0  0  0
   -2.2481   -0.0969   -0.3766 C   0  0  0  0  0  0  0  0  0  0  0  0
    1.3473   -0.3233    0.3359 C   0  0  0  0  0  0  0  0  0  0  0  0
    2.5590    0.3465    0.1016 C   0  0  0  0  0  0  0  0  0  0  0  0
  1  2  1  0
  2  3  1  0
  2  4  1  0
  4  5  1  0
  5  6  1  0
  6  7  2  0
  7  8  1  0
  8  9  2  0
  9 10  1  0
 10 11  2  0
 11 12  1  0
 12 13  2  0
 13 14  1  0
 14 15  1  0
 15 16  2  0
 15 17  1  0
 14 18  2  0
  9 19  1  0
 19 20  2  0
 20  2  1  0
 20  6  1  0
 18 10  1  0
M  CHG  2  15   1  17  -1
M  END
>  <zinc_id>  (1) 
ZINC000000026419

>  <smiles>  (1) 
CC1(C)CNc2ccc(-c3cccc([N+](=O)[O-])c3)cc21

$$$$
