
     RDKit          3D

 17 18  0  0  0  0  0  0  0  0999 V2000
    4.6029    0.9789    0.1541 C   0  0  0  0  0  0  0  0  0  0  0  0
    3.9246    0.1114   -0.9035 C   0  0  0  0  0  0  0  0  0  0  0  0
    4.8351    0.0878   -2.1229 C   0  0  0  0  0  0  0  0  0  0  0  0
    3.8014   -1.3054   -0.4168 C   0  0  0  0  0  0  0  0  0  0  0  0
    3.0496   -1.4299    0.7544 O   0  0  0  0  0  0  0  0  0  0  0  0
    1.7183   -1.0095    0.7580 C   0  0  0  0  0  0  0  0  0  0  0  0
    1.1368   -0.4757   -0.3716 C   0  0  0  0  0  0  0  0  0  0  0  0
   -0.1958   -0.0484   -0.3892 C   0  0  0  0  0  0  0  0  0  0  0  0
   -0.9687   -0.1527    0.7383 C   0  0  0  0  0  0  0  0  0  0  0  0
   -2.3951    0.2874    0.7755 C   0  0  0  0  0  0  0  0  0  0  0  0
   -3.1863    0.1892    1.9019 C   0  0  0  0  0  0  0  0  0  0  0  0
   -4.6677    0.8265    1.3582 S   0  0  0  0  0  0  0  0  0  0  0  0
   -4.2158    1.1791   -0.2430 C   0  0  0  0  0  0  0  0  0  0  0  0
   -5.0264    1.7604   -1.2918 N   0  0  0  0  0  0  0  0  0  0  0  0
   -2.9605    0.7961   -0.2894 N   0  0  0  0  0  0  0  0  0  0  0  0
   -0.3842   -0.6856    1.8620 C   0  0  0  0  0  0  0  0  0  0  0  0
    0.9318   -1.1095    1.8854 C   0  0  0  0  0  0  0  0  0  0  0  0
  1  2  1  0
  2  3  1  0
  2  4  1  0
  4  5  1  0
  5  6  1  0
  6  7  2  0
  7  8  1  0
  8  9  2  0
  9 10  1  0
 10 11  2  0
 11 12  1  0
 12 13  1  0
 13 14  1  0
 13 15  2  0
  9 16  1  0
 16 17  2  0
 17  6  1  0
 15 10  1  0
M  END
>  <zinc_id>  (1) 
ZINC000000368040

>  <smiles>  (1) 
CC(C)COc1ccc(-c2csc(N)n2)cc1

$$$$
