
     RDKit          3D

 22 23  0  0  0  0  0  0  0  0999 V2000
   -2.3093   -1.5163   -2.1860 C   0  0  0  0  0  0  0  0  0  0  0  0
   -2.8370   -0.1240   -2.3532 C   0  0  0  0  0  0  0  0  0  0  0  0
   -3.4456    0.4387   -1.1418 C   0  0  0  0  0  0  0  0  0  0  0  0
   -4.8461    0.4862   -1.0782 C   0  0  0  0  0  0  0  0  0  0  0  0
   -5.4650    1.0063    0.0332 C   0  0  0  0  0  0  0  0  0  0  0  0
   -4.6986    1.4708    1.0627 C   0  0  0  0  0  0  0  0  0  0  0  0
   -3.3179    1.4198    0.9907 C   0  0  0  0  0  0  0  0  0  0  0  0
   -2.5519    1.9431    2.1481 C   0  0  0  0  0  0  0  0  0  0  0  0
   -2.6704    0.9043   -0.1093 C   0  0  0  0  0  0  0  0  0  0  0  0
   -1.2610    0.8312   -0.2152 N   0  0  0  0  0  0  0  0  0  0  0  0
   -0.4764   -0.2546    0.2429 C   0  0  0  0  0  0  0  0  0  0  0  0
   -1.0799   -1.2224    0.7831 O   0  0  0  0  0  0  0  0  0  0  0  0
    0.9896   -0.2801    0.1068 C   0  0  0  0  0  0  0  0  0  0  0  0
    1.6865    0.7994   -0.3913 C   0  0  0  0  0  0  0  0  0  0  0  0
    3.0510    0.8197   -0.5366 C   0  0  0  0  0  0  0  0  0  0  0  0
    3.7660   -0.2999   -0.1645 C   0  0  0  0  0  0  0  0  0  0  0  0
    5.1839   -0.2921   -0.3085 N   0  0  0  0  0  4  0  0  0  0  0  0
    5.7911    0.7951   -0.2570 O   0  0  0  0  0  0  0  0  0  0  0  0
    5.7998   -1.5035   -0.4971 O   0  0  0  0  0  1  0  0  0  0  0  0
    3.0970   -1.4134    0.3444 C   0  0  0  0  0  0  0  0  0  0  0  0
    3.8701   -2.6196    0.7447 C   0  0  0  0  0  0  0  0  0  0  0  0
    1.7239   -1.3885    0.4725 C   0  0  0  0  0  0  0  0  0  0  0  0
  1  2  1  0
  2  3  1  0
  3  4  2  0
  4  5  1  0
  5  6  2  0
  6  7  1  0
  7  8  1  0
  7  9  2  0
  9 10  1  0
 10 11  1  0
 11 12  2  0
 11 13  1  0
 13 14  2  0
 14 15  1  0
 15 16  2  0
 16 17  1  0
 17 18  2  0
 17 19  1  0
 16 20  1  0
 20 21  1  0
 20 22  2  0
  9  3  1  0
 22 13  1  0
M  CHG  2  17   1  19  -1
M  END
>  <zinc_id>  (1) 
ZINC000000513684

>  <smiles>  (1) 
CCc1cccc(C)c1NC(=O)c1ccc([N+](=O)[O-])c(C)c1

$$$$
