
     RDKit          3D

 19 21  0  0  0  0  0  0  0  0999 V2000
   -1.3668    2.6045   -1.9385 O   0  0  0  0  0  0  0  0  0  0  0  0
   -1.7300    2.8302   -0.6262 C   0  0  0  0  0  0  0  0  0  0  0  0
   -0.8974    1.9800    0.3033 C   0  0  0  0  0  0  0  0  0  0  0  0
   -1.0604    0.5657    0.0336 N   0  0  0  0  0  0  0  0  0  0  0  0
   -0.2939   -0.1194   -0.8316 C   0  0  0  0  0  0  0  0  0  0  0  0
    1.0636    0.4801   -1.8347 S   0  0  0  0  0  0  0  0  0  0  0  0
    2.6376    0.3756   -1.0350 C   0  0  0  0  0  0  0  0  0  0  0  0
    2.8402    1.2423    0.1474 C   0  0  0  0  0  0  0  0  0  0  0  0
    4.3275    1.2827    0.4542 C   0  0  0  0  0  0  0  0  0  0  0  0
    4.9070   -0.1114    0.6156 C   0  0  0  0  0  0  0  0  0  0  0  0
    3.8497   -1.1745    0.4038 C   0  0  0  0  0  0  0  0  0  0  0  0
    3.2319   -0.9913   -0.9611 C   0  0  0  0  0  0  0  0  0  0  0  0
   -0.7599   -1.3808   -0.7913 N   0  0  0  0  0  0  0  0  0  0  0  0
   -1.7866   -1.4753    0.0745 C   0  0  0  0  0  0  0  0  0  0  0  0
   -2.5914   -2.5154    0.4747 C   0  0  0  0  0  0  0  0  0  0  0  0
   -3.6007   -2.3158    1.4098 C   0  0  0  0  0  0  0  0  0  0  0  0
   -3.7955   -1.0558    1.9434 C   0  0  0  0  0  0  0  0  0  0  0  0
   -2.9913   -0.0031    1.5484 C   0  0  0  0  0  0  0  0  0  0  0  0
   -1.9837   -0.2181    0.6097 C   0  0  0  0  0  0  0  0  0  0  0  0
  1  2  1  0
  2  3  1  0
  3  4  1  0
  4  5  1  0
  5  6  1  0
  6  7  1  0
  7  8  1  0
  8  9  1  0
  9 10  1  0
 10 11  1  0
 11 12  1  0
  5 13  2  0
 13 14  1  0
 14 15  2  0
 15 16  1  0
 16 17  2  0
 17 18  1  0
 18 19  2  0
 19  4  1  0
 12  7  1  0
 19 14  1  0
M  END
>  <zinc_id>  (1) 
ZINC000000122667

>  <smiles>  (1) 
OCCn1c(SC2CCCCC2)nc2ccccc21

$$$$
