
     RDKit          3D

 20 21  0  0  0  0  0  0  0  0999 V2000
    6.3553   -0.5366   -0.1991 C   0  0  0  0  0  0  0  0  0  0  0  0
    5.2235   -0.1794    0.5960 O   0  0  0  0  0  0  0  0  0  0  0  0
    3.9303   -0.2388    0.1081 C   0  0  0  0  0  0  0  0  0  0  0  0
    2.9146    0.1274    0.9577 C   0  0  0  0  0  0  0  0  0  0  0  0
    1.6152    0.0835    0.5146 C   0  0  0  0  0  0  0  0  0  0  0  0
    1.2653   -0.3077   -0.7375 C   0  0  0  0  0  0  0  0  0  0  0  0
   -0.0927   -0.3243   -1.1130 N   0  0  0  0  0  0  0  0  0  0  0  0
   -1.0816    0.0685   -0.1780 C   0  0  0  0  0  0  0  0  0  0  0  0
   -0.7540    0.4571    1.0608 N   0  0  0  0  0  0  0  0  0  0  0  0
   -1.7062    0.8279    1.9389 C   0  0  0  0  0  0  0  0  0  0  0  0
   -1.2839    1.2501    3.3009 C   0  0  0  0  0  0  0  0  0  0  0  0
   -3.0218    0.8051    1.5551 C   0  0  0  0  0  0  0  0  0  0  0  0
   -3.3860    0.4089    0.2849 C   0  0  0  0  0  0  0  0  0  0  0  0
   -4.8116    0.3762   -0.1549 C   0  0  0  0  0  0  0  0  0  0  0  0
   -2.3900    0.0391   -0.5797 C   0  0  0  0  0  0  0  0  0  0  0  0
   -2.7309   -0.3861   -1.9311 C   0  0  0  0  0  0  0  0  0  0  0  0
   -4.0843   -0.4241   -2.3693 N   0  0  0  0  0  0  0  0  0  0  0  0
   -1.8539   -0.7350   -2.7622 O   0  0  0  0  0  0  0  0  0  0  0  0
    2.2919   -0.6756   -1.5897 C   0  0  0  0  0  0  0  0  0  0  0  0
    3.6008   -0.6360   -1.1570 C   0  0  0  0  0  0  0  0  0  0  0  0
  1  2  1  0
  2  3  1  0
  3  4  2  0
  4  5  1  0
  5  6  2  0
  6  7  1  0
  7  8  1  0
  8  9  2  0
  9 10  1  0
 10 11  1  0
 10 12  2  0
 12 13  1  0
 13 14  1  0
 13 15  2  0
 15 16  1  0
 16 17  1  0
 16 18  2  0
  6 19  1  0
 19 20  2  0
 20  3  1  0
 15  8  1  0
M  END
>  <zinc_id>  (1) 
ZINC000000199617

>  <smiles>  (1) 
COc1ccc(Nc2nc(C)cc(C)c2C(N)=O)cc1

$$$$
