
     RDKit          3D

 20 22  0  0  0  0  0  0  0  0999 V2000
    3.8280    2.6715    1.3426 O   0  0  0  0  0  0  0  0  0  0  0  0
    3.4741    1.4740    0.6916 C   0  0  0  0  0  0  0  0  0  0  0  0
    2.1468    1.1518    0.5061 C   0  0  0  0  0  0  0  0  0  0  0  0
    1.7927   -0.0206   -0.1313 C   0  0  0  0  0  0  0  0  0  0  0  0
    2.7334   -0.9057   -0.6024 C   0  0  0  0  0  0  0  0  0  0  0  0
    2.4440   -2.1526   -1.2796 C   0  0  0  0  0  0  0  0  0  0  0  0
    1.2581   -2.5198   -1.4882 N   0  0  0  0  0  0  0  0  0  0  0  0
    0.1718   -1.7145   -1.0614 C   0  0  0  0  0  0  0  0  0  0  0  0
   -0.4058   -0.7340   -1.8467 C   0  0  0  0  0  0  0  0  0  0  0  0
   -1.4642    0.0204   -1.3841 C   0  0  0  0  0  0  0  0  0  0  0  0
   -1.9956   -0.1553   -0.1404 C   0  0  0  0  0  0  0  0  0  0  0  0
   -3.0788    0.6406    0.2895 N   0  0  0  0  0  0  0  0  0  0  0  0
   -3.7175    1.6740   -0.4858 C   0  0  0  0  0  0  0  0  0  0  0  0
   -5.1146    1.7821    0.0405 C   0  0  0  0  0  0  0  0  0  0  0  0
   -5.0519    1.2391    1.4312 C   0  0  0  0  0  0  0  0  0  0  0  0
   -3.7181    0.5413    1.5809 C   0  0  0  0  0  0  0  0  0  0  0  0
   -1.4265   -1.1365    0.6608 C   0  0  0  0  0  0  0  0  0  0  0  0
   -0.3681   -1.8933    0.2026 C   0  0  0  0  0  0  0  0  0  0  0  0
    4.0565   -0.5653   -0.4072 C   0  0  0  0  0  0  0  0  0  0  0  0
    4.4357    0.6029    0.2282 C   0  0  0  0  0  0  0  0  0  0  0  0
  1  2  1  0
  2  3  2  0
  3  4  1  0
  4  5  2  0
  5  6  1  0
  6  7  2  0
  7  8  1  0
  8  9  2  0
  9 10  1  0
 10 11  2  0
 11 12  1  0
 12 13  1  0
 13 14  1  0
 14 15  1  0
 15 16  1  0
 11 17  1  0
 17 18  2  0
  5 19  1  0
 19 20  2  0
 20  2  1  0
 18  8  1  0
 16 12  1  0
M  END
>  <zinc_id>  (1) 
ZINC000000487312

>  <smiles>  (1) 
Oc1ccc(/C=N\c2ccc(N3CCCC3)cc2)cc1

$$$$
