
     RDKit          3D

 17 17  0  0  0  0  0  0  0  0999 V2000
   -4.3428   -1.1791   -1.1831 C   0  0  0  0  0  0  0  0  0  0  0  0
   -4.0810   -0.5504    0.1852 C   0  0  0  0  0  0  0  0  0  0  0  0
   -4.9246   -1.1508    1.2579 C   0  0  0  0  0  0  0  0  0  0  0  0
   -4.4630    0.9254    0.0536 C   0  0  0  0  0  0  0  0  0  0  0  0
   -2.6292   -0.5921    0.5131 C   0  0  0  0  0  0  0  0  0  0  0  0
   -2.1854   -1.1930    1.5243 O   0  0  0  0  0  0  0  0  0  0  0  0
   -1.7250    0.0722   -0.3519 N   0  0  0  0  0  0  0  0  0  0  0  0
   -0.3437    0.0470   -0.0624 C   0  0  0  0  0  0  0  0  0  0  0  0
    0.1709   -0.7468    1.2604 S   0  0  0  0  0  0  0  0  0  0  0  0
    0.5402    0.7203   -0.9448 N   0  0  0  0  0  0  0  0  0  0  0  0
    1.9335    0.7371   -0.7181 C   0  0  0  0  0  0  0  0  0  0  0  0
    2.8219    1.3806   -1.5537 C   0  0  0  0  0  0  0  0  0  0  0  0
    4.1609    1.3550   -1.2713 C   0  0  0  0  0  0  0  0  0  0  0  0
    4.6454    0.6884   -0.1507 C   0  0  0  0  0  0  0  0  0  0  0  0
    3.7678    0.0443    0.6877 C   0  0  0  0  0  0  0  0  0  0  0  0
    4.2238   -0.6401    1.8306 O   0  0  0  0  0  0  0  0  0  0  0  0
    2.4305    0.0819    0.3869 C   0  0  0  0  0  0  0  0  0  0  0  0
  1  2  1  0
  2  3  1  0
  2  4  1  0
  2  5  1  0
  5  6  2  0
  5  7  1  0
  7  8  1  0
  8  9  2  0
  8 10  1  0
 10 11  1  0
 11 12  2  0
 12 13  1  0
 13 14  2  0
 14 15  1  0
 15 16  1  0
 15 17  2  0
 17 11  1  0
M  END
>  <zinc_id>  (1) 
ZINC000000040761

>  <smiles>  (1) 
CC(C)(C)C(=O)NC(=S)Nc1cccc(O)c1

$$$$
