
     RDKit          3D

 18 19  0  0  0  0  0  0  0  0999 V2000
   -1.5947   -1.2810    0.7068 C   0  0  0  0  0  0  0  0  0  0  0  0
   -2.8065   -0.6724   -0.2304 C   0  0  1  0  0  0  0  0  0  0  0  0
   -3.8695   -0.5699    1.0513 C   0  0  0  0  0  0  0  0  0  0  0  0
   -5.1114    0.0458    0.4643 C   0  0  0  0  0  0  0  0  0  0  0  0
   -4.7981    0.9859   -0.7086 C   0  0  0  0  0  0  0  0  0  0  0  0
   -3.4667    1.5697   -0.3846 C   0  0  0  0  0  0  0  0  0  0  0  0
   -2.3922    0.8596   -0.1244 C   0  0  0  0  0  0  0  0  0  0  0  0
   -1.1465    1.3131    0.1683 N   0  0  0  0  0  0  0  0  0  0  0  0
   -0.0333    0.5728    0.4355 N   0  0  0  0  0  0  0  0  0  0  0  0
    1.0403    0.5200   -0.4982 C   0  0  0  0  0  0  0  0  0  0  0  0
    0.9906    1.1380   -1.5828 O   0  0  0  0  0  0  0  0  0  0  0  0
    2.2079   -0.2784   -0.1488 C   0  0  0  0  0  0  0  0  0  0  0  0
    2.2538   -1.6209   -0.4656 C   0  0  0  0  0  0  0  0  0  0  0  0
    3.3313   -2.4136   -0.1505 C   0  0  0  0  0  0  0  0  0  0  0  0
    4.4310   -1.8684    0.5139 C   0  0  0  0  0  0  0  0  0  0  0  0
    4.3802   -0.5420    0.8229 C   0  0  0  0  0  0  0  0  0  0  0  0
    3.2917    0.2658    0.5051 C   0  0  0  0  0  0  0  0  0  0  0  0
    3.2919    1.9760    0.9221 Cl  0  0  0  0  0  0  0  0  0  0  0  0
  2  1  1  1
  2  3  1  0
  3  4  1  0
  4  5  1  0
  5  6  1  0
  6  7  2  0
  7  8  1  0
  8  9  1  0
  9 10  1  0
 10 11  2  0
 10 12  1  0
 12 13  2  0
 13 14  1  0
 14 15  2  0
 15 16  1  0
 16 17  2  0
 17 18  1  0
  7  2  1  0
 17 12  1  0
M  END
>  <zinc_id>  (1) 
ZINC000002753858

>  <smiles>  (1) 
C[C@H]1CCCC=C1NNC(=O)c1ccccc1Cl

$$$$
