
     RDKit          3D

 21 23  0  0  0  0  0  0  0  0999 V2000
    5.0734    2.6464   -0.0518 C   0  0  0  0  0  0  0  0  0  0  0  0
    4.9408    1.2944    0.2482 O   0  0  0  0  0  0  0  0  0  0  0  0
    3.7618    0.5732    0.1014 C   0  0  0  0  0  0  0  0  0  0  0  0
    2.5877    1.1475   -0.3668 C   0  0  0  0  0  0  0  0  0  0  0  0
    1.4536    0.3885   -0.4925 C   0  0  0  0  0  0  0  0  0  0  0  0
    1.3577   -0.9316   -0.1906 C   0  0  0  0  0  0  0  0  0  0  0  0
    0.2118   -1.8088   -0.2879 C   0  0  0  0  0  0  0  0  0  0  0  0
    0.4353   -3.0629   -0.4771 O   0  0  0  0  0  0  0  0  0  0  0  0
   -1.1681   -1.3404   -0.1832 C   0  0  0  0  0  0  0  0  0  0  0  0
   -2.1614   -2.2878   -0.3884 C   0  0  0  0  0  0  0  0  0  0  0  0
   -2.0687   -3.6793   -0.7256 N   0  0  0  0  0  0  0  0  0  0  0  0
   -3.6215   -1.4561   -0.1598 S   0  0  0  0  0  0  0  0  0  0  0  0
   -2.9874    0.0680    0.1906 C   0  0  0  0  0  0  0  0  0  0  0  0
   -1.6394   -0.1079    0.1213 C   0  0  0  0  0  0  0  0  0  0  0  0
   -0.8322    1.1154    0.4287 C   0  0  0  0  0  0  0  0  0  0  0  0
   -1.5657    2.3565    0.4800 C   0  0  0  0  0  0  0  0  0  0  0  0
   -2.8364    2.3179   -0.5528 C   0  0  2  0  0  0  0  0  0  0  0  0
   -3.5095    3.6971    0.0607 C   0  0  0  0  0  0  0  0  0  0  0  0
   -3.6907    1.3553    0.5102 C   0  0  0  0  0  0  0  0  0  0  0  0
    2.5589   -1.5191    0.2886 C   0  0  0  0  0  0  0  0  0  0  0  0
    3.7001   -0.7663    0.4175 C   0  0  0  0  0  0  0  0  0  0  0  0
  1  2  1  0
  2  3  1  0
  3  4  2  0
  4  5  1  0
  5  6  2  0
  6  7  1  0
  7  8  2  0
  7  9  1  0
  9 10  2  0
 10 11  1  0
 10 12  1  0
 12 13  1  0
 13 14  2  0
 14 15  1  0
 15 16  1  0
 16 17  1  0
 17 18  1  1
 17 19  1  0
  6 20  1  0
 20 21  2  0
 21  3  1  0
 14  9  1  0
 19 13  1  0
M  END
>  <zinc_id>  (1) 
ZINC000003434681

>  <smiles>  (1) 
COc1ccc(C(=O)c2c(N)sc3c2CC[C@H](C)C3)cc1

$$$$
