
     RDKit          3D

 22 24  0  0  0  0  0  0  0  0999 V2000
   -1.6356    0.6822    2.5411 C   0  0  0  0  0  0  0  0  0  0  0  0
   -3.0341    0.5987    1.9805 C   0  0  0  0  0  0  0  0  0  0  0  0
   -3.8896   -0.4258    2.6932 C   0  0  0  0  0  0  0  0  0  0  0  0
   -3.0368    0.3993    0.5436 N   0  0  0  0  0  0  0  0  0  0  0  0
   -4.1567    0.4697   -0.2024 C   0  0  0  0  0  0  0  0  0  0  0  0
   -5.3450    0.7125    0.1925 O   0  0  0  0  0  0  0  0  0  0  0  0
   -3.8116    0.2333   -1.4842 N   0  0  0  0  0  0  0  0  0  0  0  0
   -2.4994    0.0164   -1.5567 C   0  0  0  0  0  0  0  0  0  0  0  0
   -1.6309   -0.2675   -2.5922 C   0  0  0  0  0  0  0  0  0  0  0  0
   -0.2939   -0.4402   -2.3279 C   0  0  0  0  0  0  0  0  0  0  0  0
    0.2301   -0.3412   -1.0527 C   0  0  0  0  0  0  0  0  0  0  0  0
    1.6766   -0.5338   -0.8137 C   0  0  0  0  0  0  0  0  0  0  0  0
    2.3467   -1.4009   -1.6115 C   0  0  0  0  0  0  0  0  0  0  0  0
    3.7195   -1.6220   -1.4346 C   0  0  0  0  0  0  0  0  0  0  0  0
    4.3685   -0.9388   -0.4339 C   0  0  0  0  0  0  0  0  0  0  0  0
    3.7159   -0.0561    0.3883 C   0  0  0  0  0  0  0  0  0  0  0  0
    4.3508    0.6642    1.4252 N   0  0  0  0  0  4  0  0  0  0  0  0
    5.5685    0.5146    1.6281 O   0  0  0  0  0  0  0  0  0  0  0  0
    3.6561    1.5329    2.2212 O   0  0  0  0  0  1  0  0  0  0  0  0
    2.3515    0.1376    0.1817 C   0  0  0  0  0  0  0  0  0  0  0  0
   -0.6486   -0.0583   -0.0324 C   0  0  0  0  0  0  0  0  0  0  0  0
   -2.0021    0.1232   -0.2533 C   0  0  0  0  0  0  0  0  0  0  0  0
  1  2  1  0
  2  3  1  0
  2  4  1  0
  4  5  1  0
  5  6  2  0
  5  7  1  0
  7  8  1  0
  8  9  2  0
  9 10  1  0
 10 11  2  0
 11 12  1  0
 12 13  2  0
 13 14  1  0
 14 15  2  0
 15 16  1  0
 16 17  1  0
 17 18  2  0
 17 19  1  0
 16 20  2  0
 11 21  1  0
 21 22  2  0
 22  4  1  0
 22  8  1  0
 20 12  1  0
M  CHG  2  17   1  19  -1
M  END
>  <zinc_id>  (1) 
ZINC000000008878

>  <smiles>  (1) 
CC(C)n1c(=O)[nH]c2ccc(-c3cccc([N+](=O)[O-])c3)cc21

$$$$
