
     RDKit          3D

 21 23  0  0  0  0  0  0  0  0999 V2000
    5.9749   -0.0245   -1.5586 C   0  0  0  0  0  0  0  0  0  0  0  0
    5.2884   -0.0925   -0.3447 O   0  0  0  0  0  0  0  0  0  0  0  0
    3.9057   -0.0185   -0.2447 C   0  0  0  0  0  0  0  0  0  0  0  0
    3.1903    0.1305   -1.4222 C   0  0  0  0  0  0  0  0  0  0  0  0
    1.8310    0.2062   -1.3573 C   0  0  0  0  0  0  0  0  0  0  0  0
    1.1795    0.1361   -0.1437 C   0  0  0  0  0  0  0  0  0  0  0  0
   -0.2946    0.2197   -0.0979 C   0  0  0  0  0  0  0  0  0  0  0  0
   -1.0918    0.7399    0.9002 C   0  0  0  0  0  0  0  0  0  0  0  0
   -2.4115    0.5890    0.4795 C   0  0  0  0  0  0  0  0  0  0  0  0
   -3.6183    0.9198    1.0552 C   0  0  0  0  0  0  0  0  0  0  0  0
   -4.8374    0.6742    0.4492 C   0  0  0  0  0  0  0  0  0  0  0  0
   -6.1342    1.0438    1.0970 C   0  0  0  0  0  0  0  0  0  0  0  0
   -4.7988    0.0820   -0.7607 N   0  0  0  0  0  0  0  0  0  0  0  0
   -3.6224   -0.2434   -1.3279 C   0  0  0  0  0  0  0  0  0  0  0  0
   -3.6848   -0.7955   -2.4642 O   0  0  0  0  0  0  0  0  0  0  0  0
   -2.4352   -0.0013   -0.7320 N   0  0  0  0  0  0  0  0  0  0  0  0
   -1.1621   -0.2233   -1.0790 C   0  0  0  0  0  0  0  0  0  0  0  0
    1.9170   -0.0102    0.9898 C   0  0  0  0  0  0  0  0  0  0  0  0
    3.2939   -0.0924    0.9841 C   0  0  0  0  0  0  0  0  0  0  0  0
    4.0400   -0.2423    2.1528 O   0  0  0  0  0  0  0  0  0  0  0  0
    3.4705   -0.3227    3.4253 C   0  0  0  0  0  0  0  0  0  0  0  0
  1  2  1  0
  2  3  1  0
  3  4  2  0
  4  5  1  0
  5  6  2  0
  6  7  1  0
  7  8  1  0
  8  9  2  0
  9 10  1  0
 10 11  2  0
 11 12  1  0
 11 13  1  0
 13 14  1  0
 14 15  2  0
 14 16  1  0
 16 17  1  0
  6 18  1  0
 18 19  2  0
 19 20  1  0
 20 21  1  0
 19  3  1  0
 17  7  2  0
 16  9  1  0
M  END
>  <zinc_id>  (1) 
ZINC000001924075

>  <smiles>  (1) 
COc1ccc(-c2cc3cc(C)[nH]c(=O)n3c2)cc1OC

$$$$
