
     RDKit          3D

 25 27  0  0  0  0  0  0  0  0999 V2000
   -5.1622   -3.0467    1.0033 C   0  0  0  0  0  0  0  0  0  0  0  0
   -4.7827   -2.5261   -0.3884 C   0  0  0  0  0  0  0  0  0  0  0  0
   -4.4214   -1.1269   -0.2805 N   0  0  0  0  0  0  0  0  0  0  0  0
   -5.2612   -0.1421   -0.4010 N   0  0  0  0  0  0  0  0  0  0  0  0
   -4.6568    1.0358   -0.2563 C   0  0  0  0  0  0  0  0  0  0  0  0
   -5.2895    2.3618   -0.3291 C   0  0  0  0  0  0  0  0  0  0  0  0
   -3.3143    0.7728   -0.0234 C   0  0  0  0  0  0  0  0  0  0  0  0
   -3.1852   -0.5995   -0.0424 C   0  0  0  0  0  0  0  0  0  0  0  0
   -2.0164   -1.4729    0.1390 C   0  0  0  0  0  0  0  0  0  0  0  0
   -0.8284   -0.8114    0.4162 O   0  0  0  0  0  0  0  0  0  0  0  0
   -0.2932    0.0746   -0.4007 C   0  0  0  0  0  0  0  0  0  0  0  0
   -0.8047    0.4198   -1.5212 O   0  0  0  0  0  0  0  0  0  0  0  0
    1.0758    0.8534   -0.1195 C   0  0  1  0  0  0  0  0  0  0  0  0
    0.3573    2.1693    0.5489 C   0  0  0  0  0  0  0  0  0  0  0  0
   -0.4649    1.5628    1.6224 C   0  0  0  0  0  0  0  0  0  0  0  0
    0.4220    0.4999    2.1149 C   0  0  0  0  0  0  0  0  0  0  0  0
    1.4495    0.1991    1.2540 N   0  0  0  0  0  0  0  0  0  0  0  0
    2.7028    0.8221    1.5938 C   0  0  0  0  0  0  0  0  0  0  0  0
    3.6987    0.3970    0.5720 C   0  0  0  0  0  0  0  0  0  0  0  0
    4.4405   -0.7373    0.7732 C   0  0  0  0  0  0  0  0  0  0  0  0
    5.3744   -1.1537   -0.1641 C   0  0  0  0  0  0  0  0  0  0  0  0
    5.5991   -0.4534   -1.3318 C   0  0  0  0  0  0  0  0  0  0  0  0
    6.5981   -0.8900   -2.3448 C   0  0  0  0  0  0  0  0  0  0  0  0
    4.8465    0.6882   -1.5253 C   0  0  0  0  0  0  0  0  0  0  0  0
    3.9162    1.1035   -0.5922 C   0  0  0  0  0  0  0  0  0  0  0  0
  1  2  1  0
  2  3  1  0
  3  4  1  0
  4  5  2  0
  5  6  1  0
  5  7  1  0
  7  8  2  0
  8  9  1  0
  9 10  1  0
 10 11  1  0
 11 12  2  0
 13 11  1  1
 13 14  1  0
 14 15  1  0
 15 16  1  0
 16 17  1  0
 17 18  1  0
 18 19  1  0
 19 20  2  0
 20 21  1  0
 21 22  2  0
 22 23  1  0
 22 24  1  0
 24 25  2  0
  8  3  1  0
 17 13  1  0
 25 19  1  0
M  END
>  <zinc_id>  (1) 
ZINC000000043770

>  <smiles>  (1) 
CCn1nc(C)cc1COC(=O)[C@H]1CCCN1Cc1ccc(C)cc1

$$$$
