
     RDKit          3D

 21 22  0  0  0  0  0  0  0  0999 V2000
   -2.8841   -3.1033    0.2443 C   0  0  0  0  0  0  0  0  0  0  0  0
   -3.2940   -1.7413   -0.1233 C   0  0  0  0  0  0  0  0  0  0  0  0
   -4.5477   -1.5435   -0.6758 C   0  0  0  0  0  0  0  0  0  0  0  0
   -4.9748   -0.2853   -1.0458 C   0  0  0  0  0  0  0  0  0  0  0  0
   -4.1727    0.8427   -0.8743 C   0  0  0  0  0  0  0  0  0  0  0  0
   -2.9269    0.6042   -0.3150 C   0  0  0  0  0  0  0  0  0  0  0  0
   -2.0639    1.7186   -0.0664 N   0  0  0  0  0  4  0  0  0  0  0  0
   -1.3167    1.6541    0.9580 O   0  0  0  0  0  0  0  0  0  0  0  0
   -2.0331    2.8227   -0.8651 O   0  0  0  0  0  1  0  0  0  0  0  0
   -2.4946   -0.6530    0.0493 C   0  0  0  0  0  0  0  0  0  0  0  0
   -1.1578   -0.7532    0.5832 N   0  0  0  0  0  0  0  0  0  0  0  0
   -0.1862   -1.1518   -0.4146 C   0  0  0  0  0  0  0  0  0  0  0  0
    1.1737   -0.6546   -0.1730 C   0  0  0  0  0  0  0  0  0  0  0  0
    1.5630    0.2307    0.7977 C   0  0  0  0  0  0  0  0  0  0  0  0
    2.8403    0.7086    0.9515 C   0  0  0  0  0  0  0  0  0  0  0  0
    3.8484    0.2976    0.0873 C   0  0  0  0  0  0  0  0  0  0  0  0
    5.1814    0.7344    0.1156 N   0  0  0  0  0  0  0  0  0  0  0  0
    5.7133    1.6393   -0.9119 C   0  0  0  0  0  0  0  0  0  0  0  0
    6.0411    0.2868    1.2086 C   0  0  0  0  0  0  0  0  0  0  0  0
    3.4883   -0.5912   -0.8953 C   0  0  0  0  0  0  0  0  0  0  0  0
    2.2030   -1.0622   -1.0347 C   0  0  0  0  0  0  0  0  0  0  0  0
  1  2  1  0
  2  3  2  0
  3  4  1  0
  4  5  2  0
  5  6  1  0
  6  7  1  0
  7  8  2  0
  7  9  1  0
  6 10  2  0
 10 11  1  0
 11 12  1  0
 12 13  1  0
 13 14  2  0
 14 15  1  0
 15 16  2  0
 16 17  1  0
 17 18  1  0
 17 19  1  0
 16 20  1  0
 20 21  2  0
 10  2  1  0
 21 13  1  0
M  CHG  2   7   1   9  -1
M  END
>  <zinc_id>  (1) 
ZINC000003899187

>  <smiles>  (1) 
Cc1cccc([N+](=O)[O-])c1NCc1ccc(N(C)C)cc1

$$$$
