
     RDKit          3D

 20 21  0  0  0  0  0  0  0  0999 V2000
   -6.8910    0.5437   -0.3740 C   0  0  0  0  0  0  0  0  0  0  0  0
   -6.0586   -0.2040    0.6418 C   0  0  0  0  0  0  0  0  0  0  0  0
   -6.1863    0.4962    1.9801 C   0  0  0  0  0  0  0  0  0  0  0  0
   -4.6063   -0.1549    0.2711 C   0  0  0  0  0  0  0  0  0  0  0  0
   -4.1996   -0.0816   -1.0461 C   0  0  0  0  0  0  0  0  0  0  0  0
   -2.8492   -0.0392   -1.3234 C   0  0  0  0  0  0  0  0  0  0  0  0
   -1.8852   -0.0670   -0.3407 C   0  0  0  0  0  0  0  0  0  0  0  0
   -0.4574   -0.0227   -0.6259 C   0  0  0  0  0  0  0  0  0  0  0  0
    0.3824   -0.0513    0.3201 N   0  0  0  0  0  0  0  0  0  0  0  0
    1.7864   -0.0153    0.1948 C   0  0  0  0  0  0  0  0  0  0  0  0
    2.5602   -0.4912    1.2359 C   0  0  0  0  0  0  0  0  0  0  0  0
    3.9457   -0.4837    1.1750 C   0  0  0  0  0  0  0  0  0  0  0  0
    4.6071    0.0014    0.0679 C   0  0  0  0  0  0  0  0  0  0  0  0
    6.0698    0.0040    0.0154 C   0  0  0  0  0  0  0  0  0  0  0  0
    6.7927   -0.4937    1.1068 N   0  0  0  0  0  0  0  0  0  0  0  0
    6.7014    0.4389   -0.9784 O   0  0  0  0  0  0  0  0  0  0  0  0
    3.8351    0.4765   -0.9716 C   0  0  0  0  0  0  0  0  0  0  0  0
    2.4544    0.4693   -0.9117 C   0  0  0  0  0  0  0  0  0  0  0  0
   -2.3255   -0.1405    0.9644 C   0  0  0  0  0  0  0  0  0  0  0  0
   -3.6762   -0.1848    1.2814 C   0  0  0  0  0  0  0  0  0  0  0  0
  1  2  1  0
  2  3  1  0
  2  4  1  0
  4  5  2  0
  5  6  1  0
  6  7  2  0
  7  8  1  0
  8  9  2  0
  9 10  1  0
 10 11  2  0
 11 12  1  0
 12 13  2  0
 13 14  1  0
 14 15  1  0
 14 16  2  0
 13 17  1  0
 17 18  2  0
  7 19  1  0
 19 20  2  0
 20  4  1  0
 18 10  1  0
M  END
>  <zinc_id>  (1) 
ZINC000001027997

>  <smiles>  (1) 
CC(C)c1ccc(/C=N/c2ccc(C(N)=O)cc2)cc1

$$$$
