
     RDKit          3D

 20 22  0  0  0  0  0  0  0  0999 V2000
    6.1478    0.0419    1.0060 C   0  0  0  0  0  0  0  0  0  0  0  0
    5.3994   -1.0840    0.3186 C   0  0  0  0  0  0  0  0  0  0  0  0
    3.9666   -0.7499    0.1288 C   0  0  0  0  0  0  0  0  0  0  0  0
    3.0732   -1.0823    1.0988 C   0  0  0  0  0  0  0  0  0  0  0  0
    1.7408   -0.7804    0.9463 C   0  0  0  0  0  0  0  0  0  0  0  0
    1.2541   -0.1343   -0.1843 C   0  0  0  0  0  0  0  0  0  0  0  0
   -0.1341    0.1678   -0.3290 N   0  0  0  0  0  0  0  0  0  0  0  0
   -0.6109    0.9793   -1.3983 C   0  0  0  0  0  0  0  0  0  0  0  0
    0.2549    1.4216   -2.2114 O   0  0  0  0  0  0  0  0  0  0  0  0
   -2.0009    1.2558   -1.5120 N   0  0  0  0  0  0  0  0  0  0  0  0
   -2.9299    0.7226   -0.5546 C   0  0  0  0  0  0  0  0  0  0  0  0
   -4.2813    0.9818   -0.6543 C   0  0  0  0  0  0  0  0  0  0  0  0
   -5.2210    0.4948    0.2334 C   0  0  0  0  0  0  0  0  0  0  0  0
   -4.7600   -0.2965    1.2792 C   0  0  0  0  0  0  0  0  0  0  0  0
   -3.4147   -0.5430    1.3609 C   0  0  0  0  0  0  0  0  0  0  0  0
   -2.4616   -0.0685    0.4880 C   0  0  0  0  0  0  0  0  0  0  0  0
   -1.0788   -0.3196    0.5665 N   0  0  0  0  0  0  0  0  0  0  0  0
   -0.6368   -1.0957    1.5848 O   0  0  0  0  0  0  0  0  0  0  0  0
    2.1660    0.1935   -1.1520 C   0  0  0  0  0  0  0  0  0  0  0  0
    3.5273   -0.1050   -1.0154 C   0  0  0  0  0  0  0  0  0  0  0  0
  1  2  1  0
  2  3  1  0
  3  4  2  0
  4  5  1  0
  5  6  2  0
  6  7  1  0
  7  8  1  0
  8  9  2  0
  8 10  1  0
 10 11  1  0
 11 12  2  0
 12 13  1  0
 13 14  2  0
 14 15  1  0
 15 16  2  0
 16 17  1  0
 17 18  1  0
  6 19  1  0
 19 20  2  0
 20  3  1  0
 17  7  1  0
 16 11  1  0
M  END
>  <zinc_id>  (1) 
ZINC000000184560

>  <smiles>  (1) 
CCc1ccc(N2C(=O)Nc3ccccc3N2O)cc1

$$$$
