
     RDKit          3D

 20 22  0  0  0  0  0  0  0  0999 V2000
    1.1977    3.6783    0.7076 N   0  0  0  0  0  0  0  0  0  0  0  0
    0.4698    2.8128    0.4681 C   0  0  0  0  0  0  0  0  0  0  0  0
   -0.4490    1.6914    0.1799 C   0  0  0  0  0  0  0  0  0  0  0  0
   -1.3459    1.7602   -0.7093 C   0  0  0  0  0  0  0  0  0  0  0  0
   -1.5089    2.9321   -1.4764 N   0  0  0  0  0  0  0  0  0  0  0  0
   -2.1456    0.6808   -0.9061 O   0  0  0  0  0  0  0  0  0  0  0  0
   -2.1025   -0.4921   -0.2525 C   0  0  0  0  0  0  0  0  0  0  0  0
   -1.2243   -0.6393    0.6597 C   0  0  0  0  0  0  0  0  0  0  0  0
   -1.1163   -1.9487    1.4463 C   0  0  0  0  0  0  0  0  0  0  0  0
   -1.1496   -3.0098    0.3875 C   0  0  0  0  0  0  0  0  0  0  0  0
   -2.2369   -2.8718   -0.6118 C   0  0  0  0  0  0  0  0  0  0  0  0
   -3.0296   -1.6169   -0.5470 C   0  0  0  0  0  0  0  0  0  0  0  0
   -0.1788    0.4328    1.0942 C   0  0  1  0  0  0  0  0  0  0  0  0
    1.0363   -0.1426    0.2082 C   0  0  0  0  0  0  0  0  0  0  0  0
    0.8139   -0.4926   -1.0588 C   0  0  0  0  0  0  0  0  0  0  0  0
    1.8799   -0.9804   -1.7911 C   0  0  0  0  0  0  0  0  0  0  0  0
    3.1339   -1.1018   -1.2310 C   0  0  0  0  0  0  0  0  0  0  0  0
    3.2946   -0.7212    0.0855 C   0  0  0  0  0  0  0  0  0  0  0  0
    2.2469   -0.2309    0.8397 C   0  0  0  0  0  0  0  0  0  0  0  0
    2.4145    0.2598    2.5072 Cl  0  0  0  0  0  0  0  0  0  0  0  0
  1  2  3  0
  2  3  1  0
  3  4  2  0
  4  5  1  0
  4  6  1  0
  6  7  1  0
  7  8  2  0
  8  9  1  0
  9 10  1  0
 10 11  1  0
 11 12  1  0
  8 13  1  0
 13 14  1  6
 14 15  2  0
 15 16  1  0
 16 17  2  0
 17 18  1  0
 18 19  2  0
 19 20  1  0
 13  3  1  0
 19 14  1  0
 12  7  1  0
M  END
>  <zinc_id>  (1) 
ZINC000000483922

>  <smiles>  (1) 
N#CC1=C(N)OC2=C(CCCC2)[C@H]1c1ccccc1Cl

$$$$
