
     RDKit          3D

 30 33  0  0  0  0  0  0  0  0999 V2000
    3.1600   -0.1109   -2.8426 C   0  0  0  0  0  0  0  0  0  0  0  0
    3.5845   -1.3159   -2.0091 C   0  0  0  0  0  0  0  0  0  0  0  0
    2.9005   -2.5154   -2.6498 C   0  0  0  0  0  0  0  0  0  0  0  0
    3.1033   -1.1402   -0.6397 N   0  0  0  0  0  0  0  0  0  0  0  0
    4.0570   -0.6916    0.3339 C   0  0  0  0  0  0  0  0  0  0  0  0
    4.1976    0.7581    0.2871 C   0  0  0  0  0  0  0  0  0  0  0  0
    5.4694    1.3003    0.4218 C   0  0  0  0  0  0  0  0  0  0  0  0
    5.6907    2.6516    0.3783 C   0  0  0  0  0  0  0  0  0  0  0  0
    4.6377    3.5121    0.1975 C   0  0  0  0  0  0  0  0  0  0  0  0
    3.3711    3.0029    0.0623 C   0  0  0  0  0  0  0  0  0  0  0  0
    3.1524    1.6162    0.1078 C   0  0  0  0  0  0  0  0  0  0  0  0
    1.7551   -1.4124   -0.3434 C   0  0  0  0  0  0  0  0  0  0  0  0
    1.0104   -1.8206   -1.2894 O   0  0  0  0  0  0  0  0  0  0  0  0
    1.1595   -1.2549    1.0046 C   0  0  0  0  0  0  0  0  0  0  0  0
   -0.2204   -1.6837    0.9165 N   0  0  0  0  0  0  0  0  0  0  0  0
   -0.6072   -3.0563    1.1591 C   0  0  0  0  0  0  0  0  0  0  0  0
   -1.8348   -3.1413    1.9798 C   0  0  0  0  0  0  0  0  0  0  0  0
   -2.8454   -2.2077    1.5853 N   0  0  0  0  0  0  0  0  0  0  0  0
   -4.2007   -2.2639    1.7800 C   0  0  0  0  0  0  0  0  0  0  0  0
   -4.7483   -1.1585    1.2507 N   0  0  0  0  0  0  0  0  0  0  0  0
   -3.8077   -0.3663    0.7079 C   0  0  0  0  0  0  0  0  0  0  0  0
   -3.9019    0.9121    0.0179 C   0  0  0  0  0  0  0  0  0  0  0  0
   -4.8542    1.0918   -0.9595 C   0  0  0  0  0  0  0  0  0  0  0  0
   -4.9828    2.2824   -1.6500 C   0  0  0  0  0  0  0  0  0  0  0  0
   -4.1660    3.3595   -1.4012 C   0  0  0  0  0  0  0  0  0  0  0  0
   -3.1961    3.1839   -0.4081 C   0  0  0  0  0  0  0  0  0  0  0  0
   -3.0835    1.9948    0.2664 C   0  0  0  0  0  0  0  0  0  0  0  0
   -2.6245   -1.0542    0.9350 C   0  0  0  0  0  0  0  0  0  0  0  0
   -1.2267   -0.7632    0.5749 C   0  0  0  0  0  0  0  0  0  0  0  0
   -0.9490    0.2912   -0.0260 O   0  0  0  0  0  0  0  0  0  0  0  0
  1  2  1  0
  2  3  1  0
  2  4  1  0
  4  5  1  0
  5  6  1  0
  6  7  2  0
  7  8  1  0
  8  9  2  0
  9 10  1  0
 10 11  2  0
  4 12  1  0
 12 13  2  0
 12 14  1  0
 14 15  1  0
 15 16  1  0
 16 17  1  0
 17 18  1  0
 18 19  1  0
 19 20  2  0
 20 21  1  0
 21 22  1  0
 22 23  2  0
 23 24  1  0
 24 25  2  0
 25 26  1  0
 26 27  2  0
 21 28  2  0
 28 29  1  0
 29 30  2  0
 11  6  1  0
 29 15  1  0
 28 18  1  0
 27 22  1  0
M  END
>  <zinc_id>  (1) 
ZINC000000024178

>  <smiles>  (1) 
CC(C)N(Cc1ccccc1)C(=O)CN1CCn2cnc(-c3ccccc3)c2C1=O

$$$$
