
     RDKit          3D

 19 20  0  0  0  0  0  0  0  0999 V2000
    1.3909   -3.6076    1.0890 C   0  0  0  0  0  0  0  0  0  0  0  0
    1.7630   -2.2569    0.6478 C   0  0  0  0  0  0  0  0  0  0  0  0
    3.0656   -1.8797    0.5192 C   0  0  0  0  0  0  0  0  0  0  0  0
    3.4258   -0.6072    0.1035 C   0  0  0  0  0  0  0  0  0  0  0  0
    2.4649    0.3367   -0.1994 C   0  0  0  0  0  0  0  0  0  0  0  0
    2.8659    1.6996   -0.6447 C   0  0  0  0  0  0  0  0  0  0  0  0
    3.7194    2.3765    0.3936 C   0  0  0  0  0  0  0  0  0  0  0  0
    1.7110    2.5154   -1.1138 C   0  0  0  0  0  0  0  0  0  0  0  0
    1.1521   -0.0646   -0.0630 C   0  0  0  0  0  0  0  0  0  0  0  0
    0.7744   -1.3248    0.3488 C   0  0  0  0  0  0  0  0  0  0  0  0
   -0.5687   -1.6529    0.4615 O   0  0  0  0  0  0  0  0  0  0  0  0
   -1.5291   -0.6764    0.1483 C   0  0  0  0  0  0  0  0  0  0  0  0
   -1.9307    0.2583    1.0884 C   0  0  0  0  0  0  0  0  0  0  0  0
   -2.8755    1.2142    0.7708 C   0  0  0  0  0  0  0  0  0  0  0  0
   -3.3239    2.3551    2.0180 Cl  0  0  0  0  0  0  0  0  0  0  0  0
   -3.4059    1.2322   -0.4627 N   0  0  0  0  0  0  0  0  0  0  0  0
   -3.0066    0.3197   -1.3632 C   0  0  0  0  0  0  0  0  0  0  0  0
   -3.5997    0.3689   -2.6820 N   0  0  0  0  0  0  0  0  0  0  0  0
   -2.0929   -0.6065   -1.0598 N   0  0  0  0  0  0  0  0  0  0  0  0
  1  2  1  0
  2  3  2  0
  3  4  1  0
  4  5  2  0
  5  6  1  0
  6  7  1  0
  6  8  1  0
  5  9  1  0
  9 10  2  0
 10 11  1  0
 11 12  1  0
 12 13  2  0
 13 14  1  0
 14 15  1  0
 14 16  2  0
 16 17  1  0
 17 18  1  0
 17 19  2  0
 10  2  1  0
 19 12  1  0
M  END
>  <zinc_id>  (1) 
ZINC000000191197

>  <smiles>  (1) 
Cc1ccc(C(C)C)cc1Oc1cc(Cl)nc(N)n1

$$$$
