
     RDKit          3D

 19 20  0  0  0  0  0  0  0  0999 V2000
   -3.1783   -3.0998    0.4309 C   0  0  0  0  0  0  0  0  0  0  0  0
   -2.5491   -1.8259   -0.0590 C   0  0  0  0  0  0  0  0  0  0  0  0
   -1.1504   -1.7040    0.5197 C   0  0  0  0  0  0  0  0  0  0  0  0
   -0.5119   -0.5064    0.0712 C   0  0  1  0  0  0  0  0  0  0  0  0
   -1.2395    0.7197    0.4311 C   0  0  0  0  0  0  0  0  0  0  0  0
   -0.8931    1.7184    1.2863 C   0  0  0  0  0  0  0  0  0  0  0  0
   -1.7201    2.8030    1.4742 C   0  0  0  0  0  0  0  0  0  0  0  0
   -2.9107    2.9287    0.8195 C   0  0  0  0  0  0  0  0  0  0  0  0
   -3.2990    1.9593   -0.0527 C   0  0  0  0  0  0  0  0  0  0  0  0
   -2.4511    0.8900   -0.2163 C   0  0  0  0  0  0  0  0  0  0  0  0
    0.8157   -0.5132    0.0265 O   0  0  0  0  0  0  0  0  0  0  0  0
    1.2577    0.8342   -0.3277 C   0  0  1  0  0  0  0  0  0  0  0  0
    2.6052    0.4931   -1.0261 C   0  0  0  0  0  0  0  0  0  0  0  0
    3.5988   -0.0881   -0.4904 O   0  0  0  0  0  0  0  0  0  0  0  0
    3.8227   -1.3371    0.0425 C   0  0  0  0  0  0  0  0  0  0  0  0
    5.1475   -1.6869    0.5663 N   0  0  0  0  0  0  0  0  0  0  0  0
    2.8548   -2.1422    0.0420 O   0  0  0  0  0  0  0  0  0  0  0  0
    0.4202    1.0078   -1.7442 C   0  0  0  0  0  0  0  0  0  0  0  0
   -0.6194   -0.4506   -1.7939 S   0  0  0  0  0  0  0  0  0  0  0  0
  1  2  1  0
  2  3  1  0
  4  3  1  1
  4  5  1  0
  5  6  2  0
  6  7  1  0
  7  8  2  0
  8  9  1  0
  9 10  2  0
  4 11  1  0
 11 12  1  0
 12 13  1  6
 13 14  1  0
 14 15  1  0
 15 16  1  0
 15 17  2  0
 12 18  1  0
 18 19  1  0
 19  4  1  0
 10  5  1  0
M  END
>  <zinc_id>  (1) 
ZINC000003613804

>  <smiles>  (1) 
CCC[C@@]1(c2ccccc2)O[C@@H](COC(N)=O)CS1

$$$$
