
     RDKit          3D

 21 23  0  0  0  0  0  0  0  0999 V2000
   -0.4276   -2.0793    1.5273 O   0  0  0  0  0  0  0  0  0  0  0  0
   -0.7662   -1.0245    0.9461 C   0  0  0  0  0  0  0  0  0  0  0  0
    0.2073   -0.2250    0.3395 N   0  0  0  0  0  0  0  0  0  0  0  0
    1.5995   -0.5144    0.3236 C   0  0  0  0  0  0  0  0  0  0  0  0
    2.1542   -1.6317    0.9132 C   0  0  0  0  0  0  0  0  0  0  0  0
    3.5033   -1.9118    0.8976 C   0  0  0  0  0  0  0  0  0  0  0  0
    4.3637   -1.0360    0.2606 C   0  0  0  0  0  0  0  0  0  0  0  0
    3.8435    0.0917   -0.3399 C   0  0  0  0  0  0  0  0  0  0  0  0
    4.7411    0.9736   -0.9856 N   0  0  0  0  0  4  0  0  0  0  0  0
    4.2732    1.9953   -1.5300 O   0  0  0  0  0  0  0  0  0  0  0  0
    6.0842    0.7344   -1.0247 O   0  0  0  0  0  1  0  0  0  0  0  0
    2.4793    0.3424   -0.3047 C   0  0  0  0  0  0  0  0  0  0  0  0
   -2.2097   -0.7048    0.9508 C   0  0  0  0  0  0  0  0  0  0  0  0
   -3.4747   -1.6039    1.6560 S   0  0  0  0  0  0  0  0  0  0  0  0
   -4.7864   -0.5982    1.2352 C   0  0  0  0  0  0  0  0  0  0  0  0
   -4.1898    0.4182    0.5506 C   0  0  0  0  0  0  0  0  0  0  0  0
   -2.8474    0.3594    0.4045 C   0  0  0  0  0  0  0  0  0  0  0  0
   -2.2418    1.5178   -0.3658 C   0  0  0  0  0  0  0  0  0  0  0  0
   -2.9643    1.6282   -1.6952 C   0  0  0  0  0  0  0  0  0  0  0  0
   -4.4636    1.6542   -1.5213 C   0  0  0  0  0  0  0  0  0  0  0  0
   -4.8777    1.6144   -0.0674 C   0  0  0  0  0  0  0  0  0  0  0  0
  1  2  2  0
  2  3  1  0
  3  4  1  0
  4  5  2  0
  5  6  1  0
  6  7  2  0
  7  8  1  0
  8  9  1  0
  9 10  2  0
  9 11  1  0
  8 12  2  0
  2 13  1  0
 13 14  1  0
 14 15  1  0
 15 16  2  0
 16 17  1  0
 17 18  1  0
 18 19  1  0
 19 20  1  0
 20 21  1  0
 12  4  1  0
 17 13  2  0
 21 16  1  0
M  CHG  2   9   1  11  -1
M  END
>  <zinc_id>  (1) 
ZINC000000032843

>  <smiles>  (1) 
O=C(Nc1cccc([N+](=O)[O-])c1)c1scc2c1CCCC2

$$$$
