
     RDKit          3D

 21 23  0  0  0  0  0  0  0  0999 V2000
    2.0647    3.4766    0.1067 C   0  0  0  0  0  0  0  0  0  0  0  0
    0.9833    2.6121   -0.0484 O   0  0  0  0  0  0  0  0  0  0  0  0
    1.0959    1.2335   -0.1625 C   0  0  0  0  0  0  0  0  0  0  0  0
    2.2918    0.5662   -0.1350 C   0  0  0  0  0  0  0  0  0  0  0  0
    2.3515   -0.8070   -0.2525 C   0  0  0  0  0  0  0  0  0  0  0  0
    3.6259   -1.4697   -0.2187 N   0  0  0  0  0  4  0  0  0  0  0  0
    3.7666   -2.6983   -0.3176 O   0  0  0  0  0  0  0  0  0  0  0  0
    4.7561   -0.7128   -0.0694 O   0  0  0  0  0  1  0  0  0  0  0  0
    1.1703   -1.4709   -0.3972 C   0  0  0  0  0  0  0  0  0  0  0  0
   -0.0552   -0.7618   -0.4234 C   0  0  0  0  0  0  0  0  0  0  0  0
   -0.1364    0.5433   -0.3131 C   0  0  0  0  0  0  0  0  0  0  0  0
   -1.3328    1.2636   -0.3250 N   0  0  0  0  0  0  0  0  0  0  0  0
   -2.4481    0.4293   -0.9724 C   0  0  2  0  0  0  0  0  0  0  0  0
   -3.6752    1.2401   -0.2312 C   0  0  0  0  0  0  0  0  0  0  0  0
   -3.4119    2.6550   -0.7692 C   0  0  0  0  0  0  0  0  0  0  0  0
   -3.3548    1.2746    1.2187 C   0  0  0  0  0  0  0  0  0  0  0  0
   -2.5264   -0.8593    0.1363 C   0  0  2  0  0  0  0  0  0  0  0  0
   -1.6015   -0.4000    1.3412 C   0  0  0  0  0  0  0  0  0  0  0  0
   -1.2167   -1.7920    1.7282 C   0  0  0  0  0  0  0  0  0  0  0  0
   -1.0403   -2.5797    0.7250 C   0  0  0  0  0  0  0  0  0  0  0  0
   -1.3069   -1.7426   -0.6207 C   0  0  2  0  0  0  0  0  0  0  0  0
  1  2  1  0
  2  3  1  0
  3  4  2  0
  4  5  1  0
  5  6  1  0
  6  7  2  0
  6  8  1  0
  5  9  2  0
  9 10  1  0
 10 11  2  0
 11 12  1  0
 12 13  1  0
 13 14  1  1
 14 15  1  0
 14 16  1  0
 13 17  1  0
 17 18  1  1
 18 19  1  0
 19 20  2  0
 21 20  1  1
 11  3  1  0
 21 17  1  0
 21 10  1  0
M  CHG  2   6   1   8  -1
M  END
>  <zinc_id>  (1) 
ZINC000003998675

>  <smiles>  (1) 
COc1cc([N+](=O)[O-])cc2c1N[C@H](C(C)C)[C@@H]1CC=C[C@H]21

$$$$
