
     RDKit          3D

 19 21  0  0  0  0  0  0  0  0999 V2000
   -2.5776   -0.4183   -1.5883 O   0  0  0  0  0  0  0  0  0  0  0  0
   -3.1367    0.2520   -0.5035 C   0  0  0  0  0  0  0  0  0  0  0  0
   -4.4424    0.6845   -0.5871 C   0  0  0  0  0  0  0  0  0  0  0  0
   -5.0219    1.3494    0.4682 C   0  0  0  0  0  0  0  0  0  0  0  0
   -4.2383    1.5509    1.5831 C   0  0  0  0  0  0  0  0  0  0  0  0
   -2.9316    1.1155    1.6605 C   0  0  0  0  0  0  0  0  0  0  0  0
   -2.3477    0.4490    0.6054 C   0  0  0  0  0  0  0  0  0  0  0  0
   -0.9660   -0.0323    0.6391 C   0  0  0  0  0  0  0  0  0  0  0  0
   -0.0876    0.0365    1.5262 N   0  0  0  0  0  0  0  0  0  0  0  0
    1.1360   -0.4809    1.3457 N   0  0  0  0  0  0  0  0  0  0  0  0
    1.4960   -0.8697    0.0290 C   0  0  0  0  0  0  0  0  0  0  0  0
    2.2637    0.2045   -0.7098 C   0  0  0  0  0  0  0  0  0  0  0  0
    2.5523    1.3353    0.2514 C   0  0  0  0  0  0  0  0  0  0  0  0
    4.0635    1.3279    0.4865 C   0  0  0  0  0  0  0  0  0  0  0  0
    4.4632   -0.0951    0.7972 C   0  0  0  0  0  0  0  0  0  0  0  0
    4.2807   -1.0176   -0.3883 C   0  0  0  0  0  0  0  0  0  0  0  0
    3.5783   -2.2662    0.1245 C   0  0  0  0  0  0  0  0  0  0  0  0
    2.0997   -2.2245   -0.0873 C   0  0  0  0  0  0  0  0  0  0  0  0
   -0.1837   -0.9010   -0.7199 S   0  0  0  0  0  0  0  0  0  0  0  0
  1  2  1  0
  2  3  2  0
  3  4  1  0
  4  5  2  0
  5  6  1  0
  6  7  2  0
  7  8  1  0
  8  9  2  0
  9 10  1  0
 10 11  1  0
 11 12  1  0
 12 13  1  0
 13 14  1  0
 14 15  1  0
 15 16  1  0
 16 17  1  0
 17 18  1  0
 11 19  1  0
  7  2  1  0
 19  8  1  0
 18 11  1  0
M  END
>  <zinc_id>  (1) 
ZINC000003157856

>  <smiles>  (1) 
Oc1ccccc1C1=NNC2(CCCCCCC2)S1

$$$$
