
     RDKit          3D

 20 21  0  0  0  0  0  0  0  0999 V2000
    5.4008    1.4901   -0.8460 C   0  0  0  0  0  0  0  0  0  0  0  0
    5.3890    0.2407    0.0677 C   0  0  0  0  0  0  0  0  0  0  0  0
    6.3008   -0.7878   -0.5316 C   0  0  0  0  0  0  0  0  0  0  0  0
    5.8212    0.6715    1.4438 C   0  0  0  0  0  0  0  0  0  0  0  0
    3.9899   -0.2795    0.0913 C   0  0  0  0  0  0  0  0  0  0  0  0
    2.9372    0.1806    0.8605 C   0  0  0  0  0  0  0  0  0  0  0  0
    1.8358   -0.5400    0.4899 C   0  0  0  0  0  0  0  0  0  0  0  0
    0.4366   -0.3972    0.9838 C   0  0  0  0  0  0  0  0  0  0  0  0
    0.2459    0.0569    2.1685 O   0  0  0  0  0  0  0  0  0  0  0  0
   -0.6262   -0.7074    0.2447 N   0  0  0  0  0  0  0  0  0  0  0  0
   -1.9046   -0.8501   -0.0448 N   0  0  0  0  0  0  0  0  0  0  0  0
   -2.7493    0.0621   -0.1469 C   0  0  0  0  0  0  0  0  0  0  0  0
   -4.1113    0.2852   -0.4297 C   0  0  0  0  0  0  0  0  0  0  0  0
   -4.9875   -0.6905   -0.8684 C   0  0  0  0  0  0  0  0  0  0  0  0
   -6.2831   -0.3911   -1.1357 C   0  0  0  0  0  0  0  0  0  0  0  0
   -6.8173    0.8716   -0.9991 C   0  0  0  0  0  0  0  0  0  0  0  0
   -5.9339    1.8640   -0.5548 C   0  0  0  0  0  0  0  0  0  0  0  0
   -4.6366    1.5689   -0.2802 C   0  0  0  0  0  0  0  0  0  0  0  0
    2.2030   -1.3911   -0.4517 N   0  0  0  0  0  0  0  0  0  0  0  0
    3.4896   -1.2571   -0.7122 N   0  0  0  0  0  0  0  0  0  0  0  0
  1  2  1  0
  2  3  1  0
  2  4  1  0
  2  5  1  0
  5  6  1  0
  6  7  2  0
  7  8  1  0
  8  9  2  0
  8 10  1  0
 10 11  1  0
 11 12  2  0
 12 13  1  0
 13 14  2  0
 14 15  1  0
 15 16  2  0
 16 17  1  0
 17 18  2  0
  7 19  1  0
 19 20  1  0
 20  5  2  0
 18 13  1  0
M  END
>  <zinc_id>  (1) 
ZINC000000175821

>  <smiles>  (1) 
CC(C)(C)c1cc(C(=O)N/N=C/c2ccccc2)[nH]n1

$$$$
