
     RDKit          3D

 19 21  0  0  0  0  0  0  0  0999 V2000
   -5.3709    1.5836    0.2612 C   0  0  0  0  0  0  0  0  0  0  0  0
   -5.8105    0.1405    0.1068 C   0  0  0  0  0  0  0  0  0  0  0  0
   -5.1066   -0.6187    1.0721 O   0  0  0  0  0  0  0  0  0  0  0  0
   -3.7409   -0.6321    1.0256 C   0  0  0  0  0  0  0  0  0  0  0  0
   -2.9759   -1.3421    1.9232 C   0  0  0  0  0  0  0  0  0  0  0  0
   -1.6253   -1.3887    1.9212 C   0  0  0  0  0  0  0  0  0  0  0  0
   -0.8994   -0.6763    0.9503 C   0  0  0  0  0  0  0  0  0  0  0  0
    0.4058   -0.6426    0.8446 N   0  0  0  0  0  0  0  0  0  0  0  0
    0.9653    0.0662   -0.1136 C   0  0  0  0  0  0  0  0  0  0  0  0
    2.4040    0.1887   -0.3422 C   0  0  0  0  0  0  0  0  0  0  0  0
    2.8507    0.9811   -1.4049 C   0  0  0  0  0  0  0  0  0  0  0  0
    4.1998    1.1109   -1.6391 C   0  0  0  0  0  0  0  0  0  0  0  0
    5.1580    0.4858   -0.8622 C   0  0  0  0  0  0  0  0  0  0  0  0
    6.5572    0.6225   -1.1077 N   0  0  0  0  0  0  0  0  0  0  0  0
    4.6902   -0.2897    0.1793 C   0  0  0  0  0  0  0  0  0  0  0  0
    3.3414   -0.4252    0.4209 C   0  0  0  0  0  0  0  0  0  0  0  0
   -0.3840    0.7258   -0.9176 S   0  0  0  0  0  0  0  0  0  0  0  0
   -1.6298    0.0365    0.0473 C   0  0  0  0  0  0  0  0  0  0  0  0
   -3.0292    0.0738    0.0639 C   0  0  0  0  0  0  0  0  0  0  0  0
  1  2  1  0
  2  3  1  0
  3  4  1  0
  4  5  2  0
  5  6  1  0
  6  7  2  0
  7  8  1  0
  8  9  2  0
  9 10  1  0
 10 11  2  0
 11 12  1  0
 12 13  2  0
 13 14  1  0
 13 15  1  0
 15 16  2  0
  9 17  1  0
 17 18  1  0
 18 19  2  0
 19  4  1  0
 18  7  1  0
 16 10  1  0
M  END
>  <zinc_id>  (1) 
ZINC000003185350

>  <smiles>  (1) 
CCOc1ccc2nc(-c3ccc(N)cc3)sc2c1

$$$$
