
     RDKit          3D

 18 19  0  0  0  0  0  0  0  0999 V2000
   -4.1942   -0.6848    1.6479 C   0  0  0  0  0  0  0  0  0  0  0  0
   -2.8672    0.0155    1.0219 C   0  0  2  0  0  0  0  0  0  0  0  0
   -3.6376    0.9216   -0.0758 C   0  0  0  0  0  0  0  0  0  0  0  0
   -4.8152    0.2633   -0.6043 C   0  0  0  0  0  0  0  0  0  0  0  0
   -4.8490   -1.2258   -0.5951 C   0  0  0  0  0  0  0  0  0  0  0  0
   -3.4452   -1.6966   -0.6970 C   0  0  0  0  0  0  0  0  0  0  0  0
   -2.5224   -1.1645    0.0138 C   0  0  0  0  0  0  0  0  0  0  0  0
   -1.2044   -1.6063   -0.0800 N   0  0  0  0  0  0  0  0  0  0  0  0
   -0.0668   -0.9180    0.2488 N   0  0  0  0  0  0  0  0  0  0  0  0
    0.9490   -0.5949   -0.6897 C   0  0  0  0  0  0  0  0  0  0  0  0
    0.7645   -0.9724   -1.8695 O   0  0  0  0  0  0  0  0  0  0  0  0
    2.1391    0.1417   -0.2746 C   0  0  0  0  0  0  0  0  0  0  0  0
    3.1162    0.4647   -1.2056 C   0  0  0  0  0  0  0  0  0  0  0  0
    4.2553    1.1655   -0.8245 C   0  0  0  0  0  0  0  0  0  0  0  0
    4.4666    1.5677    0.4777 C   0  0  0  0  0  0  0  0  0  0  0  0
    6.0537    2.5294    0.9578 Br  0  0  0  0  0  0  0  0  0  0  0  0
    3.4998    1.2481    1.3991 C   0  0  0  0  0  0  0  0  0  0  0  0
    2.3578    0.5461    1.0193 C   0  0  0  0  0  0  0  0  0  0  0  0
  2  1  1  1
  2  3  1  0
  3  4  1  0
  4  5  1  0
  5  6  1  0
  6  7  2  0
  7  8  1  0
  8  9  1  0
  9 10  1  0
 10 11  2  0
 10 12  1  0
 12 13  2  0
 13 14  1  0
 14 15  2  0
 15 16  1  0
 15 17  1  0
 17 18  2  0
  7  2  1  0
 18 12  1  0
M  END
>  <zinc_id>  (1) 
ZINC000003253052

>  <smiles>  (1) 
C[C@@H]1CCCC=C1NNC(=O)c1ccc(Br)cc1

$$$$
