
     RDKit          3D

 19 21  0  0  0  0  0  0  0  0999 V2000
    3.1918    2.8295    1.0956 C   0  0  0  0  0  0  0  0  0  0  0  0
    4.2715    1.7929    0.7873 C   0  0  0  0  0  0  0  0  0  0  0  0
    3.8801    0.9466   -0.4076 C   0  0  0  0  0  0  0  0  0  0  0  0
    2.5875    0.2530   -0.0637 C   0  0  0  0  0  0  0  0  0  0  0  0
    1.8404   -0.5991   -0.7862 C   0  0  0  0  0  0  0  0  0  0  0  0
    0.6816   -1.0960   -0.2217 C   0  0  0  0  0  0  0  0  0  0  0  0
    0.4095   -0.6679    1.0195 C   0  0  0  0  0  0  0  0  0  0  0  0
    1.7124    0.3852    1.3979 S   0  0  0  0  0  0  0  0  0  0  0  0
   -0.7004   -1.0291    1.7401 N   0  0  0  0  0  0  0  0  0  0  0  0
   -1.9855   -1.5416    0.9845 C   0  0  1  0  0  0  0  0  0  0  0  0
   -2.1992   -0.2160    0.1188 C   0  0  0  0  0  0  0  0  0  0  0  0
   -2.4580   -0.2388   -1.1764 C   0  0  0  0  0  0  0  0  0  0  0  0
   -2.6406    0.9263   -1.8837 C   0  0  0  0  0  0  0  0  0  0  0  0
   -2.5541    2.1225   -1.2437 C   0  0  0  0  0  0  0  0  0  0  0  0
   -2.2894    2.1762    0.0861 C   0  0  0  0  0  0  0  0  0  0  0  0
   -2.1132    0.9952    0.7586 C   0  0  0  0  0  0  0  0  0  0  0  0
   -1.3334   -2.4716   -0.0604 N   0  0  0  0  0  0  0  0  0  0  0  0
   -0.2643   -2.0675   -0.7989 C   0  0  0  0  0  0  0  0  0  0  0  0
   -0.0367   -2.4996   -1.9921 O   0  0  0  0  0  0  0  0  0  0  0  0
  1  2  1  0
  2  3  1  0
  3  4  1  0
  4  5  2  0
  5  6  1  0
  6  7  2  0
  7  8  1  0
  7  9  1  0
  9 10  1  0
 10 11  1  6
 11 12  2  0
 12 13  1  0
 13 14  2  0
 14 15  1  0
 15 16  2  0
 10 17  1  0
 17 18  1  0
 18 19  2  0
  8  4  1  0
 16 11  1  0
 18  6  1  0
M  END
>  <zinc_id>  (1) 
ZINC000002737933

>  <smiles>  (1) 
CCCc1cc2c(s1)N[C@@H](c1ccccc1)NC2=O

$$$$
