
     RDKit          3D

 17 18  0  0  0  0  0  0  0  0999 V2000
    0.5108   -2.9755    1.8681 C   0  0  0  0  0  0  0  0  0  0  0  0
    0.2155   -2.6829    0.0851 S   0  0  0  0  0  0  0  0  0  0  0  0
   -0.8834   -1.3133   -0.1037 C   0  0  0  0  0  0  0  0  0  0  0  0
   -2.2348   -1.4305   -0.1498 N   0  0  0  0  0  0  0  0  0  0  0  0
   -3.0749   -0.4019   -0.2944 C   0  0  0  0  0  0  0  0  0  0  0  0
   -4.5044   -0.5757   -0.3529 N   0  0  0  0  0  0  0  0  0  0  0  0
   -2.5629    0.8284   -0.4016 N   0  0  0  0  0  0  0  0  0  0  0  0
   -1.1967    1.0192   -0.3605 C   0  0  0  0  0  0  0  0  0  0  0  0
   -0.4925    2.6622   -0.4952 S   0  0  0  0  0  0  0  0  0  0  0  0
   -0.3836    3.3169    1.2096 C   0  0  0  0  0  0  0  0  0  0  0  0
   -0.3578   -0.0507   -0.2115 C   0  0  0  0  0  0  0  0  0  0  0  0
    1.1005    0.1234   -0.1545 C   0  0  0  0  0  0  0  0  0  0  0  0
    1.7391    0.6802    0.9370 C   0  0  0  0  0  0  0  0  0  0  0  0
    3.1185    0.8266    0.9719 C   0  0  0  0  0  0  0  0  0  0  0  0
    3.8760    0.4032   -0.1209 C   0  0  0  0  0  0  0  0  0  0  0  0
    3.2419   -0.1529   -1.2214 C   0  0  0  0  0  0  0  0  0  0  0  0
    1.8887   -0.2766   -1.2053 C   0  0  0  0  0  0  0  0  0  0  0  0
  1  2  1  0
  2  3  1  0
  3  4  2  0
  4  5  1  0
  5  6  1  0
  5  7  2  0
  7  8  1  0
  8  9  1  0
  9 10  1  0
  8 11  2  0
 11 12  1  0
 12 13  2  0
 13 14  1  0
 14 15  2  0
 15 16  1  0
 16 17  2  0
 11  3  1  0
 17 12  1  0
M  END
>  <zinc_id>  (1) 
ZINC000001677173

>  <smiles>  (1) 
CSc1nc(N)nc(SC)c1-c1ccccc1

$$$$
