
     RDKit          3D

 19 19  0  0  0  0  0  0  0  0999 V2000
    2.2897   -0.0822    3.8513 C   0  0  0  0  0  0  0  0  0  0  0  0
    3.1444    1.0878    3.3886 C   0  0  0  0  0  0  0  0  0  0  0  0
    3.7783    0.7012    2.0820 C   0  0  0  0  0  0  0  0  0  0  0  0
    2.6771    0.4139    1.0941 C   0  0  0  0  0  0  0  0  0  0  0  0
    1.4747    0.5176    1.4101 O   0  0  0  0  0  0  0  0  0  0  0  0
    3.0036    0.0232   -0.2034 N   0  0  0  0  0  0  0  0  0  0  0  0
    2.1320   -0.2877   -1.2694 C   0  0  0  0  0  0  0  0  0  0  0  0
    2.9633   -0.7209   -2.6883 S   0  0  0  0  0  0  0  0  0  0  0  0
    0.8265   -0.2717   -1.2704 N   0  0  0  0  0  0  0  0  0  0  0  0
   -0.4953   -0.2555   -1.2714 C   0  0  0  0  0  0  0  0  0  0  0  0
   -1.2181    0.0925   -0.1241 C   0  0  0  0  0  0  0  0  0  0  0  0
   -2.5728    0.1302   -0.0337 C   0  0  0  0  0  0  0  0  0  0  0  0
   -3.2759    0.4883    1.1549 N   0  0  0  0  0  4  0  0  0  0  0  0
   -4.5177    0.5011    1.2029 O   0  0  0  0  0  0  0  0  0  0  0  0
   -2.5645    0.8257    2.2754 O   0  0  0  0  0  1  0  0  0  0  0  0
   -3.2720   -0.2069   -1.1823 C   0  0  0  0  0  0  0  0  0  0  0  0
   -2.6070   -0.5566   -2.3380 C   0  0  0  0  0  0  0  0  0  0  0  0
   -1.2547   -0.5935   -2.4259 C   0  0  0  0  0  0  0  0  0  0  0  0
   -0.5116   -0.9629   -3.6522 C   0  0  0  0  0  0  0  0  0  0  0  0
  1  2  1  0
  2  3  1  0
  3  4  1  0
  4  5  2  0
  4  6  1  0
  6  7  1  0
  7  8  2  0
  7  9  1  0
  9 10  1  0
 10 11  2  0
 11 12  1  0
 12 13  1  0
 13 14  2  0
 13 15  1  0
 12 16  2  0
 16 17  1  0
 17 18  2  0
 18 19  1  0
 18 10  1  0
M  CHG  2  13   1  15  -1
M  END
>  <zinc_id>  (1) 
ZINC000000502932

>  <smiles>  (1) 
CCCC(=O)NC(=S)Nc1cc([N+](=O)[O-])ccc1C

$$$$
