
     RDKit          3D

 18 19  0  0  0  0  0  0  0  0999 V2000
   -5.5941   -0.8526   -0.4010 C   0  0  0  0  0  0  0  0  0  0  0  0
   -4.3461    0.0315   -1.0822 C   0  0  2  0  0  0  0  0  0  0  0  0
   -3.3215   -0.4151    0.1247 C   0  0  0  0  0  0  0  0  0  0  0  0
   -2.3851    0.4984    0.3129 C   0  0  0  0  0  0  0  0  0  0  0  0
   -1.4036    0.3273    1.2924 N   0  0  0  0  0  0  0  0  0  0  0  0
   -0.0308    0.3316    1.0721 N   0  0  0  0  0  0  0  0  0  0  0  0
    0.6426   -0.6269    0.2461 C   0  0  0  0  0  0  0  0  0  0  0  0
   -0.0937   -1.5113   -0.2932 O   0  0  0  0  0  0  0  0  0  0  0  0
    2.0926   -0.5833    0.0463 C   0  0  0  0  0  0  0  0  0  0  0  0
    2.7972   -1.6422   -0.4977 C   0  0  0  0  0  0  0  0  0  0  0  0
    4.1560   -1.5539   -0.6725 C   0  0  0  0  0  0  0  0  0  0  0  0
    4.8485   -0.4216   -0.3156 C   0  0  0  0  0  0  0  0  0  0  0  0
    6.5753   -0.2655   -0.5150 Cl  0  0  0  0  0  0  0  0  0  0  0  0
    4.1418    0.6498    0.2343 C   0  0  0  0  0  0  0  0  0  0  0  0
    2.7726    0.5641    0.4112 C   0  0  0  0  0  0  0  0  0  0  0  0
   -2.3655    1.7191   -0.5227 C   0  0  0  0  0  0  0  0  0  0  0  0
   -3.7086    2.3548   -0.6601 C   0  0  0  0  0  0  0  0  0  0  0  0
   -4.7775    1.3956   -0.2582 C   0  0  0  0  0  0  0  0  0  0  0  0
  2  1  1  1
  2  3  1  0
  3  4  2  0
  4  5  1  0
  5  6  1  0
  6  7  1  0
  7  8  2  0
  7  9  1  0
  9 10  2  0
 10 11  1  0
 11 12  2  0
 12 13  1  0
 12 14  1  0
 14 15  2  0
  4 16  1  0
 16 17  1  0
 17 18  1  0
 18  2  1  0
 15  9  1  0
M  END
>  <zinc_id>  (1) 
ZINC000003233702

>  <smiles>  (1) 
C[C@@H]1C=C(NNC(=O)c2ccc(Cl)cc2)CCC1

$$$$
