
     RDKit          3D

 20 21  0  0  0  0  0  0  0  0999 V2000
   -3.9458    1.9982   -0.0738 C   0  0  0  0  0  0  0  0  0  0  0  0
   -4.4965    0.7113    0.1341 N   0  0  0  0  0  0  0  0  0  0  0  0
   -5.8377    0.3944   -0.1826 C   0  0  0  0  0  0  0  0  0  0  0  0
   -6.1653   -0.9127    0.3611 C   0  0  0  0  0  0  0  0  0  0  0  0
   -4.8067   -1.3833    0.8890 C   0  0  0  0  0  0  0  0  0  0  0  0
   -3.9203   -0.3836    0.7295 C   0  0  0  0  0  0  0  0  0  0  0  0
   -2.4560   -0.3392    0.9892 C   0  0  0  0  0  0  0  0  0  0  0  0
   -2.0208   -1.6233    0.3065 N   0  0  0  0  0  0  0  0  0  0  0  0
   -0.5261   -1.4010    0.6846 N   0  0  0  0  0  0  0  0  0  0  0  0
    0.0899   -0.5314   -0.2523 C   0  0  0  0  0  0  0  0  0  0  0  0
   -0.5358    0.0035   -1.2609 O   0  0  0  0  0  0  0  0  0  0  0  0
    1.5220   -0.1734   -0.2473 C   0  0  0  0  0  0  0  0  0  0  0  0
    2.6808   -0.3156   -0.7581 C   0  0  0  0  0  0  0  0  0  0  0  0
    3.6686    0.4387   -0.0520 C   0  0  0  0  0  0  0  0  0  0  0  0
    5.0951    0.5153   -0.3344 C   0  0  0  0  0  0  0  0  0  0  0  0
    5.7369    0.4156    1.0876 C   0  0  0  0  0  0  0  0  0  0  0  0
    5.6426    1.6757   -0.9888 C   0  0  0  0  0  0  0  0  0  0  0  0
    5.5685   -0.7686   -0.9993 C   0  0  0  0  0  0  0  0  0  0  0  0
    2.9436    0.9472    0.8942 N   0  0  0  0  0  0  0  0  0  0  0  0
    1.7632    0.7323    0.9059 N   0  0  0  0  0  0  0  0  0  0  0  0
  1  2  1  0
  2  3  1  0
  3  4  2  0
  4  5  1  0
  5  6  2  0
  6  7  1  0
  7  8  2  0
  8  9  1  0
  9 10  1  0
 10 11  2  0
 10 12  1  0
 12 13  2  0
 13 14  1  0
 14 15  1  0
 15 16  1  0
 15 17  1  0
 15 18  1  0
 14 19  2  0
 19 20  1  0
  6  2  1  0
 20 12  1  0
M  END
>  <zinc_id>  (1) 
ZINC000000037748

>  <smiles>  (1) 
Cn1cccc1/C=N/NC(=O)c1cc(C(C)(C)C)n[nH]1

$$$$
