
     RDKit          3D

 19 19  0  0  0  0  0  0  0  0999 V2000
   -2.3379    0.9998   -1.0729 C   0  0  0  0  0  0  0  0  0  0  0  0
   -2.7635   -0.4092   -0.3863 C   0  0  1  0  0  0  0  0  0  0  0  0
   -1.7432   -0.3125    0.7807 N   0  0  0  0  0  0  0  0  0  0  0  0
   -0.3675   -0.3722    0.4259 C   0  0  0  0  0  0  0  0  0  0  0  0
    0.0319   -0.9091   -0.6734 N   0  0  0  0  0  0  0  0  0  0  0  0
   -0.8887   -1.4607   -1.5676 C   0  0  0  0  0  0  0  0  0  0  0  0
   -1.6327   -1.9396   -2.3274 N   0  0  0  0  0  0  0  0  0  0  0  0
    0.6812    0.1403    1.2650 N   0  0  0  0  0  0  0  0  0  0  0  0
    2.0186    0.2742    0.8151 C   0  0  0  0  0  0  0  0  0  0  0  0
    2.4677   -0.0589   -0.4417 C   0  0  0  0  0  0  0  0  0  0  0  0
    3.8100    0.1071   -0.8006 C   0  0  0  0  0  0  0  0  0  0  0  0
    4.7346    0.6094    0.0869 C   0  0  0  0  0  0  0  0  0  0  0  0
    6.0438    0.7668   -0.2765 F   0  0  0  0  0  0  0  0  0  0  0  0
    4.2862    0.9431    1.3448 C   0  0  0  0  0  0  0  0  0  0  0  0
    2.9429    0.7765    1.7026 C   0  0  0  0  0  0  0  0  0  0  0  0
   -4.0172    0.1489    0.4626 C   0  0  0  0  0  0  0  0  0  0  0  0
   -4.5925   -1.0458    1.2138 C   0  0  0  0  0  0  0  0  0  0  0  0
   -5.0361    0.5245   -0.5908 C   0  0  0  0  0  0  0  0  0  0  0  0
   -3.6376    1.2174    1.3693 C   0  0  0  0  0  0  0  0  0  0  0  0
  2  1  1  6
  2  3  1  0
  3  4  1  0
  4  5  2  0
  5  6  1  0
  6  7  3  0
  4  8  1  0
  8  9  1  0
  9 10  2  0
 10 11  1  0
 11 12  2  0
 12 13  1  0
 12 14  1  0
 14 15  2  0
  2 16  1  0
 16 17  1  0
 16 18  1  0
 16 19  1  0
 15  9  1  0
M  END
>  <zinc_id>  (1) 
ZINC000003917924

>  <smiles>  (1) 
C[C@@H](N/C(=N\C#N)Nc1ccc(F)cc1)C(C)(C)C

$$$$
