
     RDKit          3D

 23 25  0  0  0  0  0  0  0  0999 V2000
    5.7269   -0.1635   -0.6564 C   0  0  0  0  0  0  0  0  0  0  0  0
    4.5235    0.6068   -1.1652 C   0  0  0  0  0  0  0  0  0  0  0  0
    3.3774   -0.0940   -0.7546 O   0  0  0  0  0  0  0  0  0  0  0  0
    2.0849    0.2827   -1.0198 C   0  0  0  0  0  0  0  0  0  0  0  0
    1.9030    1.3298   -1.6774 O   0  0  0  0  0  0  0  0  0  0  0  0
    0.9048   -0.5011   -0.5584 C   0  0  0  0  0  0  0  0  0  0  0  0
    1.1435   -1.5539    0.1043 C   0  0  0  0  0  0  0  0  0  0  0  0
    2.5231   -1.9731    0.3984 N   0  0  0  0  0  0  0  0  0  0  0  0
    0.1480   -2.3653    0.5873 O   0  0  0  0  0  0  0  0  0  0  0  0
   -1.1732   -2.0058    0.3322 C   0  0  0  0  0  0  0  0  0  0  0  0
   -1.4923   -0.9537   -0.3309 C   0  0  0  0  0  0  0  0  0  0  0  0
   -2.8953   -0.6354   -0.5629 C   0  0  0  0  0  0  0  0  0  0  0  0
   -3.2932    0.0042   -1.5898 O   0  0  0  0  0  0  0  0  0  0  0  0
   -3.8927   -1.0779    0.4424 C   0  0  0  0  0  0  0  0  0  0  0  0
   -3.4463   -2.1994    1.3114 C   0  0  0  0  0  0  0  0  0  0  0  0
   -2.2169   -2.9133    0.8726 C   0  0  0  0  0  0  0  0  0  0  0  0
   -0.4713    0.0489   -0.9341 C   0  0  1  0  0  0  0  0  0  0  0  0
   -0.5327    1.2363    0.1236 C   0  0  0  0  0  0  0  0  0  0  0  0
   -0.6091    1.1073    1.4226 C   0  0  0  0  0  0  0  0  0  0  0  0
   -0.6545    2.2449    2.2074 C   0  0  0  0  0  0  0  0  0  0  0  0
   -0.6207    3.4828    1.6461 C   0  0  0  0  0  0  0  0  0  0  0  0
   -0.5403    3.6381    0.2791 C   0  0  0  0  0  0  0  0  0  0  0  0
   -0.4965    2.4546   -0.4780 C   0  0  0  0  0  0  0  0  0  0  0  0
  1  2  1  0
  2  3  1  0
  3  4  1  0
  4  5  2  0
  4  6  1  0
  6  7  2  0
  7  8  1  0
  7  9  1  0
  9 10  1  0
 10 11  2  0
 11 12  1  0
 12 13  2  0
 12 14  1  0
 14 15  1  0
 15 16  1  0
 11 17  1  0
 17 18  1  1
 18 19  2  0
 19 20  1  0
 20 21  2  0
 21 22  1  0
 22 23  2  0
 17  6  1  0
 23 18  1  0
 16 10  1  0
M  END
>  <zinc_id>  (1) 
ZINC000002469681

>  <smiles>  (1) 
CCOC(=O)C1=C(N)OC2=C(C(=O)CCC2)[C@H]1c1ccccc1

$$$$
