
     RDKit          3D

 21 22  0  0  0  0  0  0  0  0999 V2000
    1.1552   -2.3769   -1.7825 C   0  0  0  0  0  0  0  0  0  0  0  0
    1.4766   -1.1670   -1.3853 C   0  0  0  0  0  0  0  0  0  0  0  0
    2.8994   -0.8149   -1.4875 N   0  0  0  0  0  0  0  0  0  0  0  0
    3.4438   -0.7546   -0.1519 N   0  0  0  0  0  0  0  0  0  0  0  0
    3.8423    0.4475    0.4039 C   0  0  0  0  0  0  0  0  0  0  0  0
    4.3707    0.4374    1.8066 C   0  0  0  0  0  0  0  0  0  0  0  0
    3.8267    1.5454   -0.1471 O   0  0  0  0  0  0  0  0  0  0  0  0
    0.5508   -0.2009   -0.8671 C   0  0  0  0  0  0  0  0  0  0  0  0
    0.9400    1.1373   -0.6918 C   0  0  0  0  0  0  0  0  0  0  0  0
    0.1208    2.0511   -0.2134 C   0  0  0  0  0  0  0  0  0  0  0  0
   -1.2228    1.7982    0.1359 C   0  0  0  0  0  0  0  0  0  0  0  0
   -2.0501    2.7883    0.5666 C   0  0  0  0  0  0  0  0  0  0  0  0
   -3.3946    2.4895    0.8693 C   0  0  0  0  0  0  0  0  0  0  0  0
   -3.7784    1.1932    0.6820 C   0  0  0  0  0  0  0  0  0  0  0  0
   -2.9753    0.1828    0.2344 C   0  0  0  0  0  0  0  0  0  0  0  0
   -1.6250    0.4711   -0.0391 C   0  0  0  0  0  0  0  0  0  0  0  0
   -0.7254   -0.4226   -0.5131 C   0  0  0  0  0  0  0  0  0  0  0  0
   -1.2792   -1.7805   -0.6116 O   0  0  0  0  0  0  0  0  0  0  0  0
   -1.7054   -2.1778    0.7198 C   0  0  0  0  0  0  0  0  0  0  0  0
   -0.8392   -2.5182    1.6185 F   0  0  0  0  0  0  0  0  0  0  0  0
   -3.0309   -2.3285    0.8533 F   0  0  0  0  0  0  0  0  0  0  0  0
  1  2  2  0
  2  3  1  0
  3  4  1  0
  4  5  1  0
  5  6  1  0
  5  7  2  0
  2  8  1  0
  8  9  2  0
  9 10  1  0
 10 11  2  0
 11 12  1  0
 12 13  2  0
 13 14  1  0
 14 15  2  0
 15 16  1  0
 16 17  2  0
 17 18  1  0
 18 19  1  0
 19 20  1  0
 19 21  1  0
 17  8  1  0
 16 11  1  0
M  END
>  <zinc_id>  (1) 
ZINC000003257891

>  <smiles>  (1) 
C=C(NNC(C)=O)c1ccc2ccccc2c1OC(F)F

$$$$
