
     RDKit          3D

 19 20  0  0  0  0  0  0  0  0999 V2000
    7.2020   -0.4017   -0.9494 C   0  0  0  0  0  0  0  0  0  0  0  0
    5.7140   -0.4516   -0.8802 C   0  0  0  0  0  0  0  0  0  0  0  0
    5.1436   -1.3610   -1.5400 O   0  0  0  0  0  0  0  0  0  0  0  0
    4.9262    0.4392   -0.1365 N   0  0  0  0  0  0  0  0  0  0  0  0
    3.5075    0.3915   -0.0706 C   0  0  0  0  0  0  0  0  0  0  0  0
    2.8585    1.3351    0.7039 C   0  0  0  0  0  0  0  0  0  0  0  0
    1.4785    1.3567    0.8204 C   0  0  0  0  0  0  0  0  0  0  0  0
    0.7322    0.4068    0.1420 C   0  0  0  0  0  0  0  0  0  0  0  0
   -0.6860    0.4864    0.3061 N   0  0  0  0  0  0  0  0  0  0  0  0
   -1.5191   -0.2719   -0.2757 C   0  0  0  0  0  0  0  0  0  0  0  0
   -2.9655   -0.1868   -0.1051 C   0  0  0  0  0  0  0  0  0  0  0  0
   -3.7705   -1.0697   -0.7936 C   0  0  0  0  0  0  0  0  0  0  0  0
   -5.1495   -1.0103   -0.6493 C   0  0  0  0  0  0  0  0  0  0  0  0
   -5.7740   -0.0902    0.1684 C   0  0  0  0  0  0  0  0  0  0  0  0
   -7.2518   -0.0318    0.3186 C   0  0  0  0  0  0  0  0  0  0  0  0
   -4.9492    0.7847    0.8488 C   0  0  0  0  0  0  0  0  0  0  0  0
   -3.5778    0.7370    0.7148 C   0  0  0  0  0  0  0  0  0  0  0  0
    1.3457   -0.5354   -0.6289 C   0  0  0  0  0  0  0  0  0  0  0  0
    2.7350   -0.5268   -0.7228 C   0  0  0  0  0  0  0  0  0  0  0  0
  1  2  1  0
  2  3  2  0
  2  4  1  0
  4  5  1  0
  5  6  2  0
  6  7  1  0
  7  8  2  0
  8  9  1  0
  9 10  2  0
 10 11  1  0
 11 12  2  0
 12 13  1  0
 13 14  2  0
 14 15  1  0
 14 16  1  0
 16 17  2  0
  8 18  1  0
 18 19  2  0
 19  5  1  0
 17 11  1  0
M  END
>  <zinc_id>  (1) 
ZINC000000244673

>  <smiles>  (1) 
CC(=O)Nc1ccc(/N=C/c2ccc(C)cc2)cc1

$$$$
