
     RDKit          3D

 20 22  0  0  0  0  0  0  0  0999 V2000
    5.6627   -0.8525    1.7669 C   0  0  0  0  0  0  0  0  0  0  0  0
    5.3943   -0.5025    0.4115 N   0  0  0  0  0  0  0  0  0  0  0  0
    4.0447   -0.2901   -0.0472 C   0  0  0  0  0  0  0  0  0  0  0  0
    2.9127   -0.3601    0.5870 N   0  0  0  0  0  0  0  0  0  0  0  0
    1.7861   -0.1228   -0.0427 C   0  0  0  0  0  0  0  0  0  0  0  0
    0.4932   -0.2033    0.6839 C   0  0  0  0  0  0  0  0  0  0  0  0
    0.3628   -0.5241    2.0413 C   0  0  0  0  0  0  0  0  0  0  0  0
   -0.9320   -0.5077    2.3706 N   0  0  0  0  0  0  0  0  0  0  0  0
   -1.6747   -0.1890    1.2891 C   0  0  0  0  0  0  0  0  0  0  0  0
   -3.0212   -0.0382    1.0823 C   0  0  0  0  0  0  0  0  0  0  0  0
   -3.5567    0.3005   -0.1448 C   0  0  0  0  0  0  0  0  0  0  0  0
   -4.9074    0.4546   -0.3643 O   0  0  0  0  0  0  0  0  0  0  0  0
   -5.8408    0.2639    0.7052 C   0  0  0  0  0  0  0  0  0  0  0  0
   -2.6732    0.4823   -1.1619 C   0  0  0  0  0  0  0  0  0  0  0  0
   -1.2926    0.3378   -0.9914 C   0  0  0  0  0  0  0  0  0  0  0  0
   -0.4547    0.5402   -2.0792 O   0  0  0  0  0  0  0  0  0  0  0  0
   -0.9974    0.8854   -3.3307 C   0  0  0  0  0  0  0  0  0  0  0  0
   -0.7855    0.0027    0.2294 C   0  0  0  0  0  0  0  0  0  0  0  0
    1.8998    0.1929   -1.3739 C   0  0  0  0  0  0  0  0  0  0  0  0
    3.5799    0.1302   -1.6310 S   0  0  0  0  0  0  0  0  0  0  0  0
  1  2  1  0
  2  3  1  0
  3  4  2  0
  4  5  1  0
  5  6  1  0
  6  7  2  0
  7  8  1  0
  8  9  1  0
  9 10  2  0
 10 11  1  0
 11 12  1  0
 12 13  1  0
 11 14  2  0
 14 15  1  0
 15 16  1  0
 16 17  1  0
 15 18  2  0
  5 19  2  0
 19 20  1  0
 20  3  1  0
 18  6  1  0
 18  9  1  0
M  END
>  <zinc_id>  (1) 
ZINC000002342407

>  <smiles>  (1) 
CNc1nc(-c2c[nH]c3cc(OC)cc(OC)c23)cs1

$$$$
