
     RDKit          3D

 19 20  0  0  0  0  0  0  0  0999 V2000
   -3.2390   -1.3839   -3.3140 C   0  0  0  0  0  0  0  0  0  0  0  0
   -2.5700   -0.9889   -2.1218 N   0  0  0  0  0  0  0  0  0  0  0  0
   -3.2017   -0.3417   -1.0250 C   0  0  0  0  0  0  0  0  0  0  0  0
   -4.5394   -0.0235   -0.9958 C   0  0  0  0  0  0  0  0  0  0  0  0
   -5.0902    0.6061    0.1030 C   0  0  0  0  0  0  0  0  0  0  0  0
   -4.3358    0.9436    1.2126 C   0  0  0  0  0  0  0  0  0  0  0  0
   -2.9804    0.6241    1.1891 C   0  0  0  0  0  0  0  0  0  0  0  0
   -2.4529   -0.0042    0.0819 C   0  0  0  0  0  0  0  0  0  0  0  0
   -1.0326   -0.3256    0.0866 C   0  0  0  0  0  0  0  0  0  0  0  0
   -0.4619   -0.8978   -0.8767 O   0  0  0  0  0  0  0  0  0  0  0  0
   -0.2032   -0.0036    1.1995 N   0  0  0  0  0  0  0  0  0  0  0  0
    1.1635   -0.3181    1.1927 N   0  0  0  0  0  0  0  0  0  0  0  0
    2.1788    0.6615    1.3559 C   0  0  0  0  0  0  0  0  0  0  0  0
    3.4246    0.3071    1.0329 C   0  0  0  0  0  0  0  0  0  0  0  0
    3.7615   -1.0490    0.5219 C   0  0  0  0  0  0  0  0  0  0  0  0
    4.9661   -0.9609   -0.3567 C   0  0  0  0  0  0  0  0  0  0  0  0
    4.9702    0.3513   -1.1164 C   0  0  0  0  0  0  0  0  0  0  0  0
    5.1062    1.5303   -0.2021 C   0  0  0  0  0  0  0  0  0  0  0  0
    4.5362    1.2731    1.1758 C   0  0  0  0  0  0  0  0  0  0  0  0
  1  2  1  0
  2  3  1  0
  3  4  2  0
  4  5  1  0
  5  6  2  0
  6  7  1  0
  7  8  2  0
  8  9  1  0
  9 10  2  0
  9 11  1  0
 11 12  1  0
 12 13  1  0
 13 14  2  3
 14 15  1  0
 15 16  1  0
 16 17  1  0
 17 18  1  0
 18 19  1  0
  8  3  1  0
 19 14  1  0
M  END
>  <zinc_id>  (1) 
ZINC000001739317

>  <smiles>  (1) 
CNc1ccccc1C(=O)NNC=C1CCCCC1

$$$$
