
     RDKit          3D

 21 23  0  0  0  0  0  0  0  0999 V2000
   -5.7188    0.8614   -0.5112 C   0  0  0  0  0  0  0  0  0  0  0  0
   -4.3599    1.3787   -0.3281 C   0  0  0  0  0  0  0  0  0  0  0  0
   -4.0466    2.8025   -0.1451 C   0  0  0  0  0  0  0  0  0  0  0  0
   -3.3485    0.5140   -0.3268 C   0  0  0  0  0  0  0  0  0  0  0  0
   -2.0583    0.7296   -0.1827 N   0  0  0  0  0  0  0  0  0  0  0  0
   -1.2252   -0.2439   -0.2098 N   0  0  0  0  0  0  0  0  0  0  0  0
    0.1393   -0.1638   -0.0734 C   0  0  0  0  0  0  0  0  0  0  0  0
    0.7332    0.9555    0.1030 N   0  0  0  0  0  0  0  0  0  0  0  0
    0.8683   -1.3026   -0.1281 C   0  0  0  0  0  0  0  0  0  0  0  0
    2.1999   -1.2296    0.0045 C   0  0  0  0  0  0  0  0  0  0  0  0
    2.9037    0.0104    0.2042 C   0  0  0  0  0  0  0  0  0  0  0  0
    3.3671    0.7654   -0.8437 C   0  0  0  0  0  0  0  0  0  0  0  0
    4.0443    1.9580   -0.6585 C   0  0  0  0  0  0  0  0  0  0  0  0
    4.2557    2.3944    0.6310 C   0  0  0  0  0  0  0  0  0  0  0  0
    3.8103    1.6721    1.7023 C   0  0  0  0  0  0  0  0  0  0  0  0
    3.1287    0.4697    1.4792 C   0  0  0  0  0  0  0  0  0  0  0  0
    0.3815   -2.5829   -0.3119 C   0  0  0  0  0  0  0  0  0  0  0  0
    1.0769   -3.6059   -0.3572 O   0  0  0  0  0  0  0  0  0  0  0  0
   -0.9705   -2.6631   -0.4471 N   0  0  0  0  0  0  0  0  0  0  0  0
   -1.7514   -1.5403   -0.3990 C   0  0  0  0  0  0  0  0  0  0  0  0
   -3.4298   -1.1795   -0.5172 S   0  0  0  0  0  0  0  0  0  0  0  0
  1  2  1  0
  2  3  1  0
  2  4  2  3
  4  5  1  0
  5  6  1  0
  6  7  1  0
  7  8  2  0
  7  9  1  0
  9 10  2  0
 10 11  1  0
 11 12  2  0
 12 13  1  0
 13 14  2  0
 14 15  1  0
 15 16  2  0
  9 17  1  0
 17 18  2  0
 17 19  1  0
 19 20  2  0
 20 21  1  0
 21  4  1  0
 20  6  1  0
 16 11  1  0
M  END
>  <zinc_id>  (1) 
ZINC000004464518

>  <smiles>  (1) 
CC(C)=c1[nH]n2c(=N)/c(=C\c3ccccc3)c(=O)nc-2s1

$$$$
