
     RDKit          3D

 23 25  0  0  0  0  0  0  0  0999 V2000
   -2.7222    3.2702   -0.4630 C   0  0  0  0  0  0  0  0  0  0  0  0
   -2.5085    1.9292   -0.0234 O   0  0  0  0  0  0  0  0  0  0  0  0
   -1.6131    1.0741   -0.5749 C   0  0  0  0  0  0  0  0  0  0  0  0
   -0.9354    1.5142   -1.5385 O   0  0  0  0  0  0  0  0  0  0  0  0
   -1.4904   -0.2650   -0.0364 C   0  0  0  0  0  0  0  0  0  0  0  0
   -2.2127   -0.6700    0.9586 C   0  0  0  0  0  0  0  0  0  0  0  0
   -3.2014    0.3726    1.4870 C   0  0  0  0  0  0  0  0  0  0  0  0
   -2.0882   -1.8913    1.6948 N   0  0  0  0  0  0  0  0  0  0  0  0
   -1.0212   -2.7323    1.2731 C   0  0  0  0  0  0  0  0  0  0  0  0
   -0.8467   -3.8686    1.8824 O   0  0  0  0  0  0  0  0  0  0  0  0
   -0.2329   -2.2936    0.2416 N   0  0  0  0  0  0  0  0  0  0  0  0
   -0.5920   -1.3038   -0.7638 C   0  0  2  0  0  0  0  0  0  0  0  0
    0.7398   -0.4861   -0.9747 C   0  0  0  0  0  0  0  0  0  0  0  0
    1.3412   -0.5538   -2.1950 C   0  0  0  0  0  0  0  0  0  0  0  0
    0.8618   -1.2937   -3.2658 O   0  0  0  0  0  0  0  0  0  0  0  0
    2.5309    0.1564   -2.4361 C   0  0  0  0  0  0  0  0  0  0  0  0
    3.0404    0.8989   -1.4110 C   0  0  0  0  0  0  0  0  0  0  0  0
    2.4346    0.9602   -0.1994 C   0  0  0  0  0  0  0  0  0  0  0  0
    2.9994    1.7305    0.8011 C   0  0  0  0  0  0  0  0  0  0  0  0
    2.3649    1.7828    2.0392 C   0  0  0  0  0  0  0  0  0  0  0  0
    1.1981    1.0840    2.2698 C   0  0  0  0  0  0  0  0  0  0  0  0
    0.6809    0.3310    1.2309 C   0  0  0  0  0  0  0  0  0  0  0  0
    1.2727    0.2540    0.0034 C   0  0  0  0  0  0  0  0  0  0  0  0
  1  2  1  0
  2  3  1  0
  3  4  2  0
  3  5  1  0
  5  6  2  0
  6  7  1  0
  6  8  1  0
  8  9  1  0
  9 10  2  0
  9 11  1  0
 11 12  1  0
 12 13  1  1
 13 14  2  0
 14 15  1  0
 14 16  1  0
 16 17  2  0
 17 18  1  0
 18 19  2  0
 19 20  1  0
 20 21  2  0
 21 22  1  0
 22 23  2  0
 12  5  1  0
 23 13  1  0
 23 18  1  0
M  END
>  <zinc_id>  (1) 
ZINC000000284075

>  <smiles>  (1) 
COC(=O)C1=C(C)NC(=O)N[C@@H]1c1c(O)ccc2ccccc12

$$$$
