
     RDKit          3D

 21 23  0  0  0  0  0  0  0  0999 V2000
   -3.9784   -2.7567    0.2798 C   0  0  0  0  0  0  0  0  0  0  0  0
   -3.3529   -1.9480   -0.5605 C   0  0  0  0  0  0  0  0  0  0  0  0
   -2.8519   -2.5063   -1.8383 C   0  0  0  0  0  0  0  0  0  0  0  0
   -3.1792   -0.5418   -0.2528 C   0  0  0  0  0  0  0  0  0  0  0  0
   -1.8170   -0.0315   -0.1001 C   0  0  0  0  0  0  0  0  0  0  0  0
   -1.6916    1.3496    0.0975 C   0  0  0  0  0  0  0  0  0  0  0  0
   -2.9012    2.2089    0.1350 C   0  0  0  0  0  0  0  0  0  0  0  0
   -0.4692    1.9600    0.2624 C   0  0  0  0  0  0  0  0  0  0  0  0
   -0.3559    3.3782    0.4656 C   0  0  0  0  0  0  0  0  0  0  0  0
   -0.2733    4.5307    0.6311 N   0  0  0  0  0  0  0  0  0  0  0  0
    0.7004    1.2023    0.2361 C   0  0  0  0  0  0  0  0  0  0  0  0
    1.9980    1.5289    0.3665 N   0  0  0  0  0  0  0  0  0  0  0  0
    2.7337    0.4124    0.2617 C   0  0  0  0  0  0  0  0  0  0  0  0
    4.0706    0.1057    0.3087 C   0  0  0  0  0  0  0  0  0  0  0  0
    4.4733   -1.1966    0.1566 C   0  0  0  0  0  0  0  0  0  0  0  0
    3.5850   -2.2382   -0.0456 C   0  0  0  0  0  0  0  0  0  0  0  0
    2.2529   -1.9131   -0.0897 C   0  0  0  0  0  0  0  0  0  0  0  0
    1.8293   -0.6143    0.0614 C   0  0  0  0  0  0  0  0  0  0  0  0
    0.5582   -0.1136    0.0463 N   0  0  0  0  0  0  0  0  0  0  0  0
   -0.6496   -0.7236   -0.1172 C   0  0  0  0  0  0  0  0  0  0  0  0
   -0.6812   -2.0930   -0.3047 O   0  0  0  0  0  0  0  0  0  0  0  0
  1  2  2  0
  2  3  1  0
  2  4  1  0
  4  5  1  0
  5  6  1  0
  6  7  1  0
  6  8  2  0
  8  9  1  0
  9 10  3  0
  8 11  1  0
 11 12  2  0
 12 13  1  0
 13 14  2  0
 14 15  1  0
 15 16  2  0
 16 17  1  0
 17 18  2  0
 18 19  1  0
 19 20  1  0
 20 21  1  0
 20  5  2  0
 19 11  1  0
 18 13  1  0
M  END
>  <zinc_id>  (1) 
ZINC000000390202

>  <smiles>  (1) 
C=C(C)Cc1c(C)c(C#N)c2nc3ccccc3n2c1O

$$$$
