
     RDKit          3D

 22 24  0  0  0  0  0  0  0  0999 V2000
    6.5941   -0.1435   -1.7437 C   0  0  0  0  0  0  0  0  0  0  0  0
    5.9904    0.1053   -0.4893 O   0  0  0  0  0  0  0  0  0  0  0  0
    4.5976    0.0938   -0.3310 C   0  0  0  0  0  0  0  0  0  0  0  0
    4.0113    0.3363    0.8912 C   0  0  0  0  0  0  0  0  0  0  0  0
    2.6352    0.3243    1.0447 C   0  0  0  0  0  0  0  0  0  0  0  0
    1.7862    0.0706   -0.0112 C   0  0  0  0  0  0  0  0  0  0  0  0
    0.3380    0.0606    0.1628 C   0  0  0  0  0  0  0  0  0  0  0  0
   -0.4481   -0.1816   -0.8487 O   0  0  0  0  0  0  0  0  0  0  0  0
   -1.7674   -0.2088   -0.7746 C   0  0  0  0  0  0  0  0  0  0  0  0
   -2.5304   -0.4784   -1.9177 C   0  0  0  0  0  0  0  0  0  0  0  0
   -3.9064   -0.5119   -1.8647 C   0  0  0  0  0  0  0  0  0  0  0  0
   -4.7247   -0.8024   -3.0965 C   0  0  0  0  0  0  0  0  0  0  0  0
   -4.5110   -0.2715   -0.6498 C   0  0  0  0  0  0  0  0  0  0  0  0
   -3.7939   -0.0029    0.4954 C   0  0  0  0  0  0  0  0  0  0  0  0
   -4.4145    0.2587    1.8115 C   0  0  0  0  0  0  0  0  0  0  0  0
   -2.4114    0.0263    0.4212 C   0  0  0  0  0  0  0  0  0  0  0  0
   -1.6326    0.2902    1.5350 C   0  0  0  0  0  0  0  0  0  0  0  0
   -2.2007    0.5074    2.6357 O   0  0  0  0  0  0  0  0  0  0  0  0
   -0.2695    0.3000    1.3733 C   0  0  0  0  0  0  0  0  0  0  0  0
    0.5394    0.5604    2.4664 O   0  0  0  0  0  0  0  0  0  0  0  0
    2.3688   -0.1727   -1.2364 C   0  0  0  0  0  0  0  0  0  0  0  0
    3.7496   -0.1601   -1.3878 C   0  0  0  0  0  0  0  0  0  0  0  0
  1  2  1  0
  2  3  1  0
  3  4  2  0
  4  5  1  0
  5  6  2  0
  6  7  1  0
  7  8  1  0
  8  9  1  0
  9 10  2  0
 10 11  1  0
 11 12  1  0
 11 13  2  0
 13 14  1  0
 14 15  1  0
 14 16  2  0
 16 17  1  0
 17 18  2  0
 17 19  1  0
 19 20  1  0
  6 21  1  0
 21 22  2  0
 22  3  1  0
 19  7  2  0
 16  9  1  0
M  END
>  <zinc_id>  (1) 
ZINC000001292227

>  <smiles>  (1) 
COc1ccc(-c2oc3cc(C)cc(C)c3c(=O)c2O)cc1

$$$$
