
     RDKit          3D

 20 21  0  0  0  0  0  0  0  0999 V2000
    2.3463   -0.2417    2.3120 C   0  0  0  0  0  0  0  0  0  0  0  0
    3.6174    0.6549    1.7717 C   0  0  2  0  0  0  0  0  0  0  0  0
    2.7727    1.3040    0.5366 C   0  0  0  0  0  0  0  0  0  0  0  0
    1.9514    0.2935   -0.1009 C   0  0  0  0  0  0  0  0  0  0  0  0
    0.5231    0.2902   -0.1227 N   0  0  0  0  0  0  0  0  0  0  0  0
   -0.1421   -0.8247   -0.6432 N   0  0  0  0  0  0  0  0  0  0  0  0
   -1.5772   -0.7970   -0.6055 C   0  0  0  0  0  0  0  0  0  0  0  0
   -2.2976   -1.8700   -1.1051 C   0  0  0  0  0  0  0  0  0  0  0  0
   -3.6725   -1.8469   -1.0707 C   0  0  0  0  0  0  0  0  0  0  0  0
   -4.3607   -0.7649   -0.5428 C   0  0  0  0  0  0  0  0  0  0  0  0
   -3.6653    0.3095   -0.0421 C   0  0  0  0  0  0  0  0  0  0  0  0
   -4.3421    1.4229    0.5006 N   0  0  0  0  0  4  0  0  0  0  0  0
   -3.7405    2.4047    0.9587 O   0  0  0  0  0  0  0  0  0  0  0  0
   -5.7072    1.4194    0.5222 O   0  0  0  0  0  1  0  0  0  0  0  0
   -2.2873    0.2535   -0.0923 C   0  0  0  0  0  0  0  0  0  0  0  0
    2.6639   -0.6680   -0.6867 C   0  0  0  0  0  0  0  0  0  0  0  0
    4.1446   -0.3889   -0.4922 C   0  0  0  0  0  0  0  0  0  0  0  0
    5.0018   -1.3853   -1.1855 C   0  0  0  0  0  0  0  0  0  0  0  0
    4.4624    1.0301   -0.8999 C   0  0  0  0  0  0  0  0  0  0  0  0
    4.3089   -0.5954    0.9878 C   0  0  0  0  0  0  0  0  0  0  0  0
  2  1  1  1
  2  3  1  0
  3  4  1  0
  4  5  1  0
  5  6  1  0
  6  7  1  0
  7  8  2  0
  8  9  1  0
  9 10  2  0
 10 11  1  0
 11 12  1  0
 12 13  2  0
 12 14  1  0
 11 15  2  0
  4 16  2  0
 16 17  1  0
 17 18  1  0
 17 19  1  0
 17 20  1  0
 20  2  1  0
 15  7  1  0
M  CHG  2  12   1  14  -1
M  END
>  <zinc_id>  (1) 
ZINC000003241273

>  <smiles>  (1) 
C[C@@H]1CC(NNc2cccc([N+](=O)[O-])c2)=CC(C)(C)C1

$$$$
