
     RDKit          3D

 19 20  0  0  0  0  0  0  0  0999 V2000
    5.9273   -1.7205   -1.5849 C   0  0  0  0  0  0  0  0  0  0  0  0
    4.6938   -1.6028   -0.9418 O   0  0  0  0  0  0  0  0  0  0  0  0
    4.0867   -0.3670   -0.8581 C   0  0  0  0  0  0  0  0  0  0  0  0
    4.6439    0.6186   -1.3538 O   0  0  0  0  0  0  0  0  0  0  0  0
    2.7915   -0.2213   -0.1873 C   0  0  0  0  0  0  0  0  0  0  0  0
    2.1395   -1.2812    0.3744 C   0  0  0  0  0  0  0  0  0  0  0  0
    0.9219   -1.0833    0.9929 C   0  0  0  0  0  0  0  0  0  0  0  0
    0.3263    0.1681    1.0673 C   0  0  0  0  0  0  0  0  0  0  0  0
   -1.2457    0.4159    1.8675 S   0  0  0  0  0  0  0  0  0  0  0  0
   -2.6021    0.2219    0.7194 C   0  0  0  0  0  0  0  0  0  0  0  0
   -3.2113   -0.9961    0.4993 C   0  0  0  0  0  0  0  0  0  0  0  0
   -4.2576   -1.1508   -0.3849 C   0  0  0  0  0  0  0  0  0  0  0  0
   -4.7397   -0.0608   -1.0958 C   0  0  0  0  0  0  0  0  0  0  0  0
   -5.8664   -0.1886   -2.0582 C   0  0  0  0  0  0  0  0  0  0  0  0
   -4.1318    1.1578   -0.8771 C   0  0  0  0  0  0  0  0  0  0  0  0
   -3.0847    1.3064    0.0095 C   0  0  0  0  0  0  0  0  0  0  0  0
    0.9816    1.2166    0.5061 C   0  0  0  0  0  0  0  0  0  0  0  0
    0.4327    2.5456    0.5399 N   0  0  0  0  0  0  0  0  0  0  0  0
    2.1944    1.0216   -0.1104 C   0  0  0  0  0  0  0  0  0  0  0  0
  1  2  1  0
  2  3  1  0
  3  4  2  0
  3  5  1  0
  5  6  2  0
  6  7  1  0
  7  8  2  0
  8  9  1  0
  9 10  1  0
 10 11  2  0
 11 12  1  0
 12 13  2  0
 13 14  1  0
 13 15  1  0
 15 16  2  0
  8 17  1  0
 17 18  1  0
 17 19  2  0
 19  5  1  0
 16 10  1  0
M  END
>  <zinc_id>  (1) 
ZINC000000259547

>  <smiles>  (1) 
COC(=O)c1ccc(Sc2ccc(C)cc2)c(N)c1

$$$$
