
     RDKit          3D

 19 21  0  0  0  0  0  0  0  0999 V2000
    6.1829   -0.9954   -0.3955 C   0  0  0  0  0  0  0  0  0  0  0  0
    5.7903    0.3997    0.0948 C   0  0  0  0  0  0  0  0  0  0  0  0
    4.2338    0.5656   -0.4805 C   0  0  2  0  0  0  0  0  0  0  0  0
    4.0741    2.0876    0.1672 C   0  0  0  0  0  0  0  0  0  0  0  0
    3.6118   -0.1272    0.8012 N   0  0  0  0  0  0  0  0  0  0  0  0
    2.2088   -0.2415    0.8083 C   0  0  0  0  0  0  0  0  0  0  0  0
    1.2328    0.0830    0.0087 N   0  0  0  0  0  0  0  0  0  0  0  0
   -0.0083   -0.1878    0.3530 C   0  0  0  0  0  0  0  0  0  0  0  0
   -1.2142    0.1345   -0.4781 C   0  0  0  0  0  0  0  0  0  0  0  0
   -1.2318    0.7525   -1.7113 C   0  0  0  0  0  0  0  0  0  0  0  0
   -2.5313    0.8568   -2.1233 N   0  0  0  0  0  0  0  0  0  0  0  0
   -3.3454    0.3337   -1.2099 C   0  0  0  0  0  0  0  0  0  0  0  0
   -4.7137    0.1916   -1.1421 C   0  0  0  0  0  0  0  0  0  0  0  0
   -5.3140   -0.4003   -0.0580 C   0  0  0  0  0  0  0  0  0  0  0  0
   -4.5157   -0.8532    0.9692 C   0  0  0  0  0  0  0  0  0  0  0  0
   -3.1512   -0.7080    0.8946 C   0  0  0  0  0  0  0  0  0  0  0  0
   -2.5298   -0.1164   -0.1855 C   0  0  0  0  0  0  0  0  0  0  0  0
   -0.1941   -0.8110    1.5646 C   0  0  0  0  0  0  0  0  0  0  0  0
    1.4150   -0.9642    2.1226 S   0  0  0  0  0  0  0  0  0  0  0  0
  1  2  1  0
  2  3  1  0
  3  4  1  1
  3  5  1  0
  5  6  1  0
  6  7  2  0
  7  8  1  0
  8  9  1  0
  9 10  2  0
 10 11  1  0
 11 12  1  0
 12 13  2  0
 13 14  1  0
 14 15  2  0
 15 16  1  0
 16 17  2  0
  8 18  2  0
 18 19  1  0
 19  6  1  0
 17  9  1  0
 17 12  1  0
M  END
>  <zinc_id>  (1) 
ZINC000003351617

>  <smiles>  (1) 
CC[C@H](C)Nc1nc(-c2c[nH]c3ccccc23)cs1

$$$$
