
     RDKit          3D

 21 23  0  0  0  0  0  0  0  0999 V2000
   -3.0965    3.2845    0.5415 N   0  0  0  0  0  0  0  0  0  0  0  0
   -2.2380    2.1507    0.3625 C   0  0  0  0  0  0  0  0  0  0  0  0
   -1.0137    2.3351    0.4433 O   0  0  0  0  0  0  0  0  0  0  0  0
   -2.8408    0.8562    0.0980 C   0  0  0  0  0  0  0  0  0  0  0  0
   -4.2325    0.7180    0.0194 C   0  0  0  0  0  0  0  0  0  0  0  0
   -4.8197   -0.5006   -0.2303 C   0  0  0  0  0  0  0  0  0  0  0  0
   -4.0107   -1.6044   -0.4056 C   0  0  0  0  0  0  0  0  0  0  0  0
   -2.6401   -1.4581   -0.3263 C   0  0  0  0  0  0  0  0  0  0  0  0
   -2.0375   -0.2275   -0.0737 C   0  0  0  0  0  0  0  0  0  0  0  0
   -0.5938   -0.1803   -0.0100 N   0  0  0  0  0  0  0  0  0  0  0  0
    0.1703   -1.3490   -0.1993 C   0  0  0  0  0  0  0  0  0  0  0  0
   -0.4673   -2.4086   -0.4216 O   0  0  0  0  0  0  0  0  0  0  0  0
    1.6657   -1.3762   -0.1475 C   0  0  0  0  0  0  0  0  0  0  0  0
    2.3557   -2.5477   -0.3407 C   0  0  0  0  0  0  0  0  0  0  0  0
    3.9823   -2.1054   -0.1959 S   0  0  0  0  0  0  0  0  0  0  0  0
    3.7782   -0.4471    0.1069 C   0  0  0  0  0  0  0  0  0  0  0  0
    2.4219   -0.2682    0.0888 C   0  0  0  0  0  0  0  0  0  0  0  0
    1.9717    1.1720    0.3419 C   0  0  0  0  0  0  0  0  0  0  0  0
    2.7236    1.5866    1.5894 C   0  0  0  0  0  0  0  0  0  0  0  0
    4.1986    1.6601    1.3800 C   0  0  0  0  0  0  0  0  0  0  0  0
    4.7225    0.7099    0.3592 C   0  0  0  0  0  0  0  0  0  0  0  0
  1  2  1  0
  2  3  2  0
  2  4  1  0
  4  5  2  0
  5  6  1  0
  6  7  2  0
  7  8  1  0
  8  9  2  0
  9 10  1  0
 10 11  1  0
 11 12  2  0
 11 13  1  0
 13 14  2  0
 14 15  1  0
 15 16  1  0
 16 17  2  0
 17 18  1  0
 18 19  1  0
 19 20  1  0
 20 21  1  0
  9  4  1  0
 17 13  1  0
 21 16  1  0
M  END
>  <zinc_id>  (1) 
ZINC000002764567

>  <smiles>  (1) 
NC(=O)c1ccccc1NC(=O)c1csc2c1CCCC2

$$$$
