
     RDKit          3D

 20 21  0  0  0  0  0  0  0  0999 V2000
   -1.6287    4.1744   -0.1827 C   0  0  0  0  0  0  0  0  0  0  0  0
   -2.3064    3.1408    0.7016 C   0  0  0  0  0  0  0  0  0  0  0  0
   -1.8933    1.8582    0.3737 O   0  0  0  0  0  0  0  0  0  0  0  0
   -0.6355    1.3230    0.3937 C   0  0  0  0  0  0  0  0  0  0  0  0
    0.5229    2.0079    0.7617 C   0  0  0  0  0  0  0  0  0  0  0  0
    1.7470    1.3793    0.7555 C   0  0  0  0  0  0  0  0  0  0  0  0
    1.8799    0.0391    0.3839 C   0  0  0  0  0  0  0  0  0  0  0  0
    3.1923   -0.6813    0.3851 C   0  0  0  0  0  0  0  0  0  0  0  0
    3.3354   -1.4551   -0.9107 C   0  0  0  0  0  0  0  0  0  0  0  0
    3.1867   -1.6792    1.5556 C   0  0  0  0  0  0  0  0  0  0  0  0
    4.3458    0.2718    0.5047 C   0  0  0  0  0  0  0  0  0  0  0  0
    4.4149    1.2804   -0.6005 C   0  0  0  0  0  0  0  0  0  0  0  0
    0.7187   -0.6237    0.0251 C   0  0  0  0  0  0  0  0  0  0  0  0
   -0.5145   -0.0076    0.0260 C   0  0  0  0  0  0  0  0  0  0  0  0
   -1.6956   -0.7834   -0.3587 C   0  0  0  0  0  0  0  0  0  0  0  0
   -1.6520   -2.1153   -0.6956 C   0  0  0  0  0  0  0  0  0  0  0  0
   -2.9530   -2.5065   -1.0124 C   0  0  0  0  0  0  0  0  0  0  0  0
   -3.4045   -3.8074   -1.4462 N   0  0  0  0  0  0  0  0  0  0  0  0
   -3.7017   -1.4238   -0.8502 O   0  0  0  0  0  0  0  0  0  0  0  0
   -2.9582   -0.3918   -0.4604 N   0  0  0  0  0  0  0  0  0  0  0  0
  1  2  1  0
  2  3  1  0
  3  4  1  0
  4  5  2  0
  5  6  1  0
  6  7  2  0
  7  8  1  0
  8  9  1  0
  8 10  1  0
  8 11  1  0
 11 12  1  0
  7 13  1  0
 13 14  2  0
 14 15  1  0
 15 16  1  0
 16 17  2  0
 17 18  1  0
 17 19  1  0
 19 20  1  0
 14  4  1  0
 20 15  2  0
M  END
>  <zinc_id>  (1) 
ZINC000003704590

>  <smiles>  (1) 
CCOc1ccc(C(C)(C)CC)cc1-c1cc(N)on1

$$$$
