
     RDKit          3D

 22 24  0  0  0  0  0  0  0  0999 V2000
   -1.0241    0.9883   -0.9754 O   0  0  0  0  0  0  0  0  0  0  0  0
   -1.4610    0.3214   -0.0102 C   0  0  0  0  0  0  0  0  0  0  0  0
   -0.5155   -0.1350    1.0256 C   0  0  0  0  0  0  0  0  0  0  0  0
    0.8642    0.3239    0.6869 C   0  0  0  0  0  0  0  0  0  0  0  0
    1.3609    1.5354    1.1203 C   0  0  0  0  0  0  0  0  0  0  0  0
    2.6348    1.9631    0.8097 C   0  0  0  0  0  0  0  0  0  0  0  0
    3.4732    1.1905    0.0457 C   0  0  0  0  0  0  0  0  0  0  0  0
    2.9843   -0.0222   -0.3916 C   0  0  0  0  0  0  0  0  0  0  0  0
    1.7108   -0.4527   -0.0826 C   0  0  0  0  0  0  0  0  0  0  0  0
    3.6952   -0.9359   -1.1765 O   0  0  0  0  0  0  0  0  0  0  0  0
    5.0725   -1.0596   -1.4628 C   0  0  0  0  0  0  0  0  0  0  0  0
    5.7308    0.2723   -1.7246 C   0  0  0  0  0  0  0  0  0  0  0  0
    5.9419    1.0620   -0.4357 C   0  0  0  0  0  0  0  0  0  0  0  0
    4.7278    1.7570   -0.1831 O   0  0  0  0  0  0  0  0  0  0  0  0
   -2.8861    0.0389    0.0248 C   0  0  0  0  0  0  0  0  0  0  0  0
   -3.7521    0.4745   -0.9530 C   0  0  0  0  0  0  0  0  0  0  0  0
   -5.1020    0.2063   -0.9188 C   0  0  0  0  0  0  0  0  0  0  0  0
   -5.6232   -0.5258    0.1283 C   0  0  0  0  0  0  0  0  0  0  0  0
   -6.9808   -0.8112    0.1884 O   0  0  0  0  0  0  0  0  0  0  0  0
   -4.7791   -0.9644    1.1043 C   0  0  0  0  0  0  0  0  0  0  0  0
   -3.4183   -0.6922    1.0670 C   0  0  0  0  0  0  0  0  0  0  0  0
   -2.6542   -1.1881    2.1132 O   0  0  0  0  0  0  0  0  0  0  0  0
  1  2  2  0
  2  3  1  0
  3  4  1  0
  4  5  2  0
  5  6  1  0
  6  7  2  0
  7  8  1  0
  8  9  2  0
  8 10  1  0
 10 11  1  0
 11 12  1  0
 12 13  1  0
 13 14  1  0
  2 15  1  0
 15 16  2  0
 16 17  1  0
 17 18  2  0
 18 19  1  0
 18 20  1  0
 20 21  2  0
 21 22  1  0
  9  4  1  0
 21 15  1  0
 14  7  1  0
M  END
>  <zinc_id>  (1) 
ZINC000000238473

>  <smiles>  (1) 
O=C(Cc1ccc2c(c1)OCCCO2)c1ccc(O)cc1O

$$$$
