
     RDKit          3D

 20 21  0  0  0  0  0  0  0  0999 V2000
   -4.2048   -0.3047    1.6040 C   0  0  0  0  0  0  0  0  0  0  0  0
   -4.2420    0.0292    0.1707 C   0  0  0  0  0  0  0  0  0  0  0  0
   -5.3534    0.1409   -0.4009 O   0  0  0  0  0  0  0  0  0  0  0  0
   -2.9929    0.2236   -0.5563 C   0  0  0  0  0  0  0  0  0  0  0  0
   -2.8458    0.5406   -1.9013 C   0  0  0  0  0  0  0  0  0  0  0  0
   -4.0029    0.7315   -2.8165 C   0  0  0  0  0  0  0  0  0  0  0  0
   -1.5237    0.6310   -2.1772 N   0  0  0  0  0  0  0  0  0  0  0  0
   -0.7907    0.3898   -1.0826 C   0  0  0  0  0  0  0  0  0  0  0  0
    0.6735    0.3864   -0.9445 C   0  0  0  0  0  0  0  0  0  0  0  0
    1.4348    0.6223   -1.8905 O   0  0  0  0  0  0  0  0  0  0  0  0
    1.2482    0.1019    0.3218 N   0  0  0  0  0  0  0  0  0  0  0  0
    2.6282    0.0700    0.5747 C   0  0  0  0  0  0  0  0  0  0  0  0
    3.5564    0.3128   -0.3869 C   0  0  0  0  0  0  0  0  0  0  0  0
    4.8986    0.2755   -0.1140 C   0  0  0  0  0  0  0  0  0  0  0  0
    5.3187   -0.0180    1.1778 C   0  0  0  0  0  0  0  0  0  0  0  0
    4.3845   -0.2665    2.1629 C   0  0  0  0  0  0  0  0  0  0  0  0
    3.0381   -0.2234    1.8653 C   0  0  0  0  0  0  0  0  0  0  0  0
    1.8565   -0.5431    3.1345 Cl  0  0  0  0  0  0  0  0  0  0  0  0
   -1.7011    0.1372   -0.0777 C   0  0  0  0  0  0  0  0  0  0  0  0
   -1.3802   -0.1867    1.3366 C   0  0  0  0  0  0  0  0  0  0  0  0
  1  2  1  0
  2  3  2  0
  2  4  1  0
  4  5  2  0
  5  6  1  0
  5  7  1  0
  7  8  1  0
  8  9  1  0
  9 10  2  0
  9 11  1  0
 11 12  1  0
 12 13  2  0
 13 14  1  0
 14 15  2  0
 15 16  1  0
 16 17  2  0
 17 18  1  0
  8 19  2  0
 19 20  1  0
 19  4  1  0
 17 12  1  0
M  END
>  <zinc_id>  (1) 
ZINC000003330631

>  <smiles>  (1) 
CC(=O)c1c(C)[nH]c(C(=O)Nc2ccccc2Cl)c1C

$$$$
