
     RDKit          3D

 19 21  0  0  0  0  0  0  0  0999 V2000
    4.3991   -1.0000   -0.6465 C   0  0  0  0  0  0  0  0  0  0  0  0
    4.9989    0.1437   -0.8494 C   0  0  0  0  0  0  0  0  0  0  0  0
    4.4228    1.4711   -0.5406 C   0  0  0  0  0  0  0  0  0  0  0  0
    3.1181    1.2855    0.0088 N   0  0  0  0  0  0  0  0  0  0  0  0
    2.0481    0.6444   -0.6702 C   0  0  0  0  0  0  0  0  0  0  0  0
    2.1700    0.1458   -1.9128 N   0  0  0  0  0  0  0  0  0  0  0  0
    1.1359   -0.4559   -2.5275 C   0  0  0  0  0  0  0  0  0  0  0  0
   -0.0802   -0.5904   -1.9267 N   0  0  0  0  0  0  0  0  0  0  0  0
   -0.2515   -0.1066   -0.6810 C   0  0  0  0  0  0  0  0  0  0  0  0
    0.8264    0.5183   -0.0457 C   0  0  0  0  0  0  0  0  0  0  0  0
    0.4457    0.9249    1.1786 N   0  0  0  0  0  0  0  0  0  0  0  0
   -0.8516    0.5843    1.3644 C   0  0  0  0  0  0  0  0  0  0  0  0
   -1.7607    0.7339    2.3912 C   0  0  0  0  0  0  0  0  0  0  0  0
   -3.0669    0.2690    2.2964 C   0  0  0  0  0  0  0  0  0  0  0  0
   -3.4827   -0.3695    1.1335 C   0  0  0  0  0  0  0  0  0  0  0  0
   -4.7913   -0.8109    1.0949 O   0  0  0  0  0  0  0  0  0  0  0  0
   -5.3859   -1.4708    0.0166 C   0  0  0  0  0  0  0  0  0  0  0  0
   -2.5941   -0.5311    0.0943 C   0  0  0  0  0  0  0  0  0  0  0  0
   -1.3000   -0.0560    0.2216 C   0  0  0  0  0  0  0  0  0  0  0  0
  1  2  2  0
  2  3  1  0
  3  4  1  0
  4  5  1  0
  5  6  2  0
  6  7  1  0
  7  8  2  0
  8  9  1  0
  9 10  2  0
 10 11  1  0
 11 12  1  0
 12 13  2  0
 13 14  1  0
 14 15  2  0
 15 16  1  0
 16 17  1  0
 15 18  1  0
 18 19  2  0
 10  5  1  0
 19 12  1  0
 19  9  1  0
M  END
>  <zinc_id>  (1) 
ZINC000002434806

>  <smiles>  (1) 
C=CCNc1ncnc2c1[nH]c1ccc(OC)cc12

$$$$
