
     RDKit          3D

 21 23  0  0  0  0  0  0  0  0999 V2000
   -2.9335   -3.2360   -0.0751 C   0  0  0  0  0  0  0  0  0  0  0  0
   -2.8512   -1.7600    0.0250 C   0  0  0  0  0  0  0  0  0  0  0  0
   -4.0386   -1.0379    0.1796 C   0  0  0  0  0  0  0  0  0  0  0  0
   -3.9531    0.3372    0.2721 C   0  0  0  0  0  0  0  0  0  0  0  0
   -2.7389    0.9721    0.2138 C   0  0  0  0  0  0  0  0  0  0  0  0
   -1.5939    0.2819    0.0652 N   0  0  0  0  0  0  0  0  0  0  0  0
   -0.3267    0.6957   -0.0138 C   0  0  0  0  0  0  0  0  0  0  0  0
    0.2289    1.9934    0.0326 N   0  0  0  0  0  0  0  0  0  0  0  0
   -0.5336    3.1958    0.1856 C   0  0  0  0  0  0  0  0  0  0  0  0
    0.4196    4.3686    0.1887 C   0  0  0  0  0  0  0  0  0  0  0  0
   -1.4134    3.3220   -1.0654 C   0  0  0  0  0  0  0  0  0  0  0  0
    0.4423   -0.4518   -0.1633 C   0  0  0  0  0  0  0  0  0  0  0  0
    1.9035   -0.4907   -0.2918 C   0  0  0  0  0  0  0  0  0  0  0  0
    2.6219    0.6878   -0.2680 C   0  0  0  0  0  0  0  0  0  0  0  0
    3.9949    0.6034   -0.3922 C   0  0  0  0  0  0  0  0  0  0  0  0
    4.6379   -0.6068   -0.5354 C   0  0  0  0  0  0  0  0  0  0  0  0
    3.8850   -1.7583   -0.5543 C   0  0  0  0  0  0  0  0  0  0  0  0
    2.5306   -1.6997   -0.4336 C   0  0  0  0  0  0  0  0  0  0  0  0
    1.7717   -2.8610   -0.4527 O   0  0  0  0  0  0  0  0  0  0  0  0
   -0.3896   -1.4968   -0.1676 N   0  0  0  0  0  0  0  0  0  0  0  0
   -1.6638   -1.0592   -0.0262 C   0  0  0  0  0  0  0  0  0  0  0  0
  1  2  1  0
  2  3  2  0
  3  4  1  0
  4  5  2  0
  5  6  1  0
  6  7  1  0
  7  8  1  0
  8  9  1  0
  9 10  1  0
  9 11  1  0
  7 12  2  0
 12 13  1  0
 13 14  2  0
 14 15  1  0
 15 16  2  0
 16 17  1  0
 17 18  2  0
 18 19  1  0
 12 20  1  0
 20 21  2  0
 21  2  1  0
 21  6  1  0
 18 13  1  0
M  END
>  <zinc_id>  (1) 
ZINC000000413684

>  <smiles>  (1) 
Cc1cccn2c(NC(C)C)c(-c3ccccc3O)nc12

$$$$
