
     RDKit          3D

 18 19  0  0  0  0  0  0  0  0999 V2000
   -6.1592    1.7343    0.0223 C   0  0  0  0  0  0  0  0  0  0  0  0
   -5.6001    0.4798   -0.2352 O   0  0  0  0  0  0  0  0  0  0  0  0
   -4.2366    0.2269   -0.2406 C   0  0  0  0  0  0  0  0  0  0  0  0
   -3.3311    1.2283    0.0151 C   0  0  0  0  0  0  0  0  0  0  0  0
   -1.9808    0.9969    0.0140 C   0  0  0  0  0  0  0  0  0  0  0  0
   -1.5131   -0.2586   -0.2471 C   0  0  0  0  0  0  0  0  0  0  0  0
   -0.0415   -0.5414   -0.2552 C   0  0  0  0  0  0  0  0  0  0  0  0
    0.3515   -1.7595   -0.5108 C   0  0  0  0  0  0  0  0  0  0  0  0
    2.0651   -2.1680   -0.5377 S   0  0  0  0  0  0  0  0  0  0  0  0
    2.9277   -0.6487   -0.1686 C   0  0  0  0  0  0  0  0  0  0  0  0
    4.3301   -0.5858   -0.1024 N   0  0  0  0  0  0  0  0  0  0  0  0
    5.0563    0.6354    0.2547 C   0  0  0  0  0  0  0  0  0  0  0  0
    4.6738    1.6841   -0.7944 C   0  0  0  0  0  0  0  0  0  0  0  0
    6.5301    0.4105    0.2076 C   0  0  0  0  0  0  0  0  0  0  0  0
    2.2206    0.4002    0.0378 N   0  0  0  0  0  0  0  0  0  0  0  0
    0.8614    0.4909    0.0074 N   0  0  0  0  0  0  0  0  0  0  0  0
   -2.3964   -1.2734   -0.5051 C   0  0  0  0  0  0  0  0  0  0  0  0
   -3.7578   -1.0521   -0.5066 C   0  0  0  0  0  0  0  0  0  0  0  0
  1  2  1  0
  2  3  1  0
  3  4  2  0
  4  5  1  0
  5  6  2  0
  6  7  1  0
  7  8  2  0
  8  9  1  0
  9 10  1  0
 10 11  1  0
 11 12  1  0
 12 13  1  0
 12 14  1  0
 10 15  2  0
 15 16  1  0
  6 17  1  0
 17 18  2  0
 18  3  1  0
 16  7  1  0
M  END
>  <zinc_id>  (1) 
ZINC000003322345

>  <smiles>  (1) 
COc1ccc(C2=CSC(NC(C)C)=NN2)cc1

$$$$
