
     RDKit          3D

 20 22  0  0  0  0  0  0  0  0999 V2000
   -0.9534   -3.1502    0.4954 C   0  0  0  0  0  0  0  0  0  0  0  0
   -1.6802   -1.8853    0.2309 C   0  0  0  0  0  0  0  0  0  0  0  0
   -2.9774   -1.7250   -0.1150 N   0  0  0  0  0  0  0  0  0  0  0  0
   -3.2907   -0.4390   -0.2470 C   0  0  0  0  0  0  0  0  0  0  0  0
   -4.4623    0.2520   -0.5799 C   0  0  0  0  0  0  0  0  0  0  0  0
   -4.4670    1.6135   -0.6337 C   0  0  0  0  0  0  0  0  0  0  0  0
   -3.3321    2.3631   -0.3660 C   0  0  0  0  0  0  0  0  0  0  0  0
   -2.1900    1.6621   -0.0403 C   0  0  0  0  0  0  0  0  0  0  0  0
   -2.1613    0.2739    0.0208 C   0  0  0  0  0  0  0  0  0  0  0  0
   -1.1405   -0.6463    0.3231 C   0  0  0  0  0  0  0  0  0  0  0  0
    0.1930   -0.1651    0.6267 C   0  0  0  0  0  0  0  0  0  0  0  0
    1.3239   -0.5745    0.1016 C   0  0  0  0  0  0  0  0  0  0  0  0
    1.2753   -1.6082   -0.8888 C   0  0  0  0  0  0  0  0  0  0  0  0
    1.2531   -2.4289   -1.7099 N   0  0  0  0  0  0  0  0  0  0  0  0
    2.6186    0.0127    0.5183 C   0  0  0  0  0  0  0  0  0  0  0  0
    3.6556   -0.4297   -0.0286 O   0  0  0  0  0  0  0  0  0  0  0  0
    2.7132    1.0240    1.4833 N   0  0  0  0  0  0  0  0  0  0  0  0
    3.9586    1.6226    1.9170 C   0  0  0  0  0  0  0  0  0  0  0  0
    4.4505    2.7891    1.0403 C   0  0  0  0  0  0  0  0  0  0  0  0
    5.2132    1.4392    1.1649 C   0  0  0  0  0  0  0  0  0  0  0  0
  1  2  1  0
  2  3  1  0
  3  4  1  0
  4  5  2  0
  5  6  1  0
  6  7  2  0
  7  8  1  0
  8  9  2  0
  9 10  1  0
 10 11  1  0
 11 12  2  0
 12 13  1  0
 13 14  3  0
 12 15  1  0
 15 16  2  0
 15 17  1  0
 17 18  1  0
 18 19  1  0
 19 20  1  0
 10  2  2  0
 20 18  1  0
  9  4  1  0
M  END
>  <zinc_id>  (1) 
ZINC000001456701

>  <smiles>  (1) 
Cc1[nH]c2ccccc2c1/C=C(\C#N)C(=O)NC1CC1

$$$$
