
     RDKit          3D

 17 17  0  0  0  0  0  0  0  0999 V2000
    4.2636   -0.6359   -0.9044 C   0  0  0  0  0  0  0  0  0  0  0  0
    3.5657    0.6789   -0.5946 C   0  0  0  0  0  0  0  0  0  0  0  0
    3.5987    1.4937   -1.8631 C   0  0  0  0  0  0  0  0  0  0  0  0
    4.2403    1.3672    0.5649 C   0  0  0  0  0  0  0  0  0  0  0  0
    2.1444    0.3358   -0.2605 C   0  0  0  0  0  0  0  0  0  0  0  0
    1.2538    0.8346   -0.9758 O   0  0  0  0  0  0  0  0  0  0  0  0
    1.7969   -0.5035    0.7999 N   0  0  0  0  0  0  0  0  0  0  0  0
    0.4934   -0.8681    1.1733 C   0  0  0  0  0  0  0  0  0  0  0  0
    0.4871   -1.8971    2.5037 S   0  0  0  0  0  0  0  0  0  0  0  0
   -0.6368   -0.5181    0.6387 N   0  0  0  0  0  0  0  0  0  0  0  0
   -1.7887   -0.1614    0.0938 C   0  0  0  0  0  0  0  0  0  0  0  0
   -1.9052    0.6818   -0.9859 C   0  0  0  0  0  0  0  0  0  0  0  0
   -3.0970    1.0643   -1.5633 C   0  0  0  0  0  0  0  0  0  0  0  0
   -4.2532    0.5585   -1.0105 C   0  0  0  0  0  0  0  0  0  0  0  0
   -4.2198   -0.2911    0.0712 C   0  0  0  0  0  0  0  0  0  0  0  0
   -3.0059   -0.6388    0.6063 C   0  0  0  0  0  0  0  0  0  0  0  0
   -2.9372   -1.5008    1.7062 O   0  0  0  0  0  0  0  0  0  0  0  0
  1  2  1  0
  2  3  1  0
  2  4  1  0
  2  5  1  0
  5  6  2  0
  5  7  1  0
  7  8  1  0
  8  9  2  0
  8 10  1  0
 10 11  1  0
 11 12  2  0
 12 13  1  0
 13 14  2  0
 14 15  1  0
 15 16  2  0
 16 17  1  0
 16 11  1  0
M  END
>  <zinc_id>  (1) 
ZINC000000114841

>  <smiles>  (1) 
CC(C)(C)C(=O)NC(=S)Nc1ccccc1O

$$$$
