
     RDKit          3D

 20 22  0  0  0  0  0  0  0  0999 V2000
    7.3422   -0.3088   -0.7228 C   0  0  0  0  0  0  0  0  0  0  0  0
    6.9336    0.3429    0.3850 C   0  0  0  0  0  0  0  0  0  0  0  0
    5.4778    0.5049    0.6987 C   0  0  0  0  0  0  0  0  0  0  0  0
    4.7263   -0.1383   -0.3616 N   0  0  0  0  0  0  0  0  0  0  0  0
    3.3363   -0.1409   -0.3266 C   0  0  0  0  0  0  0  0  0  0  0  0
    2.7480    0.0681    0.7878 N   0  0  0  0  0  0  0  0  0  0  0  0
    1.3950    0.0964    0.9832 N   0  0  0  0  0  0  0  0  0  0  0  0
    0.3822   -0.0948    0.0183 C   0  0  0  0  0  0  0  0  0  0  0  0
   -1.0419   -0.0270    0.4233 C   0  0  0  0  0  0  0  0  0  0  0  0
   -1.3517    0.2215    1.7344 C   0  0  0  0  0  0  0  0  0  0  0  0
   -2.6832    0.2949    2.1657 C   0  0  0  0  0  0  0  0  0  0  0  0
   -3.6865    0.1068    1.2164 C   0  0  0  0  0  0  0  0  0  0  0  0
   -3.3833   -0.1423   -0.0977 C   0  0  0  0  0  0  0  0  0  0  0  0
   -2.0657   -0.2063   -0.4788 C   0  0  0  0  0  0  0  0  0  0  0  0
   -4.3777   -0.3268   -1.0282 O   0  0  0  0  0  0  0  0  0  0  0  0
   -5.7603   -0.2311   -0.7044 C   0  0  0  0  0  0  0  0  0  0  0  0
   -5.9417    0.5786    0.5636 C   0  0  0  0  0  0  0  0  0  0  0  0
   -5.0318    0.1672    1.5795 O   0  0  0  0  0  0  0  0  0  0  0  0
    0.6486   -0.3360   -1.2532 C   0  0  0  0  0  0  0  0  0  0  0  0
    2.3336   -0.4288   -1.7978 S   0  0  0  0  0  0  0  0  0  0  0  0
  1  2  2  0
  2  3  1  0
  3  4  1  0
  4  5  1  0
  5  6  2  0
  6  7  1  0
  7  8  1  0
  8  9  1  0
  9 10  2  0
 10 11  1  0
 11 12  2  0
 12 13  1  0
 13 14  2  0
 13 15  1  0
 15 16  1  0
 16 17  1  0
 17 18  1  0
  8 19  2  0
 19 20  1  0
 20  5  1  0
 14  9  1  0
 18 12  1  0
M  END
>  <zinc_id>  (1) 
ZINC000003340227

>  <smiles>  (1) 
C=CCNC1=NNC(c2ccc3c(c2)OCCO3)=CS1

$$$$
