
     RDKit          3D

 21 23  0  0  0  0  0  0  0  0999 V2000
    0.1283   -3.6593    0.0642 N   0  0  0  0  0  0  0  0  0  0  0  0
   -0.6921   -2.5276    0.4241 C   0  0  0  0  0  0  0  0  0  0  0  0
   -2.0560   -2.5132    1.4413 S   0  0  0  0  0  0  0  0  0  0  0  0
   -2.4477   -0.8601    1.3634 C   0  0  0  0  0  0  0  0  0  0  0  0
   -1.4831   -0.3539    0.5281 C   0  0  0  0  0  0  0  0  0  0  0  0
   -0.5770   -1.2134    0.0431 C   0  0  0  0  0  0  0  0  0  0  0  0
    0.5381   -0.8337   -0.8765 C   0  0  0  0  0  0  0  0  0  0  0  0
    1.3529   -1.6624   -1.3001 O   0  0  0  0  0  0  0  0  0  0  0  0
    0.6889    0.5175   -1.2925 N   0  0  0  0  0  0  0  0  0  0  0  0
    1.7314    0.9757   -2.1752 C   0  0  0  0  0  0  0  0  0  0  0  0
    3.0324    0.6792   -1.5326 C   0  0  0  0  0  0  0  0  0  0  0  0
    3.8188   -0.4434   -1.6239 C   0  0  0  0  0  0  0  0  0  0  0  0
    4.9228   -0.2110   -0.8325 C   0  0  0  0  0  0  0  0  0  0  0  0
    4.7785    1.0282   -0.2902 C   0  0  0  0  0  0  0  0  0  0  0  0
    3.6568    1.5035   -0.7325 O   0  0  0  0  0  0  0  0  0  0  0  0
   -1.2981    1.0873    0.0662 C   0  0  0  0  0  0  0  0  0  0  0  0
   -2.5763    1.6073   -0.5452 C   0  0  0  0  0  0  0  0  0  0  0  0
   -3.6093    1.8841    0.5218 C   0  0  0  0  0  0  0  0  0  0  0  0
   -2.8738    1.9978    1.8435 C   0  0  0  0  0  0  0  0  0  0  0  0
   -3.4100    0.9517    2.7684 C   0  0  0  0  0  0  0  0  0  0  0  0
   -3.6256   -0.3810    2.1372 C   0  0  0  0  0  0  0  0  0  0  0  0
  1  2  1  0
  2  3  1  0
  3  4  1  0
  4  5  2  0
  5  6  1  0
  6  7  1  0
  7  8  2  0
  7  9  1  0
  9 10  1  0
 10 11  1  0
 11 12  2  0
 12 13  1  0
 13 14  2  0
 14 15  1  0
  5 16  1  0
 16 17  1  0
 17 18  1  0
 18 19  1  0
 19 20  1  0
 20 21  1  0
  6  2  2  0
 15 11  1  0
 21  4  1  0
M  END
>  <zinc_id>  (1) 
ZINC000002558531

>  <smiles>  (1) 
Nc1sc2c(c1C(=O)NCc1ccco1)CCCCCC2

$$$$
