
     RDKit          3D

 21 23  0  0  0  0  0  0  0  0999 V2000
    6.0879    0.5587   -0.8244 C   0  0  0  0  0  0  0  0  0  0  0  0
    5.0559   -0.2142   -1.3662 O   0  0  0  0  0  0  0  0  0  0  0  0
    3.8562   -0.4888   -0.7156 C   0  0  0  0  0  0  0  0  0  0  0  0
    3.5282   -0.0463    0.5248 C   0  0  0  0  0  0  0  0  0  0  0  0
    2.3050   -0.3891    1.0592 C   0  0  0  0  0  0  0  0  0  0  0  0
    1.3890   -1.1714    0.3807 C   0  0  0  0  0  0  0  0  0  0  0  0
    0.0750   -1.5244    0.9863 C   0  0  0  0  0  0  0  0  0  0  0  0
   -0.8748   -0.4954    0.6140 N   0  0  0  0  0  0  0  0  0  0  0  0
   -1.1438    0.6513    1.3087 C   0  0  0  0  0  0  0  0  0  0  0  0
   -0.5295    1.0207    2.5179 N   0  0  0  0  0  0  0  0  0  0  0  0
   -2.1015    1.3710    0.6359 C   0  0  0  0  0  0  0  0  0  0  0  0
   -2.6875    2.6230    0.9837 C   0  0  0  0  0  0  0  0  0  0  0  0
   -3.1562    3.6596    1.2606 N   0  0  0  0  0  0  0  0  0  0  0  0
   -2.4039    0.6293   -0.4832 C   0  0  0  0  0  0  0  0  0  0  0  0
   -1.6304   -0.5343   -0.4847 C   0  0  0  0  0  0  0  0  0  0  0  0
   -1.8037   -1.4656   -1.5998 C   0  0  0  0  0  0  0  0  0  0  0  0
   -3.2211   -1.6570   -2.0258 C   0  0  0  0  0  0  0  0  0  0  0  0
   -4.0909   -0.4577   -1.8173 C   0  0  0  0  0  0  0  0  0  0  0  0
   -3.3323    0.8189   -1.6108 C   0  0  0  0  0  0  0  0  0  0  0  0
    1.7264   -1.6143   -0.8699 C   0  0  0  0  0  0  0  0  0  0  0  0
    2.9521   -1.2740   -1.4120 C   0  0  0  0  0  0  0  0  0  0  0  0
  1  2  1  0
  2  3  1  0
  3  4  2  0
  4  5  1  0
  5  6  2  0
  6  7  1  0
  7  8  1  0
  8  9  1  0
  9 10  1  0
  9 11  2  0
 11 12  1  0
 12 13  3  0
 11 14  1  0
 14 15  2  0
 15 16  1  0
 16 17  1  0
 17 18  1  0
 18 19  1  0
  6 20  1  0
 20 21  2  0
 21  3  1  0
 15  8  1  0
 19 14  1  0
M  END
>  <zinc_id>  (1) 
ZINC000000169549

>  <smiles>  (1) 
COc1ccc(Cn2c(N)c(C#N)c3c2CCCC3)cc1

$$$$
