
     RDKit          3D

 21 23  0  0  0  0  0  0  0  0999 V2000
   -6.1900    0.9955    1.7944 C   0  0  0  0  0  0  0  0  0  0  0  0
   -5.2069   -0.0114    1.6596 O   0  0  0  0  0  0  0  0  0  0  0  0
   -3.9965    0.3696    1.0442 C   0  0  0  0  0  0  0  0  0  0  0  0
   -3.7833    1.6380    0.6026 C   0  0  0  0  0  0  0  0  0  0  0  0
   -2.6006    2.0046    0.0029 C   0  0  0  0  0  0  0  0  0  0  0  0
   -1.6011    1.0733   -0.1598 C   0  0  0  0  0  0  0  0  0  0  0  0
   -0.3591    1.1171   -0.6949 N   0  0  0  0  0  0  0  0  0  0  0  0
    0.1959   -0.1026   -0.5904 C   0  0  0  0  0  0  0  0  0  0  0  0
    1.4299   -0.5726   -0.9798 C   0  0  0  0  0  0  0  0  0  0  0  0
    2.3239    0.3388   -1.6090 N   0  0  0  0  0  0  0  0  0  0  0  0
    3.6444   -0.0687   -2.0522 C   0  0  0  0  0  0  0  0  0  0  0  0
    4.3799   -0.5539   -0.8014 C   0  0  0  0  0  0  0  0  0  0  0  0
    4.4760    0.5631    0.2180 C   0  0  0  0  0  0  0  0  0  0  0  0
    5.2157   -0.0043    1.4181 C   0  0  0  0  0  0  0  0  0  0  0  0
    5.3227    1.6537   -0.3767 C   0  0  0  0  0  0  0  0  0  0  0  0
    1.7514   -1.8692   -0.7556 N   0  0  0  0  0  0  0  0  0  0  0  0
    0.8522   -2.6914   -0.1489 C   0  0  0  0  0  0  0  0  0  0  0  0
   -0.3551   -2.2392    0.2342 N   0  0  0  0  0  0  0  0  0  0  0  0
   -0.6799   -0.9733    0.0199 C   0  0  0  0  0  0  0  0  0  0  0  0
   -1.8228   -0.2113    0.2899 C   0  0  0  0  0  0  0  0  0  0  0  0
   -2.9968   -0.5739    0.8849 C   0  0  0  0  0  0  0  0  0  0  0  0
  1  2  1  0
  2  3  1  0
  3  4  2  0
  4  5  1  0
  5  6  2  0
  6  7  1  0
  7  8  1  0
  8  9  2  0
  9 10  1  0
 10 11  1  0
 11 12  1  0
 12 13  1  0
 13 14  1  0
 13 15  1  0
  9 16  1  0
 16 17  2  0
 17 18  1  0
 18 19  2  0
 19 20  1  0
 20 21  2  0
 21  3  1  0
 20  6  1  0
 19  8  1  0
M  END
>  <zinc_id>  (1) 
ZINC000000538311

>  <smiles>  (1) 
COc1ccc2[nH]c3c(NCCC(C)C)ncnc3c2c1

$$$$
