
     RDKit          3D

 20 22  0  0  0  0  0  0  0  0999 V2000
   -0.6772   -1.9944   -1.6494 C   0  0  0  0  0  0  0  0  0  0  0  0
   -0.3302   -1.1929   -0.1396 C   0  0  2  0  0  0  0  0  0  0  0  0
   -1.3011   -0.0047   -0.5588 C   0  0  0  0  0  0  0  0  0  0  0  0
   -1.1160    0.9873   -1.4328 C   0  0  0  0  0  0  0  0  0  0  0  0
   -2.1946    1.7821   -1.3709 N   0  0  0  0  0  0  0  0  0  0  0  0
   -3.1058    1.2990   -0.4366 C   0  0  0  0  0  0  0  0  0  0  0  0
   -4.3786    1.7052   -0.0750 C   0  0  0  0  0  0  0  0  0  0  0  0
   -5.1410    0.9639    0.8632 C   0  0  0  0  0  0  0  0  0  0  0  0
   -4.5641   -0.1818    1.3993 C   0  0  0  0  0  0  0  0  0  0  0  0
   -3.2702   -0.5594    0.9968 C   0  0  0  0  0  0  0  0  0  0  0  0
   -2.5101    0.1505    0.0773 C   0  0  0  0  0  0  0  0  0  0  0  0
    1.0143   -0.5677   -0.8896 C   0  0  1  0  0  0  0  0  0  0  0  0
    1.7674    0.4529    0.5109 S   0  0  0  0  0  0  0  0  0  0  0  0
    3.4586   -0.0219    0.0294 C   0  0  0  0  0  0  0  0  0  0  0  0
    4.6265    0.7020    0.2434 N   0  0  0  0  0  0  0  0  0  0  0  0
    4.9325    1.9627   -0.4214 C   0  0  0  0  0  0  0  0  0  0  0  0
    5.6160    0.1734    1.1864 C   0  0  0  0  0  0  0  0  0  0  0  0
    3.3465   -1.1420   -0.5543 N   0  0  0  0  0  0  0  0  0  0  0  0
    2.0675   -1.6747   -0.6846 C   0  0  0  0  0  0  0  0  0  0  0  0
    1.7597   -2.8394   -0.6555 O   0  0  0  0  0  0  0  0  0  0  0  0
  2  1  1  6
  2  3  1  0
  3  4  2  0
  4  5  1  0
  5  6  1  0
  6  7  2  0
  7  8  1  0
  8  9  2  0
  9 10  1  0
 10 11  2  0
  2 12  1  0
 12 13  1  1
 13 14  1  0
 14 15  1  0
 15 16  1  0
 15 17  1  0
 14 18  2  0
 18 19  1  0
 19 20  2  0
 11  3  1  0
 19 12  1  0
 11  6  1  0
M  END
>  <zinc_id>  (1) 
ZINC000003590135

>  <smiles>  (1) 
C[C@H](c1c[nH]c2ccccc12)[C@H]1SC(N(C)C)=NC1=O

$$$$
