
     RDKit          3D

 20 22  0  0  0  0  0  0  0  0999 V2000
   -3.1100   -0.6294   -3.2049 C   0  0  0  0  0  0  0  0  0  0  0  0
   -2.2374   -0.0657   -2.2397 O   0  0  0  0  0  0  0  0  0  0  0  0
   -2.3209   -0.5310   -0.9317 C   0  0  0  0  0  0  0  0  0  0  0  0
   -3.2200   -1.5071   -0.5771 C   0  0  0  0  0  0  0  0  0  0  0  0
   -3.3049   -1.9663    0.7027 C   0  0  0  0  0  0  0  0  0  0  0  0
   -2.4852   -1.4572    1.6697 C   0  0  0  0  0  0  0  0  0  0  0  0
   -1.5750   -0.4713    1.3181 C   0  0  0  0  0  0  0  0  0  0  0  0
   -1.4651    0.0111    0.0422 C   0  0  0  0  0  0  0  0  0  0  0  0
   -0.5743    1.0729   -0.3831 C   0  0  0  0  0  0  0  0  0  0  0  0
   -1.1027    1.9596   -1.1004 O   0  0  0  0  0  0  0  0  0  0  0  0
    0.8689    1.1465   -0.0207 C   0  0  0  0  0  0  0  0  0  0  0  0
    1.6006    2.2508   -0.4386 C   0  0  0  0  0  0  0  0  0  0  0  0
    1.1273    3.4055   -1.1809 N   0  0  0  0  0  0  0  0  0  0  0  0
    3.1715    1.9305    0.1271 S   0  0  0  0  0  0  0  0  0  0  0  0
    2.9135    0.4508    0.8668 C   0  0  0  0  0  0  0  0  0  0  0  0
    1.5576    0.2090    0.6603 C   0  0  0  0  0  0  0  0  0  0  0  0
    1.0477   -1.1151    1.2335 C   0  0  0  0  0  0  0  0  0  0  0  0
    1.9788   -2.2053    0.9551 C   0  0  0  0  0  0  0  0  0  0  0  0
    3.4254   -1.8823    0.8745 C   0  0  0  0  0  0  0  0  0  0  0  0
    3.7043   -0.6061    1.6271 C   0  0  0  0  0  0  0  0  0  0  0  0
  1  2  1  0
  2  3  1  0
  3  4  2  0
  4  5  1  0
  5  6  2  0
  6  7  1  0
  7  8  2  0
  8  9  1  0
  9 10  2  0
  9 11  1  0
 11 12  2  0
 12 13  1  0
 12 14  1  0
 14 15  1  0
 15 16  2  0
 16 17  1  0
 17 18  1  0
 18 19  1  0
 19 20  1  0
  8  3  1  0
 16 11  1  0
 20 15  1  0
M  END
>  <zinc_id>  (1) 
ZINC000000415535

>  <smiles>  (1) 
COc1ccccc1C(=O)c1c(N)sc2c1CCCC2

$$$$
