
     RDKit          3D

 19 21  0  0  0  0  0  0  0  0999 V2000
   -0.4221   -1.2493   -1.4025 C   0  0  0  0  0  0  0  0  0  0  0  0
    0.7936   -1.0609   -1.7108 N   0  0  0  0  0  0  0  0  0  0  0  0
    1.4427    0.1620   -1.4021 N   0  0  0  0  0  0  0  0  0  0  0  0
    2.3189    0.2906   -0.3064 C   0  0  0  0  0  0  0  0  0  0  0  0
    2.0549   -0.5179    0.6620 N   0  0  0  0  0  0  0  0  0  0  0  0
    2.7279   -0.6860    1.9541 C   0  0  0  0  0  0  0  0  0  0  0  0
    3.9656    0.1892    2.0036 C   0  0  0  0  0  0  0  0  0  0  0  0
    4.9738   -0.1919    0.9699 C   0  0  0  0  0  0  0  0  0  0  0  0
    4.7221    0.4782   -0.3534 C   0  0  0  0  0  0  0  0  0  0  0  0
    3.4202    1.2862   -0.3359 C   0  0  0  0  0  0  0  0  0  0  0  0
   -1.1307   -0.1734   -0.7226 C   0  0  0  0  0  0  0  0  0  0  0  0
   -0.7043    1.0623   -0.3373 C   0  0  0  0  0  0  0  0  0  0  0  0
   -1.7382    1.6757    0.2512 N   0  0  0  0  0  0  0  0  0  0  0  0
   -2.8162    0.8803    0.2596 C   0  0  0  0  0  0  0  0  0  0  0  0
   -4.1001    1.0406    0.7368 C   0  0  0  0  0  0  0  0  0  0  0  0
   -5.0092    0.0147    0.5941 C   0  0  0  0  0  0  0  0  0  0  0  0
   -4.6643   -1.1695   -0.0155 C   0  0  0  0  0  0  0  0  0  0  0  0
   -3.3858   -1.3321   -0.4919 C   0  0  0  0  0  0  0  0  0  0  0  0
   -2.4486   -0.2935   -0.3528 C   0  0  0  0  0  0  0  0  0  0  0  0
  1  2  2  0
  2  3  1  0
  3  4  1  0
  4  5  2  0
  5  6  1  0
  6  7  1  0
  7  8  1  0
  8  9  1  0
  9 10  1  0
  1 11  1  0
 11 12  2  0
 12 13  1  0
 13 14  1  0
 14 15  2  0
 15 16  1  0
 16 17  2  0
 17 18  1  0
 18 19  2  0
 10  4  1  0
 19 11  1  0
 19 14  1  0
M  END
>  <zinc_id>  (1) 
ZINC000004459057

>  <smiles>  (1) 
C(=N\NC1=NCCCCC1)\c1c[nH]c2ccccc12

$$$$
