
     RDKit          3D

 22 24  0  0  0  0  0  0  0  0999 V2000
    5.2651    2.9128    2.2956 C   0  0  0  0  0  0  0  0  0  0  0  0
    4.8791    1.8706    1.4118 O   0  0  0  0  0  0  0  0  0  0  0  0
    3.5490    1.6348    1.0967 C   0  0  0  0  0  0  0  0  0  0  0  0
    2.5155    2.3845    1.6124 C   0  0  0  0  0  0  0  0  0  0  0  0
    1.2053    2.1043    1.2624 C   0  0  0  0  0  0  0  0  0  0  0  0
    0.8684    1.0640    0.3841 C   0  0  0  0  0  0  0  0  0  0  0  0
   -0.5229    0.8342    0.0297 C   0  0  0  0  0  0  0  0  0  0  0  0
   -1.1336   -0.3179    0.0017 C   0  0  0  0  0  0  0  0  0  0  0  0
   -0.5157   -1.5982    0.3314 C   0  0  0  0  0  0  0  0  0  0  0  0
    0.6614   -1.8407    0.7034 O   0  0  0  0  0  0  0  0  0  0  0  0
   -1.5432   -2.5628    0.1453 N   0  0  0  0  0  0  0  0  0  0  0  0
   -2.7444   -1.9489   -0.2752 C   0  0  0  0  0  0  0  0  0  0  0  0
   -3.9894   -2.4388   -0.5837 C   0  0  0  0  0  0  0  0  0  0  0  0
   -5.0362   -1.6454   -0.9849 C   0  0  0  0  0  0  0  0  0  0  0  0
   -4.8310   -0.2697   -1.0871 C   0  0  0  0  0  0  0  0  0  0  0  0
   -5.9611    0.5813   -1.5245 C   0  0  0  0  0  0  0  0  0  0  0  0
   -3.5823    0.2133   -0.7765 C   0  0  0  0  0  0  0  0  0  0  0  0
   -2.5289   -0.5750   -0.3734 C   0  0  0  0  0  0  0  0  0  0  0  0
    1.9205    0.3297   -0.1173 C   0  0  0  0  0  0  0  0  0  0  0  0
    3.2389    0.6151    0.2366 C   0  0  0  0  0  0  0  0  0  0  0  0
    4.3036   -0.1414   -0.2829 O   0  0  0  0  0  0  0  0  0  0  0  0
    3.9817   -1.2059   -1.1801 C   0  0  0  0  0  0  0  0  0  0  0  0
  1  2  1  0
  2  3  1  0
  3  4  2  0
  4  5  1  0
  5  6  2  0
  6  7  1  0
  7  8  2  0
  8  9  1  0
  9 10  2  0
  9 11  1  0
 11 12  1  0
 12 13  2  0
 13 14  1  0
 14 15  2  0
 15 16  1  0
 15 17  1  0
 17 18  2  0
  6 19  1  0
 19 20  2  0
 20 21  1  0
 21 22  1  0
 20  3  1  0
 18  8  1  0
 18 12  1  0
M  END
>  <zinc_id>  (1) 
ZINC000002939083

>  <smiles>  (1) 
COc1ccc(/C=C2\C(=O)Nc3ccc(C)cc32)cc1OC

$$$$
