
     RDKit          3D

 21 23  0  0  0  0  0  0  0  0999 V2000
   -4.6656    3.2798   -0.3512 C   0  0  0  0  0  0  0  0  0  0  0  0
   -3.2470    2.8129   -0.7036 C   0  0  0  0  0  0  0  0  0  0  0  0
   -3.1380    1.4649   -0.2848 O   0  0  0  0  0  0  0  0  0  0  0  0
   -1.9811    0.7178   -0.4492 C   0  0  0  0  0  0  0  0  0  0  0  0
   -1.0427    1.3394   -0.9990 O   0  0  0  0  0  0  0  0  0  0  0  0
   -1.8792   -0.6957   -0.0059 C   0  0  0  0  0  0  0  0  0  0  0  0
   -0.7851   -1.4920   -0.1289 C   0  0  0  0  0  0  0  0  0  0  0  0
    0.5402   -0.8478   -0.8276 C   0  0  2  0  0  0  0  0  0  0  0  0
    1.5484   -2.1567   -0.6444 C   0  0  0  0  0  0  0  0  0  0  0  0
    2.8283   -1.6101   -0.8517 O   0  0  0  0  0  0  0  0  0  0  0  0
    3.2371   -0.4050   -0.3315 C   0  0  0  0  0  0  0  0  0  0  0  0
    4.4906    0.1265   -0.4725 C   0  0  0  0  0  0  0  0  0  0  0  0
    4.8123    1.3534    0.0896 C   0  0  0  0  0  0  0  0  0  0  0  0
    3.8927    2.0899    0.8111 C   0  0  0  0  0  0  0  0  0  0  0  0
    2.6161    1.5377    0.9487 C   0  0  0  0  0  0  0  0  0  0  0  0
    2.3159    0.3281    0.3887 C   0  0  0  0  0  0  0  0  0  0  0  0
    1.0353   -0.2136    0.5336 O   0  0  0  0  0  0  0  0  0  0  0  0
   -0.8774   -2.7405    0.3297 C   0  0  0  0  0  0  0  0  0  0  0  0
   -2.4717   -2.8740    0.9496 S   0  0  0  0  0  0  0  0  0  0  0  0
   -2.9636   -1.2916    0.5879 C   0  0  0  0  0  0  0  0  0  0  0  0
   -4.2654   -0.7234    0.8634 N   0  0  0  0  0  0  0  0  0  0  0  0
  1  2  1  0
  2  3  1  0
  3  4  1  0
  4  5  2  0
  4  6  1  0
  6  7  1  0
  8  7  1  1
  8  9  1  0
  9 10  1  0
 10 11  1  0
 11 12  2  0
 12 13  1  0
 13 14  2  0
 14 15  1  0
 15 16  2  0
 16 17  1  0
  7 18  2  0
 18 19  1  0
 19 20  1  0
 20 21  1  0
 20  6  2  0
 17  8  1  0
 16 11  1  0
M  END
>  <zinc_id>  (1) 
ZINC000000287363

>  <smiles>  (1) 
CCOC(=O)c1c([C@@H]2COc3ccccc3O2)csc1N

$$$$
