
     RDKit          3D

 20 22  0  0  0  0  0  0  0  0999 V2000
   -1.3746    1.5222    0.2321 C   0  0  0  0  0  0  0  0  0  0  0  0
   -1.8485    0.1418   -0.0943 C   0  0  0  0  0  0  0  0  0  0  0  0
   -0.9321   -0.8826   -0.1344 C   0  0  0  0  0  0  0  0  0  0  0  0
    0.5034   -0.6133    0.1662 C   0  0  0  0  0  0  0  0  0  0  0  0
    1.2729   -1.5923    0.1900 O   0  0  0  0  0  0  0  0  0  0  0  0
    0.9706    0.6734    0.4179 N   0  0  0  0  0  0  0  0  0  0  0  0
    2.4350    0.9675    0.7469 C   0  0  2  0  0  0  0  0  0  0  0  0
    2.8971    1.3678   -0.7454 C   0  0  0  0  0  0  0  0  0  0  0  0
    4.4616    0.8438   -0.6315 C   0  0  1  0  0  0  0  0  0  0  0  0
    4.6703    0.9509    0.9994 C   0  0  0  0  0  0  0  0  0  0  0  0
    4.4060   -0.3380    1.5371 C   0  0  0  0  0  0  0  0  0  0  0  0
    2.9959   -0.6329    0.7448 C   0  0  2  0  0  0  0  0  0  0  0  0
    3.8024   -0.6488   -0.6450 C   0  0  0  0  0  0  0  0  0  0  0  0
   -1.3559   -2.1584   -0.4381 C   0  0  0  0  0  0  0  0  0  0  0  0
   -2.7167   -2.3625   -0.6962 C   0  0  0  0  0  0  0  0  0  0  0  0
   -3.6148   -1.3163   -0.6490 C   0  0  0  0  0  0  0  0  0  0  0  0
   -3.2116   -0.0272   -0.3461 C   0  0  0  0  0  0  0  0  0  0  0  0
   -4.1205    1.0624   -0.2670 N   0  0  0  0  0  4  0  0  0  0  0  0
   -3.8429    2.2358   -0.5504 O   0  0  0  0  0  0  0  0  0  0  0  0
   -5.3975    0.8064    0.1628 O   0  0  0  0  0  1  0  0  0  0  0  0
  1  2  1  0
  2  3  2  0
  3  4  1  0
  4  5  2  0
  4  6  1  0
  7  6  1  6
  7  8  1  0
  9  8  1  1
  9 10  1  0
 10 11  1  0
 12 11  1  1
 12 13  1  0
  3 14  1  0
 14 15  2  0
 15 16  1  0
 16 17  2  0
 17 18  1  0
 18 19  2  0
 18 20  1  0
 17  2  1  0
 12  7  1  0
 13  9  1  0
M  CHG  2  18   1  20  -1
M  END
>  <zinc_id>  (1) 
ZINC000000454156

>  <smiles>  (1) 
Cc1c(C(=O)N[C@@H]2C[C@H]3CC[C@@H]2C3)cccc1[N+](=O)[O-]

$$$$
