
     RDKit          3D

 21 23  0  0  0  0  0  0  0  0999 V2000
   -5.5081    0.6031    0.9015 C   0  0  0  0  0  0  0  0  0  0  0  0
   -4.0772    0.4925    0.3908 C   0  0  0  0  0  0  0  0  0  0  0  0
   -3.5966    1.8602   -0.1125 C   0  0  0  0  0  0  0  0  0  0  0  0
   -3.1475    0.0980    1.5109 C   0  0  0  0  0  0  0  0  0  0  0  0
   -1.7743    0.1121    1.0044 C   0  0  0  0  0  0  0  0  0  0  0  0
   -0.8656    0.6511    1.6976 O   0  0  0  0  0  0  0  0  0  0  0  0
   -1.4859   -0.4979   -0.2950 C   0  0  0  0  0  0  0  0  0  0  0  0
   -0.3033   -0.9169   -0.9099 C   0  0  0  0  0  0  0  0  0  0  0  0
    1.0358   -0.7464   -0.3850 C   0  0  0  0  0  0  0  0  0  0  0  0
    1.7393   -1.7926   -0.0715 O   0  0  0  0  0  0  0  0  0  0  0  0
    1.6837    0.5111   -0.1774 N   0  0  0  0  0  0  0  0  0  0  0  0
    3.0049    0.5759    0.3478 C   0  0  0  0  0  0  0  0  0  0  0  0
    3.6406    1.7826    0.4540 C   0  0  0  0  0  0  0  0  0  0  0  0
    4.9349    1.8058    1.0073 C   0  0  0  0  0  0  0  0  0  0  0  0
    5.5598    0.6753    1.4317 C   0  0  0  0  0  0  0  0  0  0  0  0
    4.8796   -0.5472    1.3072 C   0  0  0  0  0  0  0  0  0  0  0  0
    3.6111   -0.5768    0.7665 C   0  0  0  0  0  0  0  0  0  0  0  0
   -0.7231   -1.4597   -2.1005 C   0  0  0  0  0  0  0  0  0  0  0  0
   -2.0561   -1.3708   -2.1896 N   0  0  0  0  0  0  0  0  0  0  0  0
   -2.5750   -0.7736   -1.0763 C   0  0  0  0  0  0  0  0  0  0  0  0
   -3.9769   -0.4859   -0.7301 C   0  0  0  0  0  0  0  0  0  0  0  0
  1  2  1  0
  2  3  1  0
  2  4  1  0
  4  5  1  0
  5  6  2  0
  5  7  1  0
  7  8  1  0
  8  9  1  0
  9 10  2  0
  9 11  1  0
 11 12  1  0
 12 13  2  0
 13 14  1  0
 14 15  2  0
 15 16  1  0
 16 17  2  0
  8 18  2  0
 18 19  1  0
 19 20  1  0
 20 21  1  0
 21  2  1  0
 20  7  2  0
 17 12  1  0
M  END
>  <zinc_id>  (1) 
ZINC000000022646

>  <smiles>  (1) 
CC1(C)CC(=O)c2c(C(=O)Nc3ccccc3)c[nH]c2C1

$$$$
