
     RDKit          3D

 21 23  0  0  0  0  0  0  0  0999 V2000
    5.6692    2.3387    0.1839 C   0  0  0  0  0  0  0  0  0  0  0  0
    4.4756    1.7318    0.4493 O   0  0  0  0  0  0  0  0  0  0  0  0
    4.0589    0.4727    0.2235 C   0  0  0  0  0  0  0  0  0  0  0  0
    4.8363   -0.5249   -0.3500 C   0  0  0  0  0  0  0  0  0  0  0  0
    4.2902   -1.7594   -0.5479 C   0  0  0  0  0  0  0  0  0  0  0  0
    2.9423   -2.0474   -0.1914 C   0  0  0  0  0  0  0  0  0  0  0  0
    2.1962   -1.0512    0.3696 C   0  0  0  0  0  0  0  0  0  0  0  0
    0.7504   -1.1293    0.7854 C   0  0  0  0  0  0  0  0  0  0  0  0
    0.1249   -1.5403   -0.5678 N   0  0  0  0  0  0  0  0  0  0  0  0
   -1.1916   -0.9025   -0.6587 C   0  0  0  0  0  0  0  0  0  0  0  0
   -2.1699   -1.6255   -1.2158 C   0  0  0  0  0  0  0  0  0  0  0  0
   -3.4725   -1.1877   -1.2323 C   0  0  0  0  0  0  0  0  0  0  0  0
   -3.7367    0.0528   -0.6561 C   0  0  0  0  0  0  0  0  0  0  0  0
   -2.7652    0.8138   -0.0926 C   0  0  0  0  0  0  0  0  0  0  0  0
   -1.4435    0.3592   -0.0779 C   0  0  0  0  0  0  0  0  0  0  0  0
   -3.3973    1.9520    0.3312 N   0  0  0  0  0  0  0  0  0  0  0  0
   -4.7284    1.8585    0.0114 C   0  0  0  0  0  0  0  0  0  0  0  0
   -4.9306    0.7103   -0.5836 N   0  0  0  0  0  0  0  0  0  0  0  0
   -6.2149    0.1078   -1.0240 C   0  0  0  0  0  0  0  0  0  0  0  0
    2.7380    0.1863    0.5897 C   0  0  0  0  0  0  0  0  0  0  0  0
    1.9686    1.1844    1.1946 O   0  0  0  0  0  0  0  0  0  0  0  0
  1  2  1  0
  2  3  1  0
  3  4  2  0
  4  5  1  0
  5  6  2  0
  6  7  1  0
  7  8  1  0
  8  9  1  0
  9 10  1  0
 10 11  2  0
 11 12  1  0
 12 13  2  0
 13 14  1  0
 14 15  2  0
 14 16  1  0
 16 17  2  0
 17 18  1  0
 18 19  1  0
  7 20  2  0
 20 21  1  0
 20  3  1  0
 15 10  1  0
 18 13  1  0
M  END
>  <zinc_id>  (1) 
ZINC000000423349

>  <smiles>  (1) 
COc1cccc(CNc2ccc3c(c2)ncn3C)c1O

$$$$
