
     RDKit          3D

 18 19  0  0  0  0  0  0  0  0999 V2000
   -0.5119   -1.5333    1.1109 S   0  0  0  0  0  0  0  0  0  0  0  0
   -0.0238   -0.0316    0.7344 C   0  0  0  0  0  0  0  0  0  0  0  0
   -0.9572    1.0342    0.7058 N   0  0  0  0  0  0  0  0  0  0  0  0
   -2.3339    0.7909    1.0088 C   0  0  0  0  0  0  0  0  0  0  0  0
   -3.2564    1.7966    0.9896 C   0  0  0  0  0  0  0  0  0  0  0  0
   -4.5629    1.4908    1.2914 C   0  0  0  0  0  0  0  0  0  0  0  0
   -4.9347    0.2084    1.6046 C   0  0  0  0  0  0  0  0  0  0  0  0
   -4.0165   -0.7711    1.6196 N   0  0  0  0  0  0  0  0  0  0  0  0
   -2.7510   -0.4806    1.3284 C   0  0  0  0  0  0  0  0  0  0  0  0
    1.3138    0.2260    0.4360 N   0  0  0  0  0  0  0  0  0  0  0  0
    2.2729   -0.8391    0.4597 C   0  0  0  0  0  0  0  0  0  0  0  0
    1.8997   -1.9109   -0.5299 C   0  0  0  0  0  0  0  0  0  0  0  0
    1.9782   -1.3322   -1.9442 C   0  0  0  0  0  0  0  0  0  0  0  0
    1.5657    0.1141   -1.9585 C   0  0  0  0  0  0  0  0  0  0  0  0
    2.6150    1.0133   -2.5797 C   0  0  0  0  0  0  0  0  0  0  0  0
    3.9403    0.9182   -1.8707 C   0  0  0  0  0  0  0  0  0  0  0  0
    4.1239   -0.4171   -1.1808 C   0  0  0  0  0  0  0  0  0  0  0  0
    3.6389   -0.2768    0.2554 C   0  0  0  0  0  0  0  0  0  0  0  0
  1  2  2  0
  2  3  1  0
  3  4  1  0
  4  5  2  0
  5  6  1  0
  6  7  2  0
  7  8  1  0
  8  9  2  0
  2 10  1  0
 10 11  1  0
 11 12  1  0
 12 13  1  0
 13 14  1  0
 14 15  1  0
 15 16  1  0
 16 17  1  0
 17 18  1  0
  9  4  1  0
 18 11  1  0
M  END
>  <zinc_id>  (1) 
ZINC000000111884

>  <smiles>  (1) 
S=C(Nc1cccnc1)NC1CCCCCCC1

$$$$
