
     RDKit          3D

 21 22  0  0  0  0  0  0  0  0999 V2000
    4.6939   -1.3393   -1.9333 C   0  0  0  0  0  0  0  0  0  0  0  0
    3.5073   -0.8125   -1.1764 C   0  0  0  0  0  0  0  0  0  0  0  0
    2.2160   -1.0814   -1.5821 C   0  0  0  0  0  0  0  0  0  0  0  0
    1.1458   -0.5897   -0.8754 C   0  0  0  0  0  0  0  0  0  0  0  0
    1.3428    0.1810    0.2517 C   0  0  0  0  0  0  0  0  0  0  0  0
    0.2658    0.7109    1.0146 N   0  0  0  0  0  0  0  0  0  0  0  0
   -1.0853    0.4675    0.6448 C   0  0  0  0  0  0  0  0  0  0  0  0
   -1.2724   -0.2340   -0.3825 O   0  0  0  0  0  0  0  0  0  0  0  0
   -2.2273    1.0272    1.4508 C   0  0  0  0  0  0  0  0  0  0  0  0
   -3.4746    0.6362    0.8636 N   0  0  0  0  0  4  0  0  0  0  0  0
   -4.0202    1.4395   -0.0630 C   0  0  0  0  0  0  0  0  0  0  0  0
   -5.2204    1.0752   -0.6359 C   0  0  0  0  0  0  0  0  0  0  0  0
   -5.8847   -0.0815   -0.2963 C   0  0  0  0  0  0  0  0  0  0  0  0
   -5.2628   -0.8743    0.6753 C   0  0  0  0  0  0  0  0  0  0  0  0
   -4.0710   -0.4976    1.2339 C   0  0  0  0  0  0  0  0  0  0  0  0
   -3.4404   -1.3458    2.2496 C   0  0  0  0  0  0  0  0  0  0  0  0
    2.6395    0.4364    0.6376 C   0  0  0  0  0  0  0  0  0  0  0  0
    3.7301   -0.0454   -0.0544 C   0  0  0  0  0  0  0  0  0  0  0  0
    5.0587    0.2597    0.4043 N   0  0  0  0  0  4  0  0  0  0  0  0
    5.2909    1.2893    1.0489 O   0  0  0  0  0  0  0  0  0  0  0  0
    6.0684   -0.6212    0.1096 O   0  0  0  0  0  1  0  0  0  0  0  0
  1  2  1  0
  2  3  2  0
  3  4  1  0
  4  5  2  0
  5  6  1  0
  6  7  1  0
  7  8  2  0
  7  9  1  0
  9 10  1  0
 10 11  2  0
 11 12  1  0
 12 13  2  0
 13 14  1  0
 14 15  2  0
 15 16  1  0
  5 17  1  0
 17 18  2  0
 18 19  1  0
 19 20  2  0
 19 21  1  0
 18  2  1  0
 15 10  1  0
M  CHG  3  10   1  19   1  21  -1
M  END
>  <zinc_id>  (1) 
ZINC000003152757

>  <smiles>  (1) 
Cc1ccc(NC(=O)C[n+]2ccccc2C)cc1[N+](=O)[O-]

$$$$
