
     RDKit          3D

 20 22  0  0  0  0  0  0  0  0999 V2000
   -1.1789   -3.7904   -0.7938 C   0  0  0  0  0  0  0  0  0  0  0  0
   -1.2911   -2.4262   -0.2714 N   0  0  0  0  0  0  0  0  0  0  0  0
   -2.0599   -2.1526    0.7929 C   0  0  0  0  0  0  0  0  0  0  0  0
   -2.6828   -3.1253    1.3265 O   0  0  0  0  0  0  0  0  0  0  0  0
   -2.1618   -0.8744    1.2757 C   0  0  0  0  0  0  0  0  0  0  0  0
   -1.4382    0.1452    0.6256 C   0  0  0  0  0  0  0  0  0  0  0  0
   -1.5976    1.4643    1.1230 N   0  0  0  0  0  0  0  0  0  0  0  0
   -0.9593    2.5714    0.4794 C   0  0  0  0  0  0  0  0  0  0  0  0
   -1.0956    3.9492    0.9576 C   0  0  0  0  0  0  0  0  0  0  0  0
   -1.7876    3.5057   -0.3662 C   0  0  0  0  0  0  0  0  0  0  0  0
   -0.6696   -0.1282   -0.4339 N   0  0  0  0  0  0  0  0  0  0  0  0
    0.1624    0.8578   -1.0996 C   0  0  0  0  0  0  0  0  0  0  0  0
    1.5395    0.7332   -0.5606 C   0  0  0  0  0  0  0  0  0  0  0  0
    2.3948   -0.1617   -1.2315 C   0  0  0  0  0  0  0  0  0  0  0  0
    3.6907   -0.3523   -0.8149 C   0  0  0  0  0  0  0  0  0  0  0  0
    4.2122    0.3175    0.2705 C   0  0  0  0  0  0  0  0  0  0  0  0
    3.3690    1.1976    0.9292 C   0  0  0  0  0  0  0  0  0  0  0  0
    2.0706    1.3865    0.5094 C   0  0  0  0  0  0  0  0  0  0  0  0
   -0.6214   -1.4273   -0.8558 C   0  0  0  0  0  0  0  0  0  0  0  0
    0.1047   -1.6901   -1.8621 O   0  0  0  0  0  0  0  0  0  0  0  0
  1  2  1  0
  2  3  1  0
  3  4  2  0
  3  5  1  0
  5  6  2  0
  6  7  1  0
  7  8  1  0
  8  9  1  0
  9 10  1  0
  6 11  1  0
 11 12  1  0
 12 13  1  0
 13 14  2  0
 14 15  1  0
 15 16  2  0
 16 17  1  0
 17 18  2  0
 11 19  1  0
 19 20  2  0
 19  2  1  0
 10  8  1  0
 18 13  1  0
M  END
>  <zinc_id>  (1) 
ZINC000001495311

>  <smiles>  (1) 
Cn1c(=O)cc(NC2CC2)n(Cc2ccccc2)c1=O

$$$$
