
     RDKit          3D

 20 21  0  0  0  0  0  0  0  0999 V2000
    3.8101   -0.6746    2.8385 C   0  0  0  0  0  0  0  0  0  0  0  0
    3.2924    0.4356    1.9753 C   0  0  0  0  0  0  0  0  0  0  0  0
    4.4343    1.3902    1.6739 C   0  0  0  0  0  0  0  0  0  0  0  0
    2.2438    1.2323    2.7507 C   0  0  0  0  0  0  0  0  0  0  0  0
    2.6833   -0.0781    0.7423 C   0  0  0  0  0  0  0  0  0  0  0  0
    2.6609   -1.2916    0.5542 O   0  0  0  0  0  0  0  0  0  0  0  0
    2.0916    0.7800   -0.2932 C   0  0  0  0  0  0  0  0  0  0  0  0
    1.5371   -0.0019   -1.4536 C   0  0  2  0  0  0  0  0  0  0  0  0
    2.5428   -0.8333   -2.1688 C   0  0  0  0  0  0  0  0  0  0  0  0
    0.7116    0.8088   -2.3197 N   0  0  0  0  0  0  0  0  0  0  0  0
   -0.5740    0.9645   -1.9608 N   0  0  0  0  0  0  0  0  0  0  0  0
   -1.1136    0.1329   -1.1632 C   0  0  0  0  0  0  0  0  0  0  0  0
   -2.4875    0.1106   -0.6442 C   0  0  0  0  0  0  0  0  0  0  0  0
   -3.3686    1.0955   -1.0324 C   0  0  0  0  0  0  0  0  0  0  0  0
   -4.6606    1.0715   -0.5423 C   0  0  0  0  0  0  0  0  0  0  0  0
   -5.0326    0.0709    0.3159 C   0  0  0  0  0  0  0  0  0  0  0  0
   -4.1627   -0.9216    0.7136 C   0  0  0  0  0  0  0  0  0  0  0  0
   -2.8602   -0.8955    0.2181 C   0  0  0  0  0  0  0  0  0  0  0  0
   -1.9254   -1.8561    0.5691 O   0  0  0  0  0  0  0  0  0  0  0  0
    0.1772   -1.0489   -0.7733 S   0  0  0  0  0  0  0  0  0  0  0  0
  1  2  1  0
  2  3  1  0
  2  4  1  0
  2  5  1  0
  5  6  2  0
  5  7  1  0
  7  8  1  0
  8  9  1  6
  8 10  1  0
 10 11  1  0
 11 12  2  0
 12 13  1  0
 13 14  2  0
 14 15  1  0
 15 16  2  0
 16 17  1  0
 17 18  2  0
 18 19  1  0
 12 20  1  0
 20  8  1  0
 18 13  1  0
M  END
>  <zinc_id>  (1) 
ZINC000000432422

>  <smiles>  (1) 
CC(C)(C)C(=O)C[C@]1(C)NN=C(c2ccccc2O)S1

$$$$
