
     RDKit          3D

 21 22  0  0  0  0  0  0  0  0999 V2000
    6.9606   -0.6761   -0.8072 C   0  0  0  0  0  0  0  0  0  0  0  0
    5.6305   -0.4304   -0.1668 C   0  0  0  0  0  0  0  0  0  0  0  0
    4.9036   -1.4563    0.3985 C   0  0  0  0  0  0  0  0  0  0  0  0
    3.6605   -1.2478    1.0010 C   0  0  0  0  0  0  0  0  0  0  0  0
    3.1537    0.0278    1.0258 C   0  0  0  0  0  0  0  0  0  0  0  0
    1.8338    0.2455    1.6659 C   0  0  0  0  0  0  0  0  0  0  0  0
    0.7401    0.0947    0.6699 C   0  0  0  0  0  0  0  0  0  0  0  0
    1.0472   -0.1844   -0.5350 O   0  0  0  0  0  0  0  0  0  0  0  0
   -0.6247    0.2449    0.9901 N   0  0  0  0  0  0  0  0  0  0  0  0
   -1.6200    0.0837   -0.0265 C   0  0  0  0  0  0  0  0  0  0  0  0
   -1.2489   -0.2161   -1.3152 C   0  0  0  0  0  0  0  0  0  0  0  0
   -2.2724   -0.3531   -2.2279 C   0  0  0  0  0  0  0  0  0  0  0  0
   -3.5939   -0.2100   -1.9231 C   0  0  0  0  0  0  0  0  0  0  0  0
   -3.9713    0.0934   -0.6192 C   0  0  0  0  0  0  0  0  0  0  0  0
   -5.3286    0.2514   -0.2544 N   0  0  0  0  0  4  0  0  0  0  0  0
   -5.6274    1.0367    0.6427 O   0  0  0  0  0  0  0  0  0  0  0  0
   -6.2855   -0.4637   -0.8965 O   0  0  0  0  0  1  0  0  0  0  0  0
   -2.9436    0.2345    0.3134 C   0  0  0  0  0  0  0  0  0  0  0  0
   -3.3527    0.5606    1.7144 C   0  0  0  0  0  0  0  0  0  0  0  0
    3.8505    1.0746    0.4721 C   0  0  0  0  0  0  0  0  0  0  0  0
    5.0886    0.8346   -0.1219 C   0  0  0  0  0  0  0  0  0  0  0  0
  1  2  1  0
  2  3  2  0
  3  4  1  0
  4  5  2  0
  5  6  1  0
  6  7  1  0
  7  8  2  0
  7  9  1  0
  9 10  1  0
 10 11  2  0
 11 12  1  0
 12 13  2  0
 13 14  1  0
 14 15  1  0
 15 16  2  0
 15 17  1  0
 14 18  2  0
 18 19  1  0
  5 20  1  0
 20 21  2  0
 21  2  1  0
 18 10  1  0
M  CHG  2  15   1  17  -1
M  END
>  <zinc_id>  (1) 
ZINC000000464164

>  <smiles>  (1) 
Cc1ccc(CC(=O)Nc2cccc([N+](=O)[O-])c2C)cc1

$$$$
