
     RDKit          3D

 20 21  0  0  0  0  0  0  0  0999 V2000
   -1.0312   -0.2695    2.3416 O   0  0  0  0  0  0  0  0  0  0  0  0
   -1.2823   -0.2711    1.1104 C   0  0  0  0  0  0  0  0  0  0  0  0
   -0.2197   -0.2045    0.1819 N   0  0  0  0  0  0  0  0  0  0  0  0
    1.1477   -0.1172    0.5916 C   0  0  0  0  0  0  0  0  0  0  0  0
    2.1113   -0.1418   -0.5428 C   0  0  0  0  0  0  0  0  0  0  0  0
    3.5267    0.0286   -0.1380 C   0  0  0  0  0  0  0  0  0  0  0  0
    3.9441    0.3270    1.1015 C   0  0  0  0  0  0  0  0  0  0  0  0
    5.3865    0.4734    1.3881 C   0  0  0  0  0  0  0  0  0  0  0  0
    6.1185   -0.7141    0.8637 C   0  0  0  0  0  0  0  0  0  0  0  0
    5.6493   -1.1355   -0.4981 C   0  0  0  0  0  0  0  0  0  0  0  0
    4.6418   -0.1696   -1.1259 C   0  0  0  0  0  0  0  0  0  0  0  0
   -2.6518   -0.3506    0.5992 C   0  0  0  0  0  0  0  0  0  0  0  0
   -3.4628   -1.3637    1.1337 C   0  0  0  0  0  0  0  0  0  0  0  0
   -4.7227   -1.5607    0.6734 C   0  0  0  0  0  0  0  0  0  0  0  0
   -5.2246   -0.7768   -0.3209 C   0  0  0  0  0  0  0  0  0  0  0  0
   -4.4340    0.2395   -0.8726 C   0  0  0  0  0  0  0  0  0  0  0  0
   -3.1320    0.4394   -0.3868 C   0  0  0  0  0  0  0  0  0  0  0  0
   -2.3760    1.5222   -0.9321 N   0  0  0  0  0  4  0  0  0  0  0  0
   -2.5654    1.9552   -2.0693 O   0  0  0  0  0  0  0  0  0  0  0  0
   -1.4233    2.0898   -0.1322 O   0  0  0  0  0  1  0  0  0  0  0  0
  1  2  2  0
  2  3  1  0
  3  4  1  0
  4  5  1  0
  5  6  1  0
  6  7  2  0
  7  8  1  0
  8  9  1  0
  9 10  1  0
 10 11  1  0
  2 12  1  0
 12 13  2  0
 13 14  1  0
 14 15  2  0
 15 16  1  0
 16 17  2  0
 17 18  1  0
 18 19  2  0
 18 20  1  0
 11  6  1  0
 17 12  1  0
M  CHG  2  18   1  20  -1
M  END
>  <zinc_id>  (1) 
ZINC000000291625

>  <smiles>  (1) 
O=C(NCCC1=CCCCC1)c1ccccc1[N+](=O)[O-]

$$$$
