
     RDKit          3D

 20 22  0  0  0  0  0  0  0  0999 V2000
   -0.3458   -1.2726   -2.5163 O   0  0  0  0  0  0  0  0  0  0  0  0
   -0.8178   -1.0806   -1.3566 C   0  0  0  0  0  0  0  0  0  0  0  0
   -2.1578   -0.7537   -1.0048 N   0  0  0  0  0  0  0  0  0  0  0  0
   -2.0805   -0.1345    0.2872 C   0  0  0  0  0  0  0  0  0  0  0  0
   -3.3146   -0.3264    1.1245 C   0  0  0  0  0  0  0  0  0  0  0  0
   -4.5139    0.3113    0.4982 C   0  0  0  0  0  0  0  0  0  0  0  0
   -4.1170    1.3045   -0.5538 C   0  0  0  0  0  0  0  0  0  0  0  0
   -2.9562    2.1420   -0.0563 C   0  0  0  0  0  0  0  0  0  0  0  0
   -1.7015    1.3102    0.1190 C   0  0  0  0  0  0  0  0  0  0  0  0
   -0.9479   -0.8830    0.9151 C   0  0  0  0  0  0  0  0  0  0  0  0
   -0.8225   -1.1976    2.1367 O   0  0  0  0  0  0  0  0  0  0  0  0
   -0.0463   -1.1644   -0.1494 N   0  0  0  0  0  0  0  0  0  0  0  0
    1.3582   -1.4682    0.0105 C   0  0  0  0  0  0  0  0  0  0  0  0
    2.2011   -0.2476   -0.0271 C   0  0  0  0  0  0  0  0  0  0  0  0
    1.6859    1.0223   -0.1959 C   0  0  0  0  0  0  0  0  0  0  0  0
    2.5184    2.1459   -0.2252 C   0  0  0  0  0  0  0  0  0  0  0  0
    3.8712    1.9609   -0.0815 C   0  0  0  0  0  0  0  0  0  0  0  0
    4.4198    0.7108    0.0886 C   0  0  0  0  0  0  0  0  0  0  0  0
    3.5633   -0.3819    0.1127 C   0  0  0  0  0  0  0  0  0  0  0  0
    4.2038   -1.9973    0.3260 Cl  0  0  0  0  0  0  0  0  0  0  0  0
  1  2  2  0
  2  3  1  0
  3  4  1  0
  4  5  1  0
  5  6  1  0
  6  7  1  0
  7  8  1  0
  8  9  1  0
  4 10  1  0
 10 11  2  0
 10 12  1  0
 12 13  1  0
 13 14  1  0
 14 15  2  0
 15 16  1  0
 16 17  2  0
 17 18  1  0
 18 19  2  0
 19 20  1  0
 12  2  1  0
 19 14  1  0
  9  4  1  0
M  END
>  <zinc_id>  (1) 
ZINC000003505450

>  <smiles>  (1) 
O=C1NC2(CCCCC2)C(=O)N1Cc1ccccc1Cl

$$$$
