
     RDKit          3D

 21 22  0  0  0  0  0  0  0  0999 V2000
   -4.7079    1.8143   -1.3831 C   0  0  0  0  0  0  0  0  0  0  0  0
   -4.1366    0.6812   -0.6211 C   0  0  0  0  0  0  0  0  0  0  0  0
   -4.9071   -0.2147    0.0754 C   0  0  0  0  0  0  0  0  0  0  0  0
   -4.3427   -1.2666    0.7738 C   0  0  0  0  0  0  0  0  0  0  0  0
   -2.9478   -1.3968    0.7518 C   0  0  0  0  0  0  0  0  0  0  0  0
   -2.2775   -2.5028    1.4728 C   0  0  0  0  0  0  0  0  0  0  0  0
   -2.1431   -0.5085    0.0567 C   0  0  0  0  0  0  0  0  0  0  0  0
   -0.7366   -0.6953    0.0620 N   0  0  0  0  0  0  0  0  0  0  0  0
    0.1330    0.1853   -0.6559 C   0  0  0  0  0  0  0  0  0  0  0  0
   -0.3233    1.1199   -1.2860 O   0  0  0  0  0  0  0  0  0  0  0  0
    1.5412   -0.1521   -0.5644 C   0  0  0  0  0  0  0  0  0  0  0  0
    1.9321   -1.4459   -0.9938 C   0  0  0  0  0  0  0  0  0  0  0  0
    3.2407   -1.8378   -0.9105 C   0  0  0  0  0  0  0  0  0  0  0  0
    4.2012   -0.9998   -0.4128 C   0  0  0  0  0  0  0  0  0  0  0  0
    5.5215   -1.3984   -0.3306 F   0  0  0  0  0  0  0  0  0  0  0  0
    3.8308    0.2593    0.0060 C   0  0  0  0  0  0  0  0  0  0  0  0
    2.5006    0.6929   -0.0649 C   0  0  0  0  0  0  0  0  0  0  0  0
    2.1689    1.9958    0.3906 N   0  0  0  0  0  4  0  0  0  0  0  0
    1.2808    2.6563   -0.1344 O   0  0  0  0  0  0  0  0  0  0  0  0
    2.9260    2.4866    1.4564 O   0  0  0  0  0  1  0  0  0  0  0  0
   -2.7542    0.5271   -0.6257 C   0  0  0  0  0  0  0  0  0  0  0  0
  1  2  1  0
  2  3  2  0
  3  4  1  0
  4  5  2  0
  5  6  1  0
  5  7  1  0
  7  8  1  0
  8  9  1  0
  9 10  2  0
  9 11  1  0
 11 12  2  0
 12 13  1  0
 13 14  2  0
 14 15  1  0
 14 16  1  0
 16 17  2  0
 17 18  1  0
 18 19  2  0
 18 20  1  0
  7 21  2  0
 21  2  1  0
 17 11  1  0
M  CHG  2  18   1  20  -1
M  END
>  <zinc_id>  (1) 
ZINC000000283151

>  <smiles>  (1) 
Cc1ccc(C)c(NC(=O)c2ccc(F)cc2[N+](=O)[O-])c1

$$$$
