
     RDKit          3D

 19 20  0  0  0  0  0  0  0  0999 V2000
    0.2367   -2.5540   -1.0334 C   0  0  0  0  0  0  0  0  0  0  0  0
    0.4790   -1.9490    0.4924 C   0  0  2  0  0  0  0  0  0  0  0  0
   -0.6038   -0.8103    0.3693 C   0  0  0  0  0  0  0  0  0  0  0  0
   -0.2201    0.3014    0.0638 O   0  0  0  0  0  0  0  0  0  0  0  0
   -1.9033   -1.1493    0.6147 O   0  0  0  0  0  0  0  0  0  0  0  0
   -2.8975   -0.1460    0.5115 C   0  0  0  0  0  0  0  0  0  0  0  0
   -4.2522   -0.6940    0.8121 C   0  0  0  0  0  0  0  0  0  0  0  0
   -5.2900    0.3759    0.4736 C   0  0  0  0  0  0  0  0  0  0  0  0
   -4.6005    1.7216    0.3149 C   0  0  0  0  0  0  0  0  0  0  0  0
   -3.7330    1.9472    1.5592 C   0  0  0  0  0  0  0  0  0  0  0  0
   -2.5342    1.0400    1.4076 C   0  0  0  0  0  0  0  0  0  0  0  0
    1.7766   -1.1073    0.1365 C   0  0  0  0  0  0  0  0  0  0  0  0
    2.6787   -1.4917   -0.7537 C   0  0  0  0  0  0  0  0  0  0  0  0
    3.7774   -0.6923   -0.9954 C   0  0  0  0  0  0  0  0  0  0  0  0
    3.9343    0.4976   -0.3153 C   0  0  0  0  0  0  0  0  0  0  0  0
    5.0758    1.3310   -0.5646 N   0  0  0  0  0  0  0  0  0  0  0  0
    2.9930    0.9005    0.6147 C   0  0  0  0  0  0  0  0  0  0  0  0
    3.1778    2.4150    1.4910 Cl  0  0  0  0  0  0  0  0  0  0  0  0
    1.9051    0.0638    0.8241 C   0  0  0  0  0  0  0  0  0  0  0  0
  2  1  1  6
  2  3  1  0
  3  4  2  0
  3  5  1  0
  5  6  1  0
  6  7  1  0
  7  8  1  0
  8  9  1  0
  9 10  1  0
 10 11  1  0
  2 12  1  0
 12 13  2  0
 13 14  1  0
 14 15  2  0
 15 16  1  0
 15 17  1  0
 17 18  1  0
 17 19  2  0
 11  6  1  0
 19 12  1  0
M  END
>  <zinc_id>  (1) 
ZINC000000011780

>  <smiles>  (1) 
C[C@H](C(=O)OC1CCCCC1)c1ccc(N)c(Cl)c1

$$$$
