
     RDKit          3D

 19 21  0  0  0  0  0  0  0  0999 V2000
   -5.2508   -1.4638    0.7119 C   0  0  0  0  0  0  0  0  0  0  0  0
   -3.9959   -0.6647    0.4656 C   0  0  0  0  0  0  0  0  0  0  0  0
   -2.7710   -1.2967    0.4647 C   0  0  0  0  0  0  0  0  0  0  0  0
   -1.6076   -0.5533    0.2358 C   0  0  0  0  0  0  0  0  0  0  0  0
   -0.4692   -1.2175    0.2480 N   0  0  0  0  0  0  0  0  0  0  0  0
    0.7655   -0.7816    0.0651 C   0  0  0  0  0  0  0  0  0  0  0  0
    1.8176   -1.7041    0.1287 C   0  0  0  0  0  0  0  0  0  0  0  0
    3.1241   -1.3042   -0.0545 C   0  0  0  0  0  0  0  0  0  0  0  0
    3.4579    0.0107   -0.3071 C   0  0  0  0  0  0  0  0  0  0  0  0
    4.8015    0.4352   -0.4978 N   0  0  0  0  0  0  0  0  0  0  0  0
    5.9063   -0.5019   -0.4363 C   0  0  0  0  0  0  0  0  0  0  0  0
    5.1276    1.8229   -0.7620 C   0  0  0  0  0  0  0  0  0  0  0  0
    2.4165    0.9106   -0.3678 C   0  0  0  0  0  0  0  0  0  0  0  0
    1.1089    0.5250   -0.1870 C   0  0  0  0  0  0  0  0  0  0  0  0
   -0.2370    1.5886   -0.2486 S   0  0  0  0  0  3  0  0  0  0  0  0
   -1.7210    0.8015    0.0160 C   0  0  0  0  0  0  0  0  0  0  0  0
   -2.9690    1.4122    0.0225 C   0  0  0  0  0  0  0  0  0  0  0  0
   -4.1189    0.6865    0.2472 C   0  0  0  0  0  0  0  0  0  0  0  0
   -5.3852    1.2945    0.2558 N   0  0  0  0  0  0  0  0  0  0  0  0
  1  2  1  0
  2  3  2  0
  3  4  1  0
  4  5  2  0
  5  6  1  0
  6  7  2  0
  7  8  1  0
  8  9  2  0
  9 10  1  0
 10 11  1  0
 10 12  1  0
  9 13  1  0
 13 14  2  0
 14 15  1  0
 15 16  2  0
 16 17  1  0
 17 18  2  0
 18 19  1  0
 18  2  1  0
 16  4  1  0
 14  6  1  0
M  CHG  1  15   1
M  END
>  <zinc_id>  (1) 
ZINC000004217587

>  <smiles>  (1) 
Cc1cc2nc3ccc(N(C)C)cc3[s+]c2cc1N

$$$$
