
     RDKit          3D

 22 24  0  0  0  0  0  0  0  0999 V2000
   -3.8946    3.0754   -1.4776 C   0  0  0  0  0  0  0  0  0  0  0  0
   -4.2494    1.8146   -0.9450 O   0  0  0  0  0  0  0  0  0  0  0  0
   -3.3332    0.8905   -0.4907 C   0  0  0  0  0  0  0  0  0  0  0  0
   -1.9543    1.1996   -0.5510 C   0  0  0  0  0  0  0  0  0  0  0  0
   -1.0268    0.3034   -0.1083 C   0  0  0  0  0  0  0  0  0  0  0  0
   -1.4213   -0.8588    0.3789 C   0  0  0  0  0  0  0  0  0  0  0  0
   -2.7723   -1.2342    0.4698 C   0  0  0  0  0  0  0  0  0  0  0  0
   -3.7254   -0.3274    0.0211 C   0  0  0  0  0  0  0  0  0  0  0  0
   -5.0881   -0.6832    0.1027 O   0  0  0  0  0  0  0  0  0  0  0  0
   -5.4663   -1.9216    0.6242 C   0  0  0  0  0  0  0  0  0  0  0  0
   -0.4543   -1.9842    0.9241 C   0  0  1  0  0  0  0  0  0  0  0  0
   -0.5130   -2.8730   -0.4589 C   0  0  0  0  0  0  0  0  0  0  0  0
    0.9065   -1.4231    0.7526 O   0  0  0  0  0  0  0  0  0  0  0  0
    1.3079   -0.2782    0.2733 C   0  0  0  0  0  0  0  0  0  0  0  0
    2.7222    0.0752    0.1956 C   0  0  0  0  0  0  0  0  0  0  0  0
    3.1376    1.2690   -0.3044 C   0  0  0  0  0  0  0  0  0  0  0  0
    4.4453    1.6613   -0.4049 C   0  0  0  0  0  0  0  0  0  0  0  0
    5.4225    0.8241    0.0147 C   0  0  0  0  0  0  0  0  0  0  0  0
    6.7873    1.1079   -0.0352 O   0  0  0  0  0  0  0  0  0  0  0  0
    5.0722   -0.4015    0.5321 C   0  0  0  0  0  0  0  0  0  0  0  0
    3.7239   -0.7755    0.6224 C   0  0  0  0  0  0  0  0  0  0  0  0
    0.3735    0.5397   -0.1356 C   0  0  0  0  0  0  0  0  0  0  0  0
  1  2  1  0
  2  3  1  0
  3  4  2  0
  4  5  1  0
  5  6  2  0
  6  7  1  0
  7  8  2  0
  8  9  1  0
  9 10  1  0
  6 11  1  0
 11 12  1  6
 11 13  1  0
 13 14  1  0
 14 15  1  0
 15 16  2  0
 16 17  1  0
 17 18  2  0
 18 19  1  0
 18 20  1  0
 20 21  2  0
 14 22  2  0
  8  3  1  0
 21 15  1  0
 22  5  1  0
M  END
>  <zinc_id>  (1) 
ZINC000002578733

>  <smiles>  (1) 
COc1cc2c(cc1OC)[C@@H](C)OC(c1ccc(O)cc1)=C2

$$$$
