
     RDKit          3D

 20 22  0  0  0  0  0  0  0  0999 V2000
   -6.1279   -0.3414    0.0392 C   0  0  0  0  0  0  0  0  0  0  0  0
   -4.6441   -0.2803    0.0260 C   0  0  0  0  0  0  0  0  0  0  0  0
   -3.9174    0.4142    0.9692 C   0  0  0  0  0  0  0  0  0  0  0  0
   -2.5353    0.4503    0.9271 C   0  0  0  0  0  0  0  0  0  0  0  0
   -1.8261   -0.2045   -0.0565 C   0  0  0  0  0  0  0  0  0  0  0  0
   -0.4058   -0.1544   -0.0812 N   0  0  0  0  0  0  0  0  0  0  0  0
    0.3551    0.5466    0.8688 C   0  0  0  0  0  0  0  0  0  0  0  0
   -0.2936    1.1431    1.7649 O   0  0  0  0  0  0  0  0  0  0  0  0
    1.8491    0.5950    0.8368 C   0  0  0  0  0  0  0  0  0  0  0  0
    2.5266    1.3014    1.7999 C   0  0  0  0  0  0  0  0  0  0  0  0
    1.9661    2.0503    2.9077 N   0  0  0  0  0  0  0  0  0  0  0  0
    4.1581    1.0765    1.3683 S   0  0  0  0  0  0  0  0  0  0  0  0
    3.9544    0.1052   -0.0052 C   0  0  0  0  0  0  0  0  0  0  0  0
    2.6005   -0.0276   -0.1034 C   0  0  0  0  0  0  0  0  0  0  0  0
    2.3510   -0.8990   -1.3349 C   0  0  0  0  0  0  0  0  0  0  0  0
    3.6235   -1.6876   -1.4865 C   0  0  0  0  0  0  0  0  0  0  0  0
    4.6654   -0.6372   -1.1110 C   0  0  0  0  0  0  0  0  0  0  0  0
   -2.5484   -0.8989   -0.9997 C   0  0  0  0  0  0  0  0  0  0  0  0
   -1.8066   -1.6130   -2.0703 C   0  0  0  0  0  0  0  0  0  0  0  0
   -3.9447   -0.9386   -0.9619 C   0  0  0  0  0  0  0  0  0  0  0  0
  1  2  1  0
  2  3  2  0
  3  4  1  0
  4  5  2  0
  5  6  1  0
  6  7  1  0
  7  8  2  0
  7  9  1  0
  9 10  2  0
 10 11  1  0
 10 12  1  0
 12 13  1  0
 13 14  2  0
 14 15  1  0
 15 16  1  0
 16 17  1  0
  5 18  1  0
 18 19  1  0
 18 20  2  0
 20  2  1  0
 14  9  1  0
 17 13  1  0
M  END
>  <zinc_id>  (1) 
ZINC000000130354

>  <smiles>  (1) 
Cc1ccc(NC(=O)c2c(N)sc3c2CCC3)c(C)c1

$$$$
