
     RDKit          3D

 21 23  0  0  0  0  0  0  0  0999 V2000
    5.2587   -1.8113    0.6325 C   0  0  0  0  0  0  0  0  0  0  0  0
    3.9551   -1.1069    0.3736 C   0  0  0  0  0  0  0  0  0  0  0  0
    3.9072    0.1977   -0.0731 C   0  0  0  0  0  0  0  0  0  0  0  0
    2.6795    0.7992   -0.2957 C   0  0  0  0  0  0  0  0  0  0  0  0
    1.5174    0.1522   -0.0904 N   0  0  0  0  0  0  0  0  0  0  0  0
    0.2282    0.5401   -0.2410 C   0  0  0  0  0  0  0  0  0  0  0  0
   -0.2872    1.7858   -0.6737 N   0  0  0  0  0  0  0  0  0  0  0  0
    0.5211    2.9055   -1.0425 C   0  0  0  0  0  0  0  0  0  0  0  0
    1.3774    3.3396    0.1271 C   0  0  0  0  0  0  0  0  0  0  0  0
   -0.3960    4.0163   -1.5001 C   0  0  0  0  0  0  0  0  0  0  0  0
   -0.5942   -0.5142    0.1081 C   0  0  0  0  0  0  0  0  0  0  0  0
   -2.0648   -0.5339    0.0943 C   0  0  0  0  0  0  0  0  0  0  0  0
   -2.7406    0.6076   -0.3055 C   0  0  0  0  0  0  0  0  0  0  0  0
   -4.1125    0.6163   -0.3276 C   0  0  0  0  0  0  0  0  0  0  0  0
   -4.7986   -0.5151    0.0498 C   0  0  0  0  0  0  0  0  0  0  0  0
   -4.1285   -1.6633    0.4518 C   0  0  0  0  0  0  0  0  0  0  0  0
   -2.7570   -1.6544    0.4679 C   0  0  0  0  0  0  0  0  0  0  0  0
   -2.0840   -2.7861    0.8643 O   0  0  0  0  0  0  0  0  0  0  0  0
    0.2419   -1.5067    0.4591 N   0  0  0  0  0  0  0  0  0  0  0  0
    1.5279   -1.1215    0.3453 C   0  0  0  0  0  0  0  0  0  0  0  0
    2.7491   -1.7469    0.5759 C   0  0  0  0  0  0  0  0  0  0  0  0
  1  2  1  0
  2  3  1  0
  3  4  2  0
  4  5  1  0
  5  6  1  0
  6  7  1  0
  7  8  1  0
  8  9  1  0
  8 10  1  0
  6 11  2  0
 11 12  1  0
 12 13  2  0
 13 14  1  0
 14 15  2  0
 15 16  1  0
 16 17  2  0
 17 18  1  0
 11 19  1  0
 19 20  2  0
 20 21  1  0
 21  2  2  0
 20  5  1  0
 17 12  1  0
M  END
>  <zinc_id>  (1) 
ZINC000000413697

>  <smiles>  (1) 
Cc1ccn2c(NC(C)C)c(-c3ccccc3O)nc2c1

$$$$
