
     RDKit          3D

 21 22  0  0  0  0  0  0  0  0999 V2000
   -5.1551   -0.0949    1.6231 C   0  0  0  0  0  0  0  0  0  0  0  0
   -4.5923   -0.4220    0.2797 C   0  0  0  0  0  0  0  0  0  0  0  0
   -3.2492    0.2469    0.0626 C   0  0  0  0  0  0  0  0  0  0  0  0
   -3.1952    1.5672   -0.2172 C   0  0  0  0  0  0  0  0  0  0  0  0
   -4.3294    2.5511   -0.3583 C   0  0  0  0  0  0  0  0  0  0  0  0
   -1.5333    1.8732   -0.3753 S   0  0  0  0  0  0  0  0  0  0  0  0
   -0.9406    0.2999   -0.0786 C   0  0  0  0  0  0  0  0  0  0  0  0
    0.4397   -0.1527   -0.0603 N   0  0  0  0  0  0  0  0  0  0  0  0
    1.4759    0.7546   -0.3107 C   0  0  0  0  0  0  0  0  0  0  0  0
    1.1440    1.9584   -0.5475 O   0  0  0  0  0  0  0  0  0  0  0  0
    2.8918    0.4326   -0.3219 C   0  0  0  0  0  0  0  0  0  0  0  0
    3.8520    1.3897   -0.6123 C   0  0  0  0  0  0  0  0  0  0  0  0
    5.1958    1.1040   -0.6303 C   0  0  0  0  0  0  0  0  0  0  0  0
    5.6359   -0.1514   -0.3585 C   0  0  0  0  0  0  0  0  0  0  0  0
    4.6941   -1.1314   -0.0640 C   0  0  0  0  0  0  0  0  0  0  0  0
    3.3434   -0.8441   -0.0459 C   0  0  0  0  0  0  0  0  0  0  0  0
    2.3517   -1.9070    0.2733 C   0  0  0  0  0  0  0  0  0  0  0  0
   -2.0757   -0.4379    0.1403 C   0  0  0  0  0  0  0  0  0  0  0  0
   -1.9649   -1.8977    0.4390 C   0  0  0  0  0  0  0  0  0  0  0  0
   -3.1199   -2.6959    0.6734 N   0  0  0  0  0  0  0  0  0  0  0  0
   -0.8689   -2.4427    0.4894 O   0  0  0  0  0  0  0  0  0  0  0  0
  1  2  1  0
  2  3  1  0
  3  4  2  0
  4  5  1  0
  4  6  1  0
  6  7  1  0
  7  8  1  0
  8  9  1  0
  9 10  2  0
  9 11  1  0
 11 12  2  0
 12 13  1  0
 13 14  2  0
 14 15  1  0
 15 16  2  0
 16 17  1  0
  7 18  2  0
 18 19  1  0
 19 20  1  0
 19 21  2  0
 18  3  1  0
 16 11  1  0
M  END
>  <zinc_id>  (1) 
ZINC000000433715

>  <smiles>  (1) 
CCc1c(C)sc(NC(=O)c2ccccc2C)c1C(N)=O

$$$$
