
     RDKit          3D

 18 19  0  0  0  0  0  0  0  0999 V2000
    5.9565   -0.8485   -0.3049 C   0  0  0  0  0  0  0  0  0  0  0  0
    4.4750   -1.7573    0.2107 S   0  0  0  0  0  0  0  0  0  0  0  0
    3.0834   -0.6396    0.1048 C   0  0  0  0  0  0  0  0  0  0  0  0
    2.7537    0.1134    1.1748 N   0  0  0  0  0  0  0  0  0  0  0  0
    1.7072    0.9798    1.1544 C   0  0  0  0  0  0  0  0  0  0  0  0
    1.3702    1.7694    2.2920 N   0  0  0  0  0  0  0  0  0  0  0  0
    1.0079    1.0487   -0.0034 N   0  0  0  0  0  0  0  0  0  0  0  0
    1.3047    0.3202   -1.0807 C   0  0  0  0  0  0  0  0  0  0  0  0
    0.4492    0.4991   -2.2825 C   0  0  0  0  0  0  0  0  0  0  0  0
   -0.9481   -0.6196   -2.3140 S   0  0  0  0  0  0  0  0  0  0  0  0
   -2.1119   -0.3022   -1.0113 C   0  0  0  0  0  0  0  0  0  0  0  0
   -3.2405   -1.0876   -0.9142 C   0  0  0  0  0  0  0  0  0  0  0  0
   -4.1938   -0.9099    0.0659 C   0  0  0  0  0  0  0  0  0  0  0  0
   -4.0248    0.0985    1.0023 C   0  0  0  0  0  0  0  0  0  0  0  0
   -5.0648    0.2741    2.0513 C   0  0  0  0  0  0  0  0  0  0  0  0
   -2.9047    0.8831    0.9112 C   0  0  0  0  0  0  0  0  0  0  0  0
   -1.9591    0.6974   -0.0710 C   0  0  0  0  0  0  0  0  0  0  0  0
    2.3400   -0.5190   -1.0202 N   0  0  0  0  0  0  0  0  0  0  0  0
  1  2  1  0
  2  3  1  0
  3  4  2  0
  4  5  1  0
  5  6  1  0
  5  7  2  0
  7  8  1  0
  8  9  1  0
  9 10  1  0
 10 11  1  0
 11 12  2  0
 12 13  1  0
 13 14  2  0
 14 15  1  0
 14 16  1  0
 16 17  2  0
  8 18  2  0
 18  3  1  0
 17 11  1  0
M  END
>  <zinc_id>  (1) 
ZINC000000126697

>  <smiles>  (1) 
CSc1nc(N)nc(CSc2ccc(C)cc2)n1

$$$$
