
     RDKit          3D

 20 21  0  0  0  0  0  0  0  0999 V2000
    1.6222   -0.0853    2.6885 C   0  0  0  0  0  0  0  0  0  0  0  0
    1.7189   -0.3312    1.4035 C   0  0  0  0  0  0  0  0  0  0  0  0
    0.6489   -0.7690    0.6147 N   0  0  0  0  0  0  0  0  0  0  0  0
   -0.5495   -0.0206    0.6114 N   0  0  0  0  0  0  0  0  0  0  0  0
   -1.6931   -0.4719   -0.0616 C   0  0  0  0  0  0  0  0  0  0  0  0
   -1.5759   -1.5958   -0.6629 O   0  0  0  0  0  0  0  0  0  0  0  0
   -2.9896    0.1771   -0.1617 C   0  0  0  0  0  0  0  0  0  0  0  0
   -3.3187    1.0446   -1.1641 C   0  0  0  0  0  0  0  0  0  0  0  0
   -4.5518    1.6563   -1.2809 C   0  0  0  0  0  0  0  0  0  0  0  0
   -5.5242    1.3951   -0.3435 C   0  0  0  0  0  0  0  0  0  0  0  0
   -5.2190    0.5234    0.6795 C   0  0  0  0  0  0  0  0  0  0  0  0
   -3.9897   -0.0802    0.7846 C   0  0  0  0  0  0  0  0  0  0  0  0
   -3.6132   -1.2023    2.1008 Cl  0  0  0  0  0  0  0  0  0  0  0  0
    3.0149   -0.1713    0.7596 C   0  0  0  0  0  0  0  0  0  0  0  0
    4.2263    0.0002    1.3918 C   0  0  0  0  0  0  0  0  0  0  0  0
    5.1686    0.1061    0.3864 C   0  0  0  0  0  0  0  0  0  0  0  0
    6.6156    0.3022    0.6370 C   0  0  0  0  0  0  0  0  0  0  0  0
    4.5454    0.0037   -0.7661 O   0  0  0  0  0  0  0  0  0  0  0  0
    3.2692   -0.1618   -0.6121 C   0  0  0  0  0  0  0  0  0  0  0  0
    2.1946   -0.3193   -1.6351 C   0  0  0  0  0  0  0  0  0  0  0  0
  1  2  2  0
  2  3  1  0
  3  4  1  0
  4  5  1  0
  5  6  2  0
  5  7  1  0
  7  8  2  0
  8  9  1  0
  9 10  2  0
 10 11  1  0
 11 12  2  0
 12 13  1  0
  2 14  1  0
 14 15  1  0
 15 16  2  0
 16 17  1  0
 16 18  1  0
 18 19  1  0
 19 20  1  0
 12  7  1  0
 19 14  2  0
M  END
>  <zinc_id>  (1) 
ZINC000002777395

>  <smiles>  (1) 
C=C(NNC(=O)c1ccccc1Cl)c1cc(C)oc1C

$$$$
