
     RDKit          3D

 20 22  0  0  0  0  0  0  0  0999 V2000
   -3.4852   -1.1253   -2.5600 O   0  0  0  0  0  0  0  0  0  0  0  0
   -3.2079   -0.5796   -1.4927 C   0  0  0  0  0  0  0  0  0  0  0  0
   -3.7782    0.6705   -1.1378 C   0  0  0  0  0  0  0  0  0  0  0  0
   -2.8556    1.5095   -0.3614 C   0  0  0  0  0  0  0  0  0  0  0  0
   -1.6446    1.0204    0.1452 C   0  0  0  0  0  0  0  0  0  0  0  0
   -0.9758   -0.1979   -0.6320 C   0  0  2  0  0  0  0  0  0  0  0  0
   -2.1900   -1.3634   -0.5702 C   0  0  1  0  0  0  0  0  0  0  0  0
   -2.8734   -1.0096    0.8439 C   0  0  0  0  0  0  0  0  0  0  0  0
   -2.0037   -1.7061    1.8639 C   0  0  0  0  0  0  0  0  0  0  0  0
   -0.6461   -1.9222    1.2404 C   0  0  0  0  0  0  0  0  0  0  0  0
   -0.0813   -0.7317    0.5796 C   0  0  1  0  0  0  0  0  0  0  0  0
    1.0621   -1.1954   -0.1171 O   0  0  0  0  0  0  0  0  0  0  0  0
    0.2516    0.2868    1.5481 C   0  0  0  0  0  0  0  0  0  0  0  0
    0.9918    1.4952    1.1984 C   0  0  0  0  0  0  0  0  0  0  0  0
    2.3211    1.1419    0.6576 C   0  0  0  0  0  0  0  0  0  0  0  0
    2.5280    0.9915   -0.6925 C   0  0  0  0  0  0  0  0  0  0  0  0
    3.7475    0.6647   -1.2229 C   0  0  0  0  0  0  0  0  0  0  0  0
    4.8240    0.4744   -0.3883 C   0  0  0  0  0  0  0  0  0  0  0  0
    4.6127    0.6259    0.9630 C   0  0  0  0  0  0  0  0  0  0  0  0
    3.4028    0.9505    1.4943 C   0  0  0  0  0  0  0  0  0  0  0  0
  1  2  2  0
  2  3  1  0
  3  4  1  0
  4  5  1  0
  6  5  1  1
  6  7  1  0
  7  8  1  1
  8  9  1  0
  9 10  1  0
 10 11  1  0
 11 12  1  6
 11 13  1  0
 13 14  1  0
 14 15  1  0
 15 16  2  0
 16 17  1  0
 17 18  2  0
 18 19  1  0
 19 20  2  0
  7  2  1  0
 20 15  1  0
 11  6  1  0
M  END
>  <zinc_id>  (1) 
ZINC000001318904

>  <smiles>  (1) 
O=C1CCC[C@@H]2[C@H]1CCC[C@]2(O)CCc1ccccc1

$$$$
