
     RDKit          3D

 19 20  0  0  0  0  0  0  0  0999 V2000
   -4.6258    1.6924   -1.2271 C   0  0  0  0  0  0  0  0  0  0  0  0
   -3.7126    0.8502   -0.4130 C   0  0  0  0  0  0  0  0  0  0  0  0
   -4.2590   -0.0245    0.4966 C   0  0  0  0  0  0  0  0  0  0  0  0
   -5.6438   -0.1140    0.6467 O   0  0  0  0  0  0  0  0  0  0  0  0
   -3.3988   -0.7980    1.2433 C   0  0  0  0  0  0  0  0  0  0  0  0
   -2.0415   -0.6878    1.0734 C   0  0  0  0  0  0  0  0  0  0  0  0
   -1.4811    0.1765    0.1737 C   0  0  0  0  0  0  0  0  0  0  0  0
   -0.0885    0.2625    0.0269 N   0  0  0  0  0  0  0  0  0  0  0  0
    0.7666   -0.5533    0.8166 C   0  0  0  0  0  0  0  0  0  0  0  0
    0.2280   -1.3388    1.6354 O   0  0  0  0  0  0  0  0  0  0  0  0
    2.2099   -0.4508    0.6509 C   0  0  0  0  0  0  0  0  0  0  0  0
    3.0603   -1.2297    1.4036 C   0  0  0  0  0  0  0  0  0  0  0  0
    4.4317   -1.1376    1.2515 C   0  0  0  0  0  0  0  0  0  0  0  0
    5.0143   -0.2737    0.3513 C   0  0  0  0  0  0  0  0  0  0  0  0
    6.7692   -0.1744    0.1756 Cl  0  0  0  0  0  0  0  0  0  0  0  0
    4.1673    0.5070   -0.4033 C   0  0  0  0  0  0  0  0  0  0  0  0
    2.7810    0.4165   -0.2522 C   0  0  0  0  0  0  0  0  0  0  0  0
   -2.3376    0.9488   -0.5719 C   0  0  0  0  0  0  0  0  0  0  0  0
   -1.8398    1.9290   -1.5864 C   0  0  0  0  0  0  0  0  0  0  0  0
  1  2  1  0
  2  3  2  0
  3  4  1  0
  3  5  1  0
  5  6  2  0
  6  7  1  0
  7  8  1  0
  8  9  1  0
  9 10  2  0
  9 11  1  0
 11 12  2  0
 12 13  1  0
 13 14  2  0
 14 15  1  0
 14 16  1  0
 16 17  2  0
  7 18  2  0
 18 19  1  0
 18  2  1  0
 17 11  1  0
M  END
>  <zinc_id>  (1) 
ZINC000000079521

>  <smiles>  (1) 
Cc1c(O)ccc(NC(=O)c2ccc(Cl)cc2)c1C

$$$$
