
     RDKit          3D

 19 21  0  0  0  0  0  0  0  0999 V2000
    5.1047    2.7806    1.4066 C   0  0  0  0  0  0  0  0  0  0  0  0
    5.4169    1.9704    0.1787 C   0  0  0  0  0  0  0  0  0  0  0  0
    4.6422    0.7499    0.0989 N   0  0  0  0  0  0  0  0  0  0  0  0
    3.2017    0.8561    0.0562 C   0  0  0  0  0  0  0  0  0  0  0  0
    2.3748   -0.1666   -0.0165 N   0  0  0  0  0  0  0  0  0  0  0  0
    1.0917    0.0492   -0.0491 C   0  0  0  0  0  0  0  0  0  0  0  0
    0.1045   -1.0604   -0.1308 C   0  0  0  0  0  0  0  0  0  0  0  0
    0.3481   -2.4198   -0.1833 C   0  0  0  0  0  0  0  0  0  0  0  0
   -0.8205   -3.0802   -0.2510 N   0  0  0  0  0  0  0  0  0  0  0  0
   -1.8437   -2.2049   -0.2457 C   0  0  0  0  0  0  0  0  0  0  0  0
   -3.1970   -2.3727   -0.2976 C   0  0  0  0  0  0  0  0  0  0  0  0
   -4.0438   -1.2788   -0.2767 C   0  0  0  0  0  0  0  0  0  0  0  0
   -3.4963   -0.0024   -0.2020 C   0  0  0  0  0  0  0  0  0  0  0  0
   -4.3869    1.0567   -0.1842 O   0  0  0  0  0  0  0  0  0  0  0  0
   -3.9350    2.3739   -0.1108 C   0  0  0  0  0  0  0  0  0  0  0  0
   -2.1263    0.1506   -0.1502 C   0  0  0  0  0  0  0  0  0  0  0  0
   -1.2686   -0.9573   -0.1713 C   0  0  0  0  0  0  0  0  0  0  0  0
    0.6756    1.3565   -0.0046 C   0  0  0  0  0  0  0  0  0  0  0  0
    2.1580    2.1994    0.0816 S   0  0  0  0  0  0  0  0  0  0  0  0
  1  2  1  0
  2  3  1  0
  3  4  1  0
  4  5  2  0
  5  6  1  0
  6  7  1  0
  7  8  2  0
  8  9  1  0
  9 10  1  0
 10 11  2  0
 11 12  1  0
 12 13  2  0
 13 14  1  0
 14 15  1  0
 13 16  1  0
 16 17  2  0
  6 18  2  0
 18 19  1  0
 19  4  1  0
 17  7  1  0
 17 10  1  0
M  END
>  <zinc_id>  (1) 
ZINC000002327583

>  <smiles>  (1) 
CCNc1nc(-c2c[nH]c3ccc(OC)cc23)cs1

$$$$
