
     RDKit          3D

 22 24  0  0  0  0  0  0  0  0999 V2000
   -2.8172   -1.6473    2.0281 C   0  0  0  0  0  0  0  0  0  0  0  0
   -2.2563   -0.2530    1.7916 C   0  0  0  0  0  0  0  0  0  0  0  0
   -2.4706    0.6025    3.0212 C   0  0  0  0  0  0  0  0  0  0  0  0
   -0.7978   -0.4040    1.4489 C   0  0  0  0  0  0  0  0  0  0  0  0
   -0.8820   -0.6964    0.0109 N   0  0  0  0  0  0  0  0  0  0  0  0
   -0.0337   -1.5670   -0.7704 C   0  0  0  0  0  0  0  0  0  0  0  0
    1.3736   -1.1050   -0.7111 C   0  0  0  0  0  0  0  0  0  0  0  0
    1.7475    0.0093    0.0097 C   0  0  0  0  0  0  0  0  0  0  0  0
    3.0764    0.4370    0.0596 C   0  0  0  0  0  0  0  0  0  0  0  0
    4.0536   -0.2545   -0.6191 C   0  0  0  0  0  0  0  0  0  0  0  0
    5.4149    0.1506   -0.5915 N   0  0  0  0  0  4  0  0  0  0  0  0
    5.8003    1.1481    0.0441 O   0  0  0  0  0  0  0  0  0  0  0  0
    6.3569   -0.5663   -1.2815 O   0  0  0  0  0  1  0  0  0  0  0  0
    3.6517   -1.3647   -1.3317 C   0  0  0  0  0  0  0  0  0  0  0  0
    2.3465   -1.8004   -1.3918 C   0  0  0  0  0  0  0  0  0  0  0  0
   -2.0023    0.0762   -0.4694 C   0  0  0  0  0  0  0  0  0  0  0  0
   -2.3525    0.5496   -1.7151 C   0  0  0  0  0  0  0  0  0  0  0  0
   -3.4984    1.2880   -1.9209 C   0  0  0  0  0  0  0  0  0  0  0  0
   -4.3470    1.5843   -0.8773 C   0  0  0  0  0  0  0  0  0  0  0  0
   -5.5156    2.3317   -1.0601 O   0  0  0  0  0  0  0  0  0  0  0  0
   -4.0073    1.1164    0.3709 C   0  0  0  0  0  0  0  0  0  0  0  0
   -2.8408    0.3649    0.5792 C   0  0  0  0  0  0  0  0  0  0  0  0
  1  2  1  0
  2  3  1  0
  2  4  1  0
  4  5  1  0
  5  6  1  0
  6  7  1  0
  7  8  2  0
  8  9  1  0
  9 10  2  0
 10 11  1  0
 11 12  2  0
 11 13  1  0
 10 14  1  0
 14 15  2  0
  5 16  1  0
 16 17  2  0
 17 18  1  0
 18 19  2  0
 19 20  1  0
 19 21  1  0
 21 22  2  0
 22  2  1  0
 15  7  1  0
 22 16  1  0
M  CHG  2  11   1  13  -1
M  END
>  <zinc_id>  (1) 
ZINC000002524786

>  <smiles>  (1) 
CC1(C)CN(Cc2ccc([N+](=O)[O-])cc2)c2ccc(O)cc21

$$$$
