
     RDKit          3D

 18 19  0  0  0  0  0  0  0  0999 V2000
    7.0763    0.0914   -0.1948 C   0  0  0  0  0  0  0  0  0  0  0  0
    5.5998    0.3218   -0.2403 C   0  0  0  0  0  0  0  0  0  0  0  0
    4.8567   -0.9452    0.0554 C   0  0  0  0  0  0  0  0  0  0  0  0
    3.3953   -0.7159    0.0094 C   0  0  0  0  0  0  0  0  0  0  0  0
    2.6906   -0.8632   -1.1452 C   0  0  0  0  0  0  0  0  0  0  0  0
    1.3113   -0.6428   -1.1650 C   0  0  0  0  0  0  0  0  0  0  0  0
    0.6385   -0.2733   -0.0204 C   0  0  0  0  0  0  0  0  0  0  0  0
   -0.8099   -0.0279    0.0163 C   0  0  0  0  0  0  0  0  0  0  0  0
   -1.4875    0.4804   -1.0719 C   0  0  0  0  0  0  0  0  0  0  0  0
   -2.8576    0.7126   -1.0407 C   0  0  0  0  0  0  0  0  0  0  0  0
   -3.5998    0.4416    0.0901 C   0  0  0  0  0  0  0  0  0  0  0  0
   -5.0356    0.6932    0.1005 C   0  0  0  0  0  0  0  0  0  0  0  0
   -5.8180    0.4096    1.2524 N   0  0  0  0  0  0  0  0  0  0  0  0
   -5.6422    1.1657   -0.8932 O   0  0  0  0  0  0  0  0  0  0  0  0
   -2.9192   -0.0646    1.1715 C   0  0  0  0  0  0  0  0  0  0  0  0
   -1.5590   -0.2963    1.1431 C   0  0  0  0  0  0  0  0  0  0  0  0
    1.4017   -0.1372    1.1276 C   0  0  0  0  0  0  0  0  0  0  0  0
    2.7587   -0.3498    1.1653 C   0  0  0  0  0  0  0  0  0  0  0  0
  1  2  1  0
  2  3  1  0
  3  4  1  0
  4  5  2  0
  5  6  1  0
  6  7  2  0
  7  8  1  0
  8  9  2  0
  9 10  1  0
 10 11  2  0
 11 12  1  0
 12 13  1  0
 12 14  2  0
 11 15  1  0
 15 16  2  0
  7 17  1  0
 17 18  2  0
 18  4  1  0
 16  8  1  0
M  END
>  <zinc_id>  (1) 
ZINC000000091248

>  <smiles>  (1) 
CCCc1ccc(-c2ccc(C(N)=O)cc2)cc1

$$$$
