
     RDKit          3D

 28 32  0  0  0  0  0  0  0  0999 V2000
   -2.4636    0.9755   -0.7738 O   0  0  0  0  0  0  0  0  0  0  0  0
   -2.5953    0.0388    0.0907 C   0  0  0  0  0  0  0  0  0  0  0  0
   -1.4162   -0.6156    0.6373 C   0  0  0  0  0  0  0  0  0  0  0  0
   -0.1666   -0.1229    0.1330 N   0  0  0  0  0  0  0  0  0  0  0  0
    0.0397   -0.4331   -1.2036 C   0  0  0  0  0  0  0  0  0  0  0  0
    0.3115   -1.8911   -1.2368 C   0  0  0  0  0  0  0  0  0  0  0  0
    0.5170   -2.3403    0.1452 C   0  0  0  0  0  0  0  0  0  0  0  0
    0.8471   -0.9676    0.9569 C   0  0  1  0  0  0  0  0  0  0  0  0
    2.1468   -0.5526    0.1607 C   0  0  0  0  0  0  0  0  0  0  0  0
    3.2163   -0.2243    0.8961 N   0  0  0  0  0  0  0  0  0  0  0  0
    4.2114    0.0961    0.0432 C   0  0  0  0  0  0  0  0  0  0  0  0
    5.5558    0.5184    0.2813 C   0  0  0  0  0  0  0  0  0  0  0  0
    6.0251    0.6553    1.5599 C   0  0  0  0  0  0  0  0  0  0  0  0
    7.3189    1.0651    1.8013 C   0  0  0  0  0  0  0  0  0  0  0  0
    8.1242    1.3321    0.7583 N   0  0  0  0  0  0  0  0  0  0  0  0
    7.7227    1.2163   -0.5040 C   0  0  0  0  0  0  0  0  0  0  0  0
    6.4083    0.8001   -0.7470 C   0  0  0  0  0  0  0  0  0  0  0  0
    3.6616   -0.0647   -1.1729 N   0  0  0  0  0  0  0  0  0  0  0  0
    2.4348   -0.4509   -1.0385 O   0  0  0  0  0  0  0  0  0  0  0  0
   -3.8800   -0.3560    0.5121 N   0  0  0  0  0  0  0  0  0  0  0  0
   -4.1827   -1.3892    1.4753 C   0  0  0  0  0  0  0  0  0  0  0  0
   -5.5799   -1.0447    1.9954 C   0  0  0  0  0  0  0  0  0  0  0  0
   -6.1143   -0.1918    0.9158 C   0  0  0  0  0  0  0  0  0  0  0  0
   -7.3885    0.2401    0.6599 C   0  0  0  0  0  0  0  0  0  0  0  0
   -7.6436    1.0560   -0.4434 C   0  0  0  0  0  0  0  0  0  0  0  0
   -6.6358    1.4377   -1.2840 C   0  0  0  0  0  0  0  0  0  0  0  0
   -5.3659    1.0163   -1.0420 C   0  0  0  0  0  0  0  0  0  0  0  0
   -5.1088    0.1972    0.0653 C   0  0  0  0  0  0  0  0  0  0  0  0
  1  2  2  0
  2  3  1  0
  3  4  1  0
  4  5  1  0
  5  6  1  0
  6  7  1  0
  7  8  1  0
  8  9  1  6
  9 10  2  0
 10 11  1  0
 11 12  1  0
 12 13  2  0
 13 14  1  0
 14 15  2  0
 15 16  1  0
 16 17  2  0
 11 18  2  0
 18 19  1  0
  2 20  1  0
 20 21  1  0
 21 22  1  0
 22 23  1  0
 23 24  2  0
 24 25  1  0
 25 26  2  0
 26 27  1  0
 27 28  2  0
  8  4  1  0
 19  9  1  0
 28 20  1  0
 17 12  1  0
 28 23  1  0
M  END
>  <zinc_id>  (1) 
ZINC000000024486

>  <smiles>  (1) 
O=C(CN1CCC[C@H]1c1nc(-c2ccncc2)no1)N1CCc2ccccc21

$$$$
