
     RDKit          3D

 20 22  0  0  0  0  0  0  0  0999 V2000
    2.3849    2.8642    0.3943 C   0  0  0  0  0  0  0  0  0  0  0  0
    2.3572    2.6077   -1.1065 C   0  0  0  0  0  0  0  0  0  0  0  0
    1.1462    1.5675   -1.3754 C   0  0  2  0  0  0  0  0  0  0  0  0
    0.0282    2.5882   -0.7550 C   0  0  0  0  0  0  0  0  0  0  0  0
    1.4558    0.5783   -0.2664 C   0  0  0  0  0  0  0  0  0  0  0  0
    2.6937    0.5155    0.2763 C   0  0  0  0  0  0  0  0  0  0  0  0
    3.0189   -0.3931    1.2999 C   0  0  0  0  0  0  0  0  0  0  0  0
    4.3252   -0.4475    1.8609 N   0  0  0  0  0  0  0  0  0  0  0  0
    2.0776   -1.2246    1.7557 N   0  0  0  0  0  0  0  0  0  0  0  0
    0.8476   -1.1573    1.2113 C   0  0  0  0  0  0  0  0  0  0  0  0
   -0.2879   -1.8625    1.4604 N   0  0  0  0  0  0  0  0  0  0  0  0
   -1.2672   -1.4272    0.6452 C   0  0  0  0  0  0  0  0  0  0  0  0
   -2.5912   -1.7407    0.4297 C   0  0  0  0  0  0  0  0  0  0  0  0
   -3.3668   -1.0982   -0.5137 C   0  0  0  0  0  0  0  0  0  0  0  0
   -4.7919   -1.4248   -0.7565 C   0  0  0  0  0  0  0  0  0  0  0  0
   -2.8115   -0.0972   -1.2832 C   0  0  0  0  0  0  0  0  0  0  0  0
   -3.5588    0.6509   -2.3199 C   0  0  0  0  0  0  0  0  0  0  0  0
   -1.4881    0.1981   -1.0496 C   0  0  0  0  0  0  0  0  0  0  0  0
   -0.7261   -0.4358   -0.1199 C   0  0  0  0  0  0  0  0  0  0  0  0
    0.5540   -0.2615    0.2124 N   0  0  0  0  0  0  0  0  0  0  0  0
  1  2  1  0
  2  3  1  0
  3  4  1  1
  3  5  1  0
  5  6  2  0
  6  7  1  0
  7  8  1  0
  7  9  2  0
  9 10  1  0
 10 11  2  0
 11 12  1  0
 12 13  2  0
 13 14  1  0
 14 15  1  0
 14 16  2  0
 16 17  1  0
 16 18  1  0
 18 19  2  0
 19 20  1  0
 20  5  1  0
 20 10  1  0
 19 12  1  0
M  END
>  <zinc_id>  (1) 
ZINC000001041070

>  <smiles>  (1) 
CC[C@H](C)c1cc(N)nc2nc3cc(C)c(C)cc3n12

$$$$
