
     RDKit          3D

 21 22  0  0  0  0  0  0  0  0999 V2000
   -5.2489   -0.8089    1.9471 C   0  0  0  0  0  0  0  0  0  0  0  0
   -4.4395   -1.3374    0.7700 C   0  0  0  0  0  0  0  0  0  0  0  0
   -3.2960   -0.5099    0.6941 O   0  0  0  0  0  0  0  0  0  0  0  0
   -2.2949   -0.6543   -0.2484 C   0  0  0  0  0  0  0  0  0  0  0  0
   -2.4113   -1.5807   -1.0898 O   0  0  0  0  0  0  0  0  0  0  0  0
   -1.1585    0.2654   -0.2257 C   0  0  0  0  0  0  0  0  0  0  0  0
   -0.2632    0.1113   -1.0938 C   0  0  0  0  0  0  0  0  0  0  0  0
   -0.3681   -0.9795   -2.1101 C   0  0  0  0  0  0  0  0  0  0  0  0
    1.0462    0.9309   -1.3097 C   0  0  2  0  0  0  0  0  0  0  0  0
    2.0084   -0.0937   -0.5265 C   0  0  0  0  0  0  0  0  0  0  0  0
    1.6225   -0.5906    0.6603 C   0  0  0  0  0  0  0  0  0  0  0  0
    2.4334   -1.4627    1.3433 C   0  0  0  0  0  0  0  0  0  0  0  0
    3.6404   -1.8131    0.7886 C   0  0  0  0  0  0  0  0  0  0  0  0
    4.0139   -1.2892   -0.4314 C   0  0  0  0  0  0  0  0  0  0  0  0
    3.1850   -0.4129   -1.1044 C   0  0  0  0  0  0  0  0  0  0  0  0
    3.5958    0.2864   -2.6505 Cl  0  0  0  0  0  0  0  0  0  0  0  0
    0.9982    1.9805   -0.2133 N   0  0  0  0  0  0  0  0  0  0  0  0
    0.0233    2.1417    0.7252 C   0  0  0  0  0  0  0  0  0  0  0  0
    0.1230    3.0643    1.5761 O   0  0  0  0  0  0  0  0  0  0  0  0
   -1.0912    1.2836    0.7472 N   0  0  0  0  0  0  0  0  0  0  0  0
   -2.1184    1.4688    1.7517 C   0  0  0  0  0  0  0  0  0  0  0  0
  1  2  1  0
  2  3  1  0
  3  4  1  0
  4  5  2  0
  4  6  1  0
  6  7  2  0
  7  8  1  0
  7  9  1  0
  9 10  1  1
 10 11  2  0
 11 12  1  0
 12 13  2  0
 13 14  1  0
 14 15  2  0
 15 16  1  0
  9 17  1  0
 17 18  1  0
 18 19  2  0
 18 20  1  0
 20 21  1  0
 20  6  1  0
 15 10  1  0
M  END
>  <zinc_id>  (1) 
ZINC000000234809

>  <smiles>  (1) 
CCOC(=O)C1=C(C)[C@H](c2ccccc2Cl)NC(=O)N1C

$$$$
