
     RDKit          3D

 19 20  0  0  0  0  0  0  0  0999 V2000
    5.8670    0.3046   -0.0174 C   0  0  0  0  0  0  0  0  0  0  0  0
    5.3481   -1.1192   -0.1029 C   0  0  0  0  0  0  0  0  0  0  0  0
    6.1945   -1.8801   -1.0676 C   0  0  0  0  0  0  0  0  0  0  0  0
    3.9024   -1.1690   -0.4268 C   0  0  0  0  0  0  0  0  0  0  0  0
    3.4284   -1.7261   -1.4356 O   0  0  0  0  0  0  0  0  0  0  0  0
    3.0083   -0.5374    0.4783 N   0  0  0  0  0  0  0  0  0  0  0  0
    1.6178   -0.5122    0.2886 N   0  0  0  0  0  0  0  0  0  0  0  0
    0.8907    0.4984    0.6146 C   0  0  0  0  0  0  0  0  0  0  0  0
   -0.5554    0.5420    0.4248 C   0  0  0  0  0  0  0  0  0  0  0  0
   -1.2969   -0.4638   -0.1109 C   0  0  0  0  0  0  0  0  0  0  0  0
   -2.6764   -0.2842   -0.2332 C   0  0  0  0  0  0  0  0  0  0  0  0
   -3.4958   -1.2570   -0.7660 C   0  0  0  0  0  0  0  0  0  0  0  0
   -4.8655   -1.0821   -0.8889 C   0  0  0  0  0  0  0  0  0  0  0  0
   -5.4492    0.1146   -0.4629 C   0  0  0  0  0  0  0  0  0  0  0  0
   -4.6489    1.0809    0.0644 C   0  0  0  0  0  0  0  0  0  0  0  0
   -3.2853    0.8851    0.1775 C   0  0  0  0  0  0  0  0  0  0  0  0
   -2.5233    1.8413    0.6950 N   0  0  0  0  0  0  0  0  0  0  0  0
   -1.1858    1.7193    0.8358 C   0  0  0  0  0  0  0  0  0  0  0  0
   -0.2746    3.0449    1.5324 Cl  0  0  0  0  0  0  0  0  0  0  0  0
  1  2  1  0
  2  3  1  0
  2  4  1  0
  4  5  2  0
  4  6  1  0
  6  7  1  0
  7  8  2  0
  8  9  1  0
  9 10  2  0
 10 11  1  0
 11 12  2  0
 12 13  1  0
 13 14  2  0
 14 15  1  0
 15 16  2  0
 16 17  1  0
 17 18  2  0
 18 19  1  0
 18  9  1  0
 16 11  1  0
M  END
>  <zinc_id>  (1) 
ZINC000004490978

>  <smiles>  (1) 
CC(C)C(=O)N/N=C/c1cc2ccccc2nc1Cl

$$$$
