
     RDKit          3D

 20 21  0  0  0  0  0  0  0  0999 V2000
   -3.6553   -0.5820   -2.4206 C   0  0  0  0  0  0  0  0  0  0  0  0
   -2.6865   -0.1863   -1.3220 C   0  0  0  0  0  0  0  0  0  0  0  0
   -1.4025   -0.3272   -1.4805 N   0  0  0  0  0  0  0  0  0  0  0  0
   -0.5766    0.0226   -0.5139 C   0  0  0  0  0  0  0  0  0  0  0  0
    0.8670   -0.0499   -0.4836 N   0  0  0  0  0  0  0  0  0  0  0  0
    1.5967    0.3711    0.6420 C   0  0  0  0  0  0  0  0  0  0  0  0
    0.9439    0.8155    1.6270 O   0  0  0  0  0  0  0  0  0  0  0  0
    3.0433    0.2819    0.6321 C   0  0  0  0  0  0  0  0  0  0  0  0
    3.8036    0.6882    1.7265 C   0  0  0  0  0  0  0  0  0  0  0  0
    5.1743    0.5791    1.6574 C   0  0  0  0  0  0  0  0  0  0  0  0
    5.7846    0.0788    0.5305 C   0  0  0  0  0  0  0  0  0  0  0  0
    5.0459   -0.3246   -0.5536 C   0  0  0  0  0  0  0  0  0  0  0  0
    3.6701   -0.2168   -0.4884 C   0  0  0  0  0  0  0  0  0  0  0  0
    2.8871   -0.6219   -1.5833 O   0  0  0  0  0  0  0  0  0  0  0  0
   -1.6572    0.5801    0.6847 S   0  0  0  0  0  0  0  0  0  0  0  0
   -3.1312    0.3273   -0.1392 C   0  0  0  0  0  0  0  0  0  0  0  0
   -4.5581    0.5759    0.2603 C   0  0  0  0  0  0  0  0  0  0  0  0
   -4.5836    1.1612    1.6769 C   0  0  0  0  0  0  0  0  0  0  0  0
   -5.3646   -0.7024    0.2068 C   0  0  0  0  0  0  0  0  0  0  0  0
   -5.2010    1.6066   -0.6591 C   0  0  0  0  0  0  0  0  0  0  0  0
  1  2  1  0
  2  3  1  0
  3  4  2  0
  4  5  1  0
  5  6  1  0
  6  7  2  0
  6  8  1  0
  8  9  2  0
  9 10  1  0
 10 11  2  0
 11 12  1  0
 12 13  2  0
 13 14  1  0
  4 15  1  0
 15 16  1  0
 16 17  1  0
 17 18  1  0
 17 19  1  0
 17 20  1  0
 16  2  2  0
 13  8  1  0
M  END
>  <zinc_id>  (1) 
ZINC000000551476

>  <smiles>  (1) 
Cc1nc(NC(=O)c2ccccc2O)sc1C(C)(C)C

$$$$
