
     RDKit          3D

 19 20  0  0  0  0  0  0  0  0999 V2000
   -3.6530    2.8535   -0.9747 C   0  0  0  0  0  0  0  0  0  0  0  0
   -2.8067    1.7048   -0.5508 C   0  0  0  0  0  0  0  0  0  0  0  0
   -1.5763    1.8562    0.0339 C   0  0  0  0  0  0  0  0  0  0  0  0
   -0.7908    0.7927    0.4272 C   0  0  0  0  0  0  0  0  0  0  0  0
    0.4696    0.9308    1.0264 N   0  0  0  0  0  0  0  0  0  0  0  0
    1.5679    0.4536    0.5828 C   0  0  0  0  0  0  0  0  0  0  0  0
    2.7880    0.6994    1.3439 C   0  0  0  0  0  0  0  0  0  0  0  0
    3.9594    0.2180    0.9154 C   0  0  0  0  0  0  0  0  0  0  0  0
    4.0626   -0.5603   -0.3120 C   0  0  0  0  0  0  0  0  0  0  0  0
    5.1766   -1.0182   -0.7198 O   0  0  0  0  0  0  0  0  0  0  0  0
    2.8452   -0.8090   -1.0772 C   0  0  0  0  0  0  0  0  0  0  0  0
    1.6909   -0.3272   -0.6427 C   0  0  0  0  0  0  0  0  0  0  0  0
   -1.2992   -0.4708    0.2064 C   0  0  0  0  0  0  0  0  0  0  0  0
   -0.5392   -1.6993    0.5904 C   0  0  0  0  0  0  0  0  0  0  0  0
   -1.3000   -2.9533    0.2501 C   0  0  0  0  0  0  0  0  0  0  0  0
   -0.2101   -1.7137    2.0562 C   0  0  0  0  0  0  0  0  0  0  0  0
   -2.5388   -0.6688   -0.3819 C   0  0  0  0  0  0  0  0  0  0  0  0
   -3.2979    0.4408   -0.7634 C   0  0  0  0  0  0  0  0  0  0  0  0
   -4.5481    0.2707   -1.3572 O   0  0  0  0  0  0  0  0  0  0  0  0
  1  2  1  0
  2  3  2  0
  3  4  1  0
  4  5  1  0
  5  6  2  3
  6  7  1  0
  7  8  2  0
  8  9  1  0
  9 10  2  0
  9 11  1  0
 11 12  2  0
  4 13  2  0
 13 14  1  0
 14 15  1  0
 14 16  1  0
 13 17  1  0
 17 18  2  0
 18 19  1  0
 18  2  1  0
 12  6  1  0
M  END
>  <zinc_id>  (1) 
ZINC000004416664

>  <smiles>  (1) 
Cc1cc(N=C2C=CC(=O)C=C2)c(C(C)C)cc1O

$$$$
