
     RDKit          3D

 19 20  0  0  0  0  0  0  0  0999 V2000
    6.3292   -1.0003   -1.4846 C   0  0  0  0  0  0  0  0  0  0  0  0
    4.9464   -0.9872   -1.7156 O   0  0  0  0  0  0  0  0  0  0  0  0
    4.0449   -0.5704   -0.7488 C   0  0  0  0  0  0  0  0  0  0  0  0
    4.5474   -0.1613    0.4682 C   0  0  0  0  0  0  0  0  0  0  0  0
    3.6766    0.2507    1.4282 C   0  0  0  0  0  0  0  0  0  0  0  0
    2.3060    0.2699    1.2160 C   0  0  0  0  0  0  0  0  0  0  0  0
    1.7910   -0.1364    0.0043 C   0  0  0  0  0  0  0  0  0  0  0  0
    0.3503   -0.1214   -0.2328 C   0  0  0  0  0  0  0  0  0  0  0  0
   -0.0616   -0.5234   -1.4120 C   0  0  0  0  0  0  0  0  0  0  0  0
   -1.8091   -0.5270   -1.7590 S   0  0  0  0  0  0  0  0  0  0  0  0
   -2.6006    0.0671   -0.2868 C   0  0  0  0  0  0  0  0  0  0  0  0
   -3.9939    0.1743   -0.2627 N   0  0  0  0  0  0  0  0  0  0  0  0
   -4.7445    0.6577    0.8854 C   0  0  0  0  0  0  0  0  0  0  0  0
   -4.3168    2.0776    1.2169 C   0  0  0  0  0  0  0  0  0  0  0  0
   -4.5301   -0.2855    2.0388 C   0  0  0  0  0  0  0  0  0  0  0  0
   -6.2080    0.6700    0.4620 C   0  0  0  0  0  0  0  0  0  0  0  0
   -1.8959    0.3867    0.7236 N   0  0  0  0  0  0  0  0  0  0  0  0
   -0.5163    0.3123    0.7864 N   0  0  0  0  0  0  0  0  0  0  0  0
    2.6853   -0.5533   -0.9643 C   0  0  0  0  0  0  0  0  0  0  0  0
  1  2  1  0
  2  3  1  0
  3  4  2  0
  4  5  1  0
  5  6  2  0
  6  7  1  0
  7  8  1  0
  8  9  2  0
  9 10  1  0
 10 11  1  0
 11 12  1  0
 12 13  1  0
 13 14  1  0
 13 15  1  0
 13 16  1  0
 11 17  2  0
 17 18  1  0
  7 19  2  0
 19  3  1  0
 18  8  1  0
M  END
>  <zinc_id>  (1) 
ZINC000003547621

>  <smiles>  (1) 
COc1cccc(C2=CSC(NC(C)(C)C)=NN2)c1

$$$$
