
     RDKit          3D

 21 23  0  0  0  0  0  0  0  0999 V2000
   -3.3433   -2.8909   -2.2703 C   0  0  0  0  0  0  0  0  0  0  0  0
   -3.0351   -1.6721   -1.4416 C   0  0  0  0  0  0  0  0  0  0  0  0
   -4.0353   -0.8319   -1.0116 C   0  0  0  0  0  0  0  0  0  0  0  0
   -3.8008    0.2926   -0.2527 C   0  0  0  0  0  0  0  0  0  0  0  0
   -4.8858    1.1996    0.2108 C   0  0  0  0  0  0  0  0  0  0  0  0
   -2.5070    0.6113    0.1054 C   0  0  0  0  0  0  0  0  0  0  0  0
   -2.1915    1.6772    0.8355 N   0  0  0  0  0  0  0  0  0  0  0  0
   -0.9152    1.9480    1.1605 C   0  0  0  0  0  0  0  0  0  0  0  0
   -0.6070    3.1672    1.9895 C   0  0  0  0  0  0  0  0  0  0  0  0
    0.1275    1.1260    0.7473 C   0  0  0  0  0  0  0  0  0  0  0  0
   -0.1672    0.0140   -0.0105 C   0  0  0  0  0  0  0  0  0  0  0  0
    0.8582   -0.8594   -0.4591 N   0  0  0  0  0  0  0  0  0  0  0  0
    2.2187   -0.6034   -0.1339 C   0  0  0  0  0  0  0  0  0  0  0  0
    2.6148    0.4907    0.6242 C   0  0  0  0  0  0  0  0  0  0  0  0
    3.9499    0.7043    0.9188 C   0  0  0  0  0  0  0  0  0  0  0  0
    4.9238   -0.1438    0.4806 C   0  0  0  0  0  0  0  0  0  0  0  0
    6.2745    0.0637    0.7732 O   0  0  0  0  0  0  0  0  0  0  0  0
    4.5360   -1.2411   -0.2786 C   0  0  0  0  0  0  0  0  0  0  0  0
    3.2088   -1.4504   -0.5695 C   0  0  0  0  0  0  0  0  0  0  0  0
   -1.4834   -0.2409   -0.3297 C   0  0  0  0  0  0  0  0  0  0  0  0
   -1.7407   -1.3608   -1.0882 C   0  0  0  0  0  0  0  0  0  0  0  0
  1  2  1  0
  2  3  2  0
  3  4  1  0
  4  5  1  0
  4  6  2  0
  6  7  1  0
  7  8  2  0
  8  9  1  0
  8 10  1  0
 10 11  2  0
 11 12  1  0
 12 13  1  0
 13 14  2  0
 14 15  1  0
 15 16  2  0
 16 17  1  0
 16 18  1  0
 18 19  2  0
 11 20  1  0
 20 21  2  0
 21  2  1  0
 20  6  1  0
 19 13  1  0
M  END
>  <zinc_id>  (1) 
ZINC000000071992

>  <smiles>  (1) 
Cc1cc(C)c2nc(C)cc(Nc3ccc(O)cc3)c2c1

$$$$
