
     RDKit          3D

 22 24  0  0  0  0  0  0  0  0999 V2000
   -3.0403    2.8815    1.6807 C   0  0  0  0  0  0  0  0  0  0  0  0
   -3.5670    1.6383    1.3065 O   0  0  0  0  0  0  0  0  0  0  0  0
   -2.7607    0.6429    0.7848 C   0  0  0  0  0  0  0  0  0  0  0  0
   -1.4290    0.8588    0.6260 C   0  0  0  0  0  0  0  0  0  0  0  0
   -0.5449   -0.1133    0.0989 C   0  0  0  0  0  0  0  0  0  0  0  0
    0.8608    0.2456   -0.0418 C   0  0  0  0  0  0  0  0  0  0  0  0
    1.8865   -0.4152   -0.5510 N   0  0  0  0  0  0  0  0  0  0  0  0
    3.0397    0.2625   -0.5209 C   0  0  0  0  0  0  0  0  0  0  0  0
    4.3358   -0.0119   -0.9267 C   0  0  0  0  0  0  0  0  0  0  0  0
    5.3187    0.9361   -0.7440 C   0  0  0  0  0  0  0  0  0  0  0  0
    5.0341    2.1532   -0.1642 C   0  0  0  0  0  0  0  0  0  0  0  0
    3.7286    2.3982    0.2312 C   0  0  0  0  0  0  0  0  0  0  0  0
    2.7241    1.4691    0.0614 C   0  0  0  0  0  0  0  0  0  0  0  0
    1.4125    1.4443    0.3436 N   0  0  0  0  0  0  0  0  0  0  0  0
   -1.0632   -1.3158   -0.2607 C   0  0  0  0  0  0  0  0  0  0  0  0
   -0.2661   -2.3430   -0.7924 N   0  0  0  0  0  4  0  0  0  0  0  0
    0.8858   -2.6659   -0.5322 O   0  0  0  0  0  0  0  0  0  0  0  0
   -0.8919   -3.1598   -1.7460 O   0  0  0  0  0  1  0  0  0  0  0  0
   -2.4547   -1.5449   -0.0969 C   0  0  0  0  0  0  0  0  0  0  0  0
   -3.2831   -0.5807    0.4165 C   0  0  0  0  0  0  0  0  0  0  0  0
   -4.6447   -0.7854    0.5844 O   0  0  0  0  0  0  0  0  0  0  0  0
   -5.2810   -1.9946    0.2426 C   0  0  0  0  0  0  0  0  0  0  0  0
  1  2  1  0
  2  3  1  0
  3  4  2  0
  4  5  1  0
  5  6  1  0
  6  7  2  0
  7  8  1  0
  8  9  2  0
  9 10  1  0
 10 11  2  0
 11 12  1  0
 12 13  2  0
 13 14  1  0
  5 15  2  0
 15 16  1  0
 16 17  2  0
 16 18  1  0
 15 19  1  0
 19 20  2  0
 20 21  1  0
 21 22  1  0
 20  3  1  0
 14  6  1  0
 13  8  1  0
M  CHG  2  16   1  18  -1
M  END
>  <zinc_id>  (1) 
ZINC000000032149

>  <smiles>  (1) 
COc1cc(-c2nc3ccccc3[nH]2)c([N+](=O)[O-])cc1OC

$$$$
