
     RDKit          3D

 19 20  0  0  0  0  0  0  0  0999 V2000
   -0.9330    3.2482   -0.2233 C   0  0  0  0  0  0  0  0  0  0  0  0
   -0.2680    1.9708   -0.8922 C   0  0  0  0  0  0  0  0  0  0  0  0
   -0.9428    2.1458   -2.3579 C   0  0  0  0  0  0  0  0  0  0  0  0
   -0.9914    0.7956   -0.2322 C   0  0  0  0  0  0  0  0  0  0  0  0
   -2.3896    0.7179   -0.3273 C   0  0  0  0  0  0  0  0  0  0  0  0
   -3.0220   -0.4270    0.2540 C   0  0  0  0  0  0  0  0  0  0  0  0
   -4.4996   -0.4340    0.0959 C   0  0  0  0  0  0  0  0  0  0  0  0
   -4.8561   -1.6439   -0.5472 O   0  0  0  0  0  0  0  0  0  0  0  0
   -2.2808   -1.3281    0.8473 C   0  0  0  0  0  0  0  0  0  0  0  0
   -0.8613   -1.2363    0.9352 C   0  0  0  0  0  0  0  0  0  0  0  0
    0.0818   -2.4306    1.7901 Cl  0  0  0  0  0  0  0  0  0  0  0  0
   -0.2140   -0.1390    0.3594 C   0  0  0  0  0  0  0  0  0  0  0  0
    1.2305   -0.1559    0.3537 C   0  0  0  0  0  0  0  0  0  0  0  0
    1.9840   -1.2313    0.7216 C   0  0  0  0  0  0  0  0  0  0  0  0
    3.3472   -1.3235    0.6737 C   0  0  0  0  0  0  0  0  0  0  0  0
    3.9872   -0.1790    0.1717 C   0  0  0  0  0  0  0  0  0  0  0  0
    5.4055   -0.2560    0.0673 O   0  0  0  0  0  0  0  0  0  0  0  0
    3.3047    0.9278   -0.2214 C   0  0  0  0  0  0  0  0  0  0  0  0
    1.9178    0.9785   -0.1386 C   0  0  0  0  0  0  0  0  0  0  0  0
  1  2  1  0
  2  3  1  0
  2  4  1  0
  4  5  2  0
  5  6  1  0
  6  7  1  0
  7  8  1  0
  6  9  2  0
  9 10  1  0
 10 11  1  0
 10 12  2  0
 12 13  1  0
 13 14  2  0
 14 15  1  0
 15 16  2  0
 16 17  1  0
 16 18  1  0
 18 19  2  0
 12  4  1  0
 19 13  1  0
M  END
>  <zinc_id>  (1) 
ZINC000000022584

>  <smiles>  (1) 
CC(C)c1cc(CO)cc(Cl)c1-c1ccc(O)cc1

$$$$
