
     RDKit          3D

 19 20  0  0  0  0  0  0  0  0999 V2000
    6.1032   -0.0729    0.4074 C   0  0  0  0  0  0  0  0  0  0  0  0
    4.9031    0.5370    1.0789 C   0  0  0  0  0  0  0  0  0  0  0  0
    3.7150   -0.5050    0.5538 C   0  0  2  0  0  0  0  0  0  0  0  0
    4.0016   -0.1606   -1.0241 C   0  0  0  0  0  0  0  0  0  0  0  0
    2.9193   -1.0377   -1.6239 C   0  0  0  0  0  0  0  0  0  0  0  0
    1.6963   -0.5444   -1.3314 C   0  0  0  0  0  0  0  0  0  0  0  0
    0.5177   -1.1548   -1.7593 N   0  0  0  0  0  0  0  0  0  0  0  0
   -0.6922   -1.2425   -1.0717 N   0  0  0  0  0  0  0  0  0  0  0  0
   -1.4173   -0.0966   -0.6989 C   0  0  0  0  0  0  0  0  0  0  0  0
   -0.9233    1.0158   -1.0142 O   0  0  0  0  0  0  0  0  0  0  0  0
   -2.6934   -0.1280    0.0237 C   0  0  0  0  0  0  0  0  0  0  0  0
   -3.8953   -0.1735   -0.6874 C   0  0  0  0  0  0  0  0  0  0  0  0
   -5.1090   -0.2030   -0.0926 C   0  0  0  0  0  0  0  0  0  0  0  0
   -5.2195   -0.1892    1.2630 C   0  0  0  0  0  0  0  0  0  0  0  0
   -4.0407   -0.1449    2.0220 C   0  0  0  0  0  0  0  0  0  0  0  0
   -2.8005   -0.1155    1.3955 C   0  0  0  0  0  0  0  0  0  0  0  0
   -1.3677   -0.0626    2.3675 Cl  0  0  0  0  0  0  0  0  0  0  0  0
    1.7613    0.6990   -0.5259 C   0  0  0  0  0  0  0  0  0  0  0  0
    2.5413    0.6130    0.7177 C   0  0  0  0  0  0  0  0  0  0  0  0
  1  2  1  0
  3  2  1  1
  3  4  1  0
  4  5  1  0
  5  6  2  0
  6  7  1  0
  7  8  1  0
  8  9  1  0
  9 10  2  0
  9 11  1  0
 11 12  2  0
 12 13  1  0
 13 14  2  0
 14 15  1  0
 15 16  2  0
 16 17  1  0
  6 18  1  0
 18 19  1  0
 19  3  1  0
 16 11  1  0
M  END
>  <zinc_id>  (1) 
ZINC000002742536

>  <smiles>  (1) 
CC[C@@H]1CC=C(NNC(=O)c2ccccc2Cl)CC1

$$$$
