
     RDKit          3D

 19 21  0  0  0  0  0  0  0  0999 V2000
    4.8060    1.1261    2.0268 C   0  0  0  0  0  0  0  0  0  0  0  0
    4.1318    0.4442    0.8704 C   0  0  0  0  0  0  0  0  0  0  0  0
    4.6554    0.8992   -0.4557 C   0  0  0  0  0  0  0  0  0  0  0  0
    4.1653   -1.0616    1.0302 C   0  0  0  0  0  0  0  0  0  0  0  0
    3.5283   -1.7273   -0.0610 N   0  0  0  0  0  0  0  0  0  0  0  0
    2.1333   -1.5084   -0.3873 C   0  0  0  0  0  0  0  0  0  0  0  0
    1.2625   -0.7223    0.2083 N   0  0  0  0  0  0  0  0  0  0  0  0
    0.0346   -0.6645   -0.2450 C   0  0  0  0  0  0  0  0  0  0  0  0
   -0.9855    0.2050    0.3896 C   0  0  0  0  0  0  0  0  0  0  0  0
   -0.8437    1.0456    1.4844 C   0  0  0  0  0  0  0  0  0  0  0  0
   -2.0160    1.6557    1.7347 N   0  0  0  0  0  0  0  0  0  0  0  0
   -2.9534    1.2571    0.8440 C   0  0  0  0  0  0  0  0  0  0  0  0
   -4.2947    1.5760    0.6638 C   0  0  0  0  0  0  0  0  0  0  0  0
   -4.9469    0.9543   -0.3796 C   0  0  0  0  0  0  0  0  0  0  0  0
   -4.3295    0.0556   -1.2218 C   0  0  0  0  0  0  0  0  0  0  0  0
   -3.0040   -0.2412   -1.0212 C   0  0  0  0  0  0  0  0  0  0  0  0
   -2.3041    0.3620    0.0199 C   0  0  0  0  0  0  0  0  0  0  0  0
   -0.2642   -1.4441   -1.3318 C   0  0  0  0  0  0  0  0  0  0  0  0
    1.2247   -2.2115   -1.6406 S   0  0  0  0  0  0  0  0  0  0  0  0
  1  2  1  0
  2  3  1  0
  2  4  1  0
  4  5  1  0
  5  6  1  0
  6  7  2  0
  7  8  1  0
  8  9  1  0
  9 10  2  0
 10 11  1  0
 11 12  1  0
 12 13  2  0
 13 14  1  0
 14 15  2  0
 15 16  1  0
 16 17  2  0
  8 18  2  0
 18 19  1  0
 19  6  1  0
 17  9  1  0
 17 12  1  0
M  END
>  <zinc_id>  (1) 
ZINC000003547661

>  <smiles>  (1) 
CC(C)CNc1nc(-c2c[nH]c3ccccc23)cs1

$$$$
