
     RDKit          3D

 18 19  0  0  0  0  0  0  0  0999 V2000
   -3.9978    2.1116    0.0290 C   0  0  0  0  0  0  0  0  0  0  0  0
   -3.6773    0.8687    1.0400 C   0  0  1  0  0  0  0  0  0  0  0  0
   -4.9618    0.0464    0.7108 C   0  0  0  0  0  0  0  0  0  0  0  0
   -5.0154   -0.5977   -0.6035 C   0  0  0  0  0  0  0  0  0  0  0  0
   -3.9198   -1.6929   -0.4631 C   0  0  0  0  0  0  0  0  0  0  0  0
   -2.6999   -0.8737   -0.5088 C   0  0  0  0  0  0  0  0  0  0  0  0
   -2.5806    0.2252    0.1289 C   0  0  0  0  0  0  0  0  0  0  0  0
   -1.4332    1.0548    0.1196 N   0  0  0  0  0  0  0  0  0  0  0  0
   -0.1344    0.9088    0.1207 N   0  0  0  0  0  0  0  0  0  0  0  0
    0.6318   -0.1883   -0.2955 C   0  0  0  0  0  0  0  0  0  0  0  0
   -0.0063   -1.1749   -0.7290 O   0  0  0  0  0  0  0  0  0  0  0  0
    2.1056   -0.1974   -0.2345 C   0  0  0  0  0  0  0  0  0  0  0  0
    2.7333    0.9602    0.1668 C   0  0  0  0  0  0  0  0  0  0  0  0
    4.1272    1.0336    0.2463 C   0  0  0  0  0  0  0  0  0  0  0  0
    4.9013   -0.0690   -0.0822 C   0  0  0  0  0  0  0  0  0  0  0  0
    6.8035    0.0820    0.0414 Br  0  0  0  0  0  0  0  0  0  0  0  0
    4.2515   -1.2118   -0.4798 C   0  0  0  0  0  0  0  0  0  0  0  0
    2.8724   -1.2858   -0.5583 C   0  0  0  0  0  0  0  0  0  0  0  0
  2  1  1  6
  2  3  1  0
  3  4  1  0
  4  5  1  0
  5  6  1  0
  6  7  2  0
  7  8  1  0
  8  9  1  0
  9 10  1  0
 10 11  2  0
 10 12  1  0
 12 13  2  0
 13 14  1  0
 14 15  2  0
 15 16  1  0
 15 17  1  0
 17 18  2  0
  7  2  1  0
 18 12  1  0
M  END
>  <zinc_id>  (1) 
ZINC000003253049

>  <smiles>  (1) 
C[C@H]1CCCC=C1NNC(=O)c1ccc(Br)cc1

$$$$
