
     RDKit          3D

 20 22  0  0  0  0  0  0  0  0999 V2000
    1.2999   -1.7125   -0.2864 O   0  0  0  0  0  0  0  0  0  0  0  0
    1.1673   -0.5538    0.1623 C   0  0  0  0  0  0  0  0  0  0  0  0
    2.2201    0.0830    0.8596 N   0  0  0  0  0  0  0  0  0  0  0  0
    3.4928   -0.5758    1.0840 C   0  0  0  0  0  0  0  0  0  0  0  0
    4.1500   -0.9349   -0.2536 C   0  0  0  0  0  0  0  0  0  0  0  0
    4.3871    0.3356   -1.0694 C   0  0  0  0  0  0  0  0  0  0  0  0
    5.3083    1.2712   -0.2793 C   0  0  0  0  0  0  0  0  0  0  0  0
    5.4989    2.4078   -1.0492 O   0  0  0  0  0  0  0  0  0  0  0  0
   -0.0807    0.1596   -0.0285 C   0  0  0  0  0  0  0  0  0  0  0  0
   -0.1725    1.5132   -0.2717 C   0  0  0  0  0  0  0  0  0  0  0  0
   -1.3931    2.1262   -0.4433 C   0  0  0  0  0  0  0  0  0  0  0  0
   -2.5682    1.3857   -0.3742 C   0  0  0  0  0  0  0  0  0  0  0  0
   -2.4463    0.0466   -0.1320 C   0  0  0  0  0  0  0  0  0  0  0  0
   -3.6540   -0.5772   -0.0851 C   0  0  0  0  0  0  0  0  0  0  0  0
   -3.6082   -1.9553    0.1600 C   0  0  0  0  0  0  0  0  0  0  0  0
   -2.4143   -2.6217    0.3396 C   0  0  0  0  0  0  0  0  0  0  0  0
   -1.2137   -1.9337    0.2810 C   0  0  0  0  0  0  0  0  0  0  0  0
   -1.2463   -0.5749    0.0400 C   0  0  0  0  0  0  0  0  0  0  0  0
   -4.7204    0.3993   -0.3127 C   0  0  0  0  0  0  0  0  0  0  0  0
   -4.0068    1.7117   -0.5067 C   0  0  0  0  0  0  0  0  0  0  0  0
  1  2  2  0
  2  3  1  0
  3  4  1  0
  4  5  1  0
  5  6  1  0
  6  7  1  0
  7  8  1  0
  2  9  1  0
  9 10  2  0
 10 11  1  0
 11 12  2  0
 12 13  1  0
 13 14  2  0
 14 15  1  0
 15 16  2  0
 16 17  1  0
 17 18  2  0
 14 19  1  0
 19 20  1  0
 18  9  1  0
 20 12  1  0
 18 13  1  0
M  END
>  <zinc_id>  (1) 
ZINC000002877819

>  <smiles>  (1) 
O=C(NCCCCO)c1ccc2c3c(cccc13)CC2

$$$$
