
     RDKit          3D

 20 21  0  0  0  0  0  0  0  0999 V2000
    1.7916    0.4476    1.8083 C   0  0  0  0  0  0  0  0  0  0  0  0
    2.8317   -0.7992    1.9492 C   0  0  1  0  0  0  0  0  0  0  0  0
    2.5451   -1.5101    0.5178 C   0  0  0  0  0  0  0  0  0  0  0  0
    2.0578   -0.5595   -0.4564 C   0  0  0  0  0  0  0  0  0  0  0  0
    0.8722   -0.7953   -1.1379 N   0  0  0  0  0  0  0  0  0  0  0  0
   -0.3094   -0.0596   -1.0917 N   0  0  0  0  0  0  0  0  0  0  0  0
   -1.4511   -0.6277   -0.4637 C   0  0  0  0  0  0  0  0  0  0  0  0
   -1.3144   -1.7865    0.0260 O   0  0  0  0  0  0  0  0  0  0  0  0
   -2.7468    0.0727   -0.3722 C   0  0  0  0  0  0  0  0  0  0  0  0
   -2.9415    1.3286   -0.8921 C   0  0  0  0  0  0  0  0  0  0  0  0
   -4.1630    1.9504   -0.7927 C   0  0  0  0  0  0  0  0  0  0  0  0
   -5.2406    1.3425   -0.1679 C   0  0  0  0  0  0  0  0  0  0  0  0
   -5.0172    0.0829    0.3459 C   0  0  0  0  0  0  0  0  0  0  0  0
   -3.8011   -0.5511    0.2533 C   0  0  0  0  0  0  0  0  0  0  0  0
   -3.5692   -1.8265    0.7729 O   0  0  0  0  0  0  0  0  0  0  0  0
    2.8017    0.5167   -0.6484 C   0  0  0  0  0  0  0  0  0  0  0  0
    4.0146    0.6081    0.1447 C   0  0  0  0  0  0  0  0  0  0  0  0
    5.1461    0.0431   -0.7429 C   0  0  0  0  0  0  0  0  0  0  0  0
    4.3664    2.1002    0.2419 C   0  0  0  0  0  0  0  0  0  0  0  0
    4.1272    0.0227    1.4459 C   0  0  0  0  0  0  0  0  0  0  0  0
  2  1  1  6
  2  3  1  0
  3  4  1  0
  4  5  1  0
  5  6  1  0
  6  7  1  0
  7  8  2  0
  7  9  1  0
  9 10  2  0
 10 11  1  0
 11 12  2  0
 12 13  1  0
 13 14  2  0
 14 15  1  0
  4 16  2  0
 16 17  1  0
 17 18  1  0
 17 19  1  0
 17 20  1  0
 20  2  1  0
 14  9  1  0
M  END
>  <zinc_id>  (1) 
ZINC000003233024

>  <smiles>  (1) 
C[C@H]1CC(NNC(=O)c2ccccc2O)=CC(C)(C)C1

$$$$
