
     RDKit          3D

 24 27  0  0  0  0  0  0  0  0999 V2000
    6.3547   -1.6328    0.2695 C   0  0  0  0  0  0  0  0  0  0  0  0
    5.4905   -0.5400    0.1818 O   0  0  0  0  0  0  0  0  0  0  0  0
    4.1158   -0.6407    0.1431 C   0  0  0  0  0  0  0  0  0  0  0  0
    3.5279   -1.8864    0.1925 C   0  0  0  0  0  0  0  0  0  0  0  0
    2.1436   -2.0141    0.1550 C   0  0  0  0  0  0  0  0  0  0  0  0
    1.3266   -0.8879    0.0669 C   0  0  0  0  0  0  0  0  0  0  0  0
   -0.0520   -1.0311    0.0304 C   0  0  0  0  0  0  0  0  0  0  0  0
   -0.7916    0.1384   -0.0576 C   0  0  0  0  0  0  0  0  0  0  0  0
   -0.2199    1.3545   -0.1059 N   0  0  0  0  0  4  0  0  0  0  0  0
    1.1384    1.5031   -0.0704 C   0  0  0  0  0  0  0  0  0  0  0  0
    1.8968    0.3575    0.0169 C   0  0  0  0  0  0  0  0  0  0  0  0
    3.2922    0.4526    0.0566 C   0  0  0  0  0  0  0  0  0  0  0  0
    3.8931    1.7182    0.0064 O   0  0  0  0  0  0  0  0  0  0  0  0
    4.2044    2.2171   -1.2955 C   0  0  0  0  0  0  0  0  0  0  0  0
   -0.9941    2.5606   -0.1970 C   0  0  0  0  0  0  0  0  0  0  0  0
   -2.4448    2.4208   -0.2362 C   0  0  0  0  0  0  0  0  0  0  0  0
   -3.0390    1.0817   -0.1818 C   0  0  0  0  0  0  0  0  0  0  0  0
   -4.4402    0.9588   -0.2202 C   0  0  0  0  0  0  0  0  0  0  0  0
   -5.0005   -0.2957   -0.1694 C   0  0  0  0  0  0  0  0  0  0  0  0
   -6.3840   -0.4134   -0.2075 O   0  0  0  0  0  0  0  0  0  0  0  0
   -4.2082   -1.4175   -0.0823 C   0  0  0  0  0  0  0  0  0  0  0  0
   -4.7284   -2.6982   -0.0287 O   0  0  0  0  0  0  0  0  0  0  0  0
   -2.8390   -1.2755   -0.0459 C   0  0  0  0  0  0  0  0  0  0  0  0
   -2.2424   -0.0299   -0.0951 C   0  0  0  0  0  0  0  0  0  0  0  0
  1  2  1  0
  2  3  1  0
  3  4  2  0
  4  5  1  0
  5  6  2  0
  6  7  1  0
  7  8  2  0
  8  9  1  0
  9 10  2  0
 10 11  1  0
 11 12  2  0
 12 13  1  0
 13 14  1  0
  9 15  1  0
 15 16  1  0
 16 17  1  0
 17 18  2  0
 18 19  1  0
 19 20  1  0
 19 21  2  0
 21 22  1  0
 21 23  1  0
 23 24  2  0
 12  3  1  0
 24 17  1  0
 11  6  1  0
 24  8  1  0
M  CHG  1   9   1
M  END
>  <zinc_id>  (1) 
ZINC000000338118

>  <smiles>  (1) 
COc1ccc2cc3[n+](cc2c1OC)CCc1cc(O)c(O)cc1-3

$$$$
