
     RDKit          3D

 20 22  0  0  0  0  0  0  0  0999 V2000
    3.8607   -1.6596    0.2146 C   0  0  0  0  0  0  0  0  0  0  0  0
    3.2482   -0.6549    1.1343 C   0  0  0  0  0  0  0  0  0  0  0  0
    4.1116    0.5264    1.4188 C   0  0  0  0  0  0  0  0  0  0  0  0
    1.8185   -0.3469    0.8673 C   0  0  0  0  0  0  0  0  0  0  0  0
    1.7778    0.2476   -0.6863 C   0  0  2  0  0  0  0  0  0  0  0  0
    2.7777    1.4880   -0.3023 C   0  0  0  0  0  0  0  0  0  0  0  0
    0.4250    1.0106   -0.5043 C   0  0  0  0  0  0  0  0  0  0  0  0
    0.3089    2.3507   -0.5511 C   0  0  0  0  0  0  0  0  0  0  0  0
   -0.9049    2.9624   -0.3867 C   0  0  0  0  0  0  0  0  0  0  0  0
   -0.9129    4.3902   -0.4551 N   0  0  0  0  0  0  0  0  0  0  0  0
   -1.9951    2.2379   -0.1768 N   0  0  0  0  0  0  0  0  0  0  0  0
   -1.8910    0.9071   -0.1286 C   0  0  0  0  0  0  0  0  0  0  0  0
   -2.8573   -0.0002    0.0691 N   0  0  0  0  0  0  0  0  0  0  0  0
   -2.3190   -1.2132    0.0411 C   0  0  0  0  0  0  0  0  0  0  0  0
   -2.8966   -2.4605    0.1921 C   0  0  0  0  0  0  0  0  0  0  0  0
   -2.0598   -3.5530    0.1097 C   0  0  0  0  0  0  0  0  0  0  0  0
   -0.7034   -3.3645   -0.1159 C   0  0  0  0  0  0  0  0  0  0  0  0
   -0.1411   -2.1251   -0.2641 C   0  0  0  0  0  0  0  0  0  0  0  0
   -0.9698   -1.0259   -0.1833 C   0  0  0  0  0  0  0  0  0  0  0  0
   -0.6774    0.2828   -0.2924 N   0  0  0  0  0  0  0  0  0  0  0  0
  1  2  1  0
  2  3  1  0
  2  4  1  0
  4  5  1  0
  5  6  1  1
  5  7  1  0
  7  8  2  0
  8  9  1  0
  9 10  1  0
  9 11  2  0
 11 12  1  0
 12 13  2  0
 13 14  1  0
 14 15  2  0
 15 16  1  0
 16 17  2  0
 17 18  1  0
 18 19  2  0
 19 20  1  0
 20  7  1  0
 20 12  1  0
 19 14  1  0
M  END
>  <zinc_id>  (1) 
ZINC000000134779

>  <smiles>  (1) 
CC(C)C[C@H](C)c1cc(N)nc2nc3ccccc3n12

$$$$
