
     RDKit          3D

 22 24  0  0  0  0  0  0  0  0999 V2000
   -4.1628   -0.1619   -1.2659 C   0  0  0  0  0  0  0  0  0  0  0  0
   -3.9126   -1.1966   -0.1954 C   0  0  0  0  0  0  0  0  0  0  0  0
   -5.0299   -2.2064   -0.2726 C   0  0  0  0  0  0  0  0  0  0  0  0
   -2.6091   -1.9023   -0.4365 C   0  0  0  0  0  0  0  0  0  0  0  0
   -1.4619   -1.2137    0.1671 C   0  0  0  0  0  0  0  0  0  0  0  0
   -0.3320   -1.7636    0.0977 O   0  0  0  0  0  0  0  0  0  0  0  0
   -1.5892    0.0747    0.8380 C   0  0  0  0  0  0  0  0  0  0  0  0
   -0.6777    1.0781    1.0674 C   0  0  0  0  0  0  0  0  0  0  0  0
    0.7226    1.1750    0.6978 C   0  0  0  0  0  0  0  0  0  0  0  0
    1.4126    2.1698    1.0379 O   0  0  0  0  0  0  0  0  0  0  0  0
    1.3928    0.1848   -0.0514 N   0  0  0  0  0  0  0  0  0  0  0  0
    2.7596    0.2705   -0.4177 C   0  0  0  0  0  0  0  0  0  0  0  0
    3.4896    1.3680   -0.0326 C   0  0  0  0  0  0  0  0  0  0  0  0
    4.8366    1.4604   -0.3892 C   0  0  0  0  0  0  0  0  0  0  0  0
    5.3898    0.4325   -1.1242 C   0  0  0  0  0  0  0  0  0  0  0  0
    4.6923   -0.6764   -1.5254 C   0  0  0  0  0  0  0  0  0  0  0  0
    3.3442   -0.7381   -1.1516 C   0  0  0  0  0  0  0  0  0  0  0  0
    2.5823   -1.8044   -1.5098 F   0  0  0  0  0  0  0  0  0  0  0  0
   -1.4216    2.0402    1.7633 C   0  0  0  0  0  0  0  0  0  0  0  0
   -2.6847    1.6082    1.9204 N   0  0  0  0  0  0  0  0  0  0  0  0
   -2.8264    0.3971    1.3615 C   0  0  0  0  0  0  0  0  0  0  0  0
   -3.9146   -0.5959    1.1885 C   0  0  0  0  0  0  0  0  0  0  0  0
  1  2  1  0
  2  3  1  0
  2  4  1  0
  4  5  1  0
  5  6  2  0
  5  7  1  0
  7  8  1  0
  8  9  1  0
  9 10  2  0
  9 11  1  0
 11 12  1  0
 12 13  2  0
 13 14  1  0
 14 15  2  0
 15 16  1  0
 16 17  2  0
 17 18  1  0
  8 19  2  0
 19 20  1  0
 20 21  1  0
 21 22  1  0
 22  2  1  0
 21  7  2  0
 17 12  1  0
M  END
>  <zinc_id>  (1) 
ZINC000000022647

>  <smiles>  (1) 
CC1(C)CC(=O)c2c(C(=O)Nc3ccccc3F)c[nH]c2C1

$$$$
