
     RDKit          3D

 21 23  0  0  0  0  0  0  0  0999 V2000
   -5.4407    2.5201   -0.1831 C   0  0  0  0  0  0  0  0  0  0  0  0
   -4.2467    1.6449    0.0920 C   0  0  0  0  0  0  0  0  0  0  0  0
   -4.3570    0.4640    0.7664 C   0  0  0  0  0  0  0  0  0  0  0  0
   -3.2100   -0.2659    0.9691 C   0  0  0  0  0  0  0  0  0  0  0  0
   -2.0196    0.1663    0.5196 N   0  0  0  0  0  0  0  0  0  0  0  0
   -0.7629   -0.3949    0.6087 C   0  0  0  0  0  0  0  0  0  0  0  0
   -0.5203   -1.6207    1.2511 N   0  0  0  0  0  0  0  0  0  0  0  0
    0.7318   -2.3007    1.3048 C   0  0  0  0  0  0  0  0  0  0  0  0
    0.6024   -3.5015    2.2602 C   0  0  0  0  0  0  0  0  0  0  0  0
    1.0729   -2.8981   -0.0845 C   0  0  0  0  0  0  0  0  0  0  0  0
    0.1255    0.4364   -0.0068 C   0  0  0  0  0  0  0  0  0  0  0  0
    1.5764    0.2877   -0.1672 C   0  0  0  0  0  0  0  0  0  0  0  0
    2.4386   -0.0368    0.8589 C   0  0  0  0  0  0  0  0  0  0  0  0
    3.8008   -0.1651    0.6548 C   0  0  0  0  0  0  0  0  0  0  0  0
    4.3690    0.0247   -0.5858 C   0  0  0  0  0  0  0  0  0  0  0  0
    5.7468   -0.1045   -0.7950 O   0  0  0  0  0  0  0  0  0  0  0  0
    3.5104    0.3490   -1.6131 C   0  0  0  0  0  0  0  0  0  0  0  0
    2.1495    0.4770   -1.4084 C   0  0  0  0  0  0  0  0  0  0  0  0
   -0.6195    1.4873   -0.4592 N   0  0  0  0  0  0  0  0  0  0  0  0
   -1.9054    1.3207   -0.1408 C   0  0  0  0  0  0  0  0  0  0  0  0
   -3.0420    2.1102   -0.3784 C   0  0  0  0  0  0  0  0  0  0  0  0
  1  2  1  0
  2  3  1  0
  3  4  2  0
  4  5  1  0
  5  6  1  0
  6  7  1  0
  7  8  1  0
  8  9  1  0
  8 10  1  0
  6 11  2  0
 11 12  1  0
 12 13  2  0
 13 14  1  0
 14 15  2  0
 15 16  1  0
 15 17  1  0
 17 18  2  0
 11 19  1  0
 19 20  2  0
 20 21  1  0
 21  2  2  0
 20  5  1  0
 18 12  1  0
M  END
>  <zinc_id>  (1) 
ZINC000000413699

>  <smiles>  (1) 
Cc1ccn2c(NC(C)C)c(-c3ccc(O)cc3)nc2c1

$$$$
