
     RDKit          3D

 23 25  0  0  0  0  0  0  0  0999 V2000
   -1.1605    2.8771    2.3584 C   0  0  0  0  0  0  0  0  0  0  0  0
   -0.3038    2.9059    1.1203 C   0  0  0  0  0  0  0  0  0  0  0  0
   -1.0401    2.2666   -0.0592 C   0  0  0  0  0  0  0  0  0  0  0  0
   -2.3044    3.1549   -0.2006 C   0  0  0  0  0  0  0  0  0  0  0  0
   -0.1845    2.6428   -1.2815 C   0  0  0  0  0  0  0  0  0  0  0  0
   -1.3445    0.9391    0.0369 N   0  0  0  0  0  0  0  0  0  0  0  0
   -0.8300   -0.3259    0.0564 C   0  0  0  0  0  0  0  0  0  0  0  0
    0.4646   -0.7512   -0.0805 C   0  0  0  0  0  0  0  0  0  0  0  0
    1.7262   -0.0728   -0.3089 C   0  0  0  0  0  0  0  0  0  0  0  0
    2.5499   -0.5478   -1.3429 C   0  0  0  0  0  0  0  0  0  0  0  0
    3.7649    0.0104   -1.6129 C   0  0  0  0  0  0  0  0  0  0  0  0
    4.2349    1.0819   -0.8643 C   0  0  0  0  0  0  0  0  0  0  0  0
    5.4598    1.6704   -1.1109 O   0  0  0  0  0  0  0  0  0  0  0  0
    3.4480    1.5697    0.1573 C   0  0  0  0  0  0  0  0  0  0  0  0
    2.2310    0.9791    0.3965 C   0  0  0  0  0  0  0  0  0  0  0  0
    0.4178   -2.1154    0.0123 N   0  0  0  0  0  0  0  0  0  0  0  0
   -0.8696   -2.4892    0.1994 C   0  0  0  0  0  0  0  0  0  0  0  0
   -1.4322   -3.7597    0.3517 C   0  0  0  0  0  0  0  0  0  0  0  0
   -2.7771   -3.9109    0.5320 C   0  0  0  0  0  0  0  0  0  0  0  0
   -3.5698   -2.7860    0.5608 C   0  0  0  0  0  0  0  0  0  0  0  0
   -2.9800   -1.5524    0.4073 C   0  0  0  0  0  0  0  0  0  0  0  0
   -3.8429   -0.3546    0.4404 C   0  0  0  0  0  0  0  0  0  0  0  0
   -1.6577   -1.4317    0.2319 N   0  0  0  0  0  0  0  0  0  0  0  0
  1  2  1  0
  2  3  1  0
  3  4  1  0
  3  5  1  0
  3  6  1  0
  6  7  1  0
  7  8  2  0
  8  9  1  0
  9 10  2  0
 10 11  1  0
 11 12  2  0
 12 13  1  0
 12 14  1  0
 14 15  2  0
  8 16  1  0
 16 17  2  0
 17 18  1  0
 18 19  2  0
 19 20  1  0
 20 21  2  0
 21 22  1  0
 21 23  1  0
 23  7  1  0
 15  9  1  0
 23 17  1  0
M  END
>  <zinc_id>  (1) 
ZINC000000413717

>  <smiles>  (1) 
CCC(C)(C)Nc1c(-c2ccc(O)cc2)nc2cccc(C)n12

$$$$
