
     RDKit          3D

 21 24  0  0  0  0  0  0  0  0999 V2000
    6.3174    0.9869    0.2728 O   0  0  0  0  0  0  0  0  0  0  0  0
    5.4352    0.1215    0.0879 C   0  0  0  0  0  0  0  0  0  0  0  0
    4.0172    0.2301   -0.2217 C   0  0  0  0  0  0  0  0  0  0  0  0
    3.3789   -0.8929   -0.0096 C   0  0  0  0  0  0  0  0  0  0  0  0
    2.0006   -1.2033   -0.1861 N   0  0  0  0  0  0  0  0  0  0  0  0
    0.9726   -0.2462    0.0543 C   0  0  0  0  0  0  0  0  0  0  0  0
    1.2772    1.0317    0.4718 C   0  0  0  0  0  0  0  0  0  0  0  0
    0.2821    1.9761    0.7102 C   0  0  0  0  0  0  0  0  0  0  0  0
   -1.0468    1.6444    0.5299 C   0  0  0  0  0  0  0  0  0  0  0  0
   -2.2434    2.3254    0.6743 C   0  0  0  0  0  0  0  0  0  0  0  0
   -3.2216    1.4631    0.3481 N   0  0  0  0  0  0  0  0  0  0  0  0
   -2.6762    0.3006    0.0156 N   0  0  0  0  0  0  0  0  0  0  0  0
   -3.4459   -0.8542   -0.3901 C   0  0  0  0  0  0  0  0  0  0  0  0
   -4.7929   -0.4117   -0.9221 C   0  0  0  0  0  0  0  0  0  0  0  0
   -5.5940   -0.0885    0.3251 C   0  0  0  0  0  0  0  0  0  0  0  0
   -5.2026   -1.2411    1.2342 C   0  0  0  0  0  0  0  0  0  0  0  0
   -3.8358   -1.6813    0.8126 C   0  0  0  0  0  0  0  0  0  0  0  0
   -1.3387    0.3628    0.1120 C   0  0  0  0  0  0  0  0  0  0  0  0
   -0.3507   -0.5852   -0.1279 C   0  0  0  0  0  0  0  0  0  0  0  0
    4.3544   -1.8863    0.4842 C   0  0  0  0  0  0  0  0  0  0  0  0
    5.7129   -1.3520    0.1606 C   0  0  0  0  0  0  0  0  0  0  0  0
  1  2  2  0
  2  3  1  0
  3  4  2  0
  4  5  1  0
  5  6  1  0
  6  7  2  0
  7  8  1  0
  8  9  2  0
  9 10  1  0
 10 11  2  0
 11 12  1  0
 12 13  1  0
 13 14  1  0
 14 15  1  0
 15 16  1  0
 16 17  1  0
 12 18  1  0
 18 19  2  0
  4 20  1  0
 20 21  1  0
 21  2  1  0
 19  6  1  0
 18  9  1  0
 17 13  1  0
M  END
>  <zinc_id>  (1) 
ZINC000000008950

>  <smiles>  (1) 
O=C1C=C(Nc2ccc3cnn(C4CCCC4)c3c2)CC1

$$$$
