
     RDKit          3D

 19 20  0  0  0  0  0  0  0  0999 V2000
   -4.0746   -1.9191   -0.4850 C   0  0  0  0  0  0  0  0  0  0  0  0
   -2.6517   -2.1682   -0.0507 C   0  0  0  0  0  0  0  0  0  0  0  0
   -2.6142   -2.6604    1.3805 C   0  0  0  0  0  0  0  0  0  0  0  0
   -2.0310   -3.2353   -0.9231 C   0  0  0  0  0  0  0  0  0  0  0  0
   -1.8521   -0.9446   -0.1525 C   0  0  0  0  0  0  0  0  0  0  0  0
   -1.9729    0.2354    0.5792 C   0  0  0  0  0  0  0  0  0  0  0  0
   -1.0130    1.1291    0.1636 C   0  0  0  0  0  0  0  0  0  0  0  0
   -0.7163    2.4764    0.6210 C   0  0  0  0  0  0  0  0  0  0  0  0
   -1.2127    3.0558    1.8097 N   0  0  0  0  0  0  0  0  0  0  0  0
    0.0573    3.2074   -0.0812 O   0  0  0  0  0  0  0  0  0  0  0  0
   -0.3485    0.4817   -0.7910 N   0  0  0  0  0  0  0  0  0  0  0  0
    0.8288    0.9941   -1.5095 C   0  0  0  0  0  0  0  0  0  0  0  0
    2.0089    0.4537   -0.7132 C   0  0  0  0  0  0  0  0  0  0  0  0
    2.3441    1.0698    0.4862 C   0  0  0  0  0  0  0  0  0  0  0  0
    3.3728    0.6624    1.2688 C   0  0  0  0  0  0  0  0  0  0  0  0
    4.1401   -0.4407    0.8473 C   0  0  0  0  0  0  0  0  0  0  0  0
    3.8153   -1.0650   -0.3523 C   0  0  0  0  0  0  0  0  0  0  0  0
    2.7499   -0.6091   -1.1161 C   0  0  0  0  0  0  0  0  0  0  0  0
   -0.8304   -0.7236   -0.9818 N   0  0  0  0  0  0  0  0  0  0  0  0
  1  2  1  0
  2  3  1  0
  2  4  1  0
  2  5  1  0
  5  6  1  0
  6  7  2  0
  7  8  1  0
  8  9  1  0
  8 10  2  0
  7 11  1  0
 11 12  1  0
 12 13  1  0
 13 14  2  0
 14 15  1  0
 15 16  2  0
 16 17  1  0
 17 18  2  0
 11 19  1  0
 19  5  2  0
 18 13  1  0
M  END
>  <zinc_id>  (1) 
ZINC000000122118

>  <smiles>  (1) 
CC(C)(C)c1cc(C(N)=O)n(Cc2ccccc2)n1

$$$$
