
     RDKit          3D

 19 20  0  0  0  0  0  0  0  0999 V2000
   -1.1334   -1.5558   -3.0798 C   0  0  0  0  0  0  0  0  0  0  0  0
   -1.4305   -0.7308   -1.8649 C   0  0  0  0  0  0  0  0  0  0  0  0
   -2.6806   -0.1844   -1.6655 C   0  0  0  0  0  0  0  0  0  0  0  0
   -3.0037    0.5807   -0.5661 C   0  0  0  0  0  0  0  0  0  0  0  0
   -4.3472    1.1739   -0.3419 C   0  0  0  0  0  0  0  0  0  0  0  0
   -1.9906    0.7972    0.3796 C   0  0  0  0  0  0  0  0  0  0  0  0
   -2.2256    1.5872    1.5714 C   0  0  0  0  0  0  0  0  0  0  0  0
   -3.4769    2.1912    1.8670 N   0  0  0  0  0  0  0  0  0  0  0  0
   -1.2958    1.7564    2.3896 O   0  0  0  0  0  0  0  0  0  0  0  0
   -0.7428    0.2534    0.1833 C   0  0  0  0  0  0  0  0  0  0  0  0
    0.2687    0.4850    1.1535 N   0  0  0  0  0  0  0  0  0  0  0  0
    1.5521   -0.0821    0.9382 C   0  0  0  0  0  0  0  0  0  0  0  0
    1.8181   -0.8403   -0.1829 C   0  0  0  0  0  0  0  0  0  0  0  0
    3.0407   -1.3865   -0.3979 C   0  0  0  0  0  0  0  0  0  0  0  0
    4.0929   -1.2189    0.4888 C   0  0  0  0  0  0  0  0  0  0  0  0
    5.6144   -1.9598    0.1184 Cl  0  0  0  0  0  0  0  0  0  0  0  0
    3.8464   -0.4668    1.6110 C   0  0  0  0  0  0  0  0  0  0  0  0
    2.5991    0.0849    1.8210 C   0  0  0  0  0  0  0  0  0  0  0  0
   -0.5053   -0.4848   -0.9201 N   0  0  0  0  0  0  0  0  0  0  0  0
  1  2  1  0
  2  3  2  0
  3  4  1  0
  4  5  1  0
  4  6  2  0
  6  7  1  0
  7  8  1  0
  7  9  2  0
  6 10  1  0
 10 11  1  0
 11 12  1  0
 12 13  2  0
 13 14  1  0
 14 15  2  0
 15 16  1  0
 15 17  1  0
 17 18  2  0
 10 19  2  0
 19  2  1  0
 18 12  1  0
M  END
>  <zinc_id>  (1) 
ZINC000000229627

>  <smiles>  (1) 
Cc1cc(C)c(C(N)=O)c(Nc2ccc(Cl)cc2)n1

$$$$
