
     RDKit          3D

 19 20  0  0  0  0  0  0  0  0999 V2000
   -0.8652    3.9602   -0.6820 C   0  0  0  0  0  0  0  0  0  0  0  0
   -1.6038    3.2580    0.4347 C   0  0  0  0  0  0  0  0  0  0  0  0
   -1.5078    1.8765    0.2087 O   0  0  0  0  0  0  0  0  0  0  0  0
   -0.2333    1.3121    0.1692 C   0  0  0  0  0  0  0  0  0  0  0  0
    0.8944    2.0893    0.3468 C   0  0  0  0  0  0  0  0  0  0  0  0
    2.1452    1.5185    0.3052 C   0  0  0  0  0  0  0  0  0  0  0  0
    2.2632    0.1783    0.0870 C   0  0  0  0  0  0  0  0  0  0  0  0
    3.7532   -0.4163    0.0518 C   0  0  2  0  0  0  0  0  0  0  0  0
    3.5602   -1.1128   -1.4355 C   0  0  0  0  0  0  0  0  0  0  0  0
    3.4140   -1.8262    0.8506 C   0  0  0  0  0  0  0  0  0  0  0  0
    2.8932   -1.3877    2.1805 C   0  0  0  0  0  0  0  0  0  0  0  0
    1.2083   -0.6023   -0.0881 C   0  0  0  0  0  0  0  0  0  0  0  0
   -0.0485   -0.0383   -0.0479 C   0  0  0  0  0  0  0  0  0  0  0  0
   -1.2614   -0.8403   -0.2332 C   0  0  0  0  0  0  0  0  0  0  0  0
   -2.5624   -0.3957   -0.2146 C   0  0  0  0  0  0  0  0  0  0  0  0
   -3.3612   -1.4820   -0.4297 C   0  0  0  0  0  0  0  0  0  0  0  0
   -4.7812   -1.4108   -0.4783 N   0  0  0  0  0  0  0  0  0  0  0  0
   -2.5732   -2.5126   -0.5677 O   0  0  0  0  0  0  0  0  0  0  0  0
   -1.3337   -2.1680   -0.4575 N   0  0  0  0  0  0  0  0  0  0  0  0
  1  2  1  0
  2  3  1  0
  3  4  1  0
  4  5  2  0
  5  6  1  0
  6  7  2  0
  7  8  1  0
  8  9  1  6
  8 10  1  0
 10 11  1  0
  7 12  1  0
 12 13  2  0
 13 14  1  0
 14 15  1  0
 15 16  2  0
 16 17  1  0
 16 18  1  0
 18 19  1  0
 13  4  1  0
 19 14  2  0
M  END
>  <zinc_id>  (1) 
ZINC000003704568

>  <smiles>  (1) 
CCOc1ccc([C@H](C)CC)cc1-c1cc(N)on1

$$$$
