
     RDKit          3D

 20 22  0  0  0  0  0  0  0  0999 V2000
   -3.3330    3.1277    0.9113 C   0  0  0  0  0  0  0  0  0  0  0  0
   -4.0535    2.4982   -0.6322 S   0  0  0  0  0  0  0  0  0  0  0  0
   -4.3087    0.7014   -0.5380 C   0  0  0  0  0  0  0  0  0  0  0  0
   -2.9555    0.0725   -0.4584 C   0  0  0  0  0  0  0  0  0  0  0  0
   -1.7549    0.6768   -0.4542 N   0  0  0  0  0  0  0  0  0  0  0  0
   -0.7700   -0.2015   -0.3719 N   0  0  0  0  0  0  0  0  0  0  0  0
    0.6272    0.0673   -0.3423 C   0  0  0  0  0  0  0  0  0  0  0  0
    1.5526   -0.8514   -0.8217 C   0  0  0  0  0  0  0  0  0  0  0  0
    2.9067   -0.5984   -0.7967 C   0  0  0  0  0  0  0  0  0  0  0  0
    3.4129    0.5801   -0.2944 C   0  0  0  0  0  0  0  0  0  0  0  0
    4.8040    0.8727   -0.2543 N   0  0  0  0  0  4  0  0  0  0  0  0
    5.1958    1.9567    0.2150 O   0  0  0  0  0  0  0  0  0  0  0  0
    5.7333   -0.0115   -0.7218 O   0  0  0  0  0  1  0  0  0  0  0  0
    2.4943    1.5093    0.1892 C   0  0  0  0  0  0  0  0  0  0  0  0
    1.1373    1.2450    0.1595 C   0  0  0  0  0  0  0  0  0  0  0  0
   -1.3219   -1.4272   -0.3200 C   0  0  0  0  0  0  0  0  0  0  0  0
   -2.6884   -1.2745   -0.3731 C   0  0  0  0  0  0  0  0  0  0  0  0
   -3.3481   -2.5944   -0.3189 C   0  0  0  0  0  0  0  0  0  0  0  0
   -2.2573   -3.5035    0.2496 C   0  0  0  0  0  0  0  0  0  0  0  0
   -1.0726   -2.8453   -0.2296 N   0  0  0  0  0  0  0  0  0  0  0  0
  1  2  1  0
  2  3  1  0
  3  4  1  0
  4  5  2  0
  5  6  1  0
  6  7  1  0
  7  8  2  0
  8  9  1  0
  9 10  2  0
 10 11  1  0
 11 12  2  0
 11 13  1  0
 10 14  1  0
 14 15  2  0
  6 16  1  0
 16 17  2  0
 17 18  1  0
 18 19  1  0
 19 20  1  0
 17  4  1  0
 15  7  1  0
 20 16  1  0
M  CHG  2  11   1  13  -1
M  END
>  <zinc_id>  (1) 
ZINC000003701019

>  <smiles>  (1) 
CSCc1nn(-c2ccc([N+](=O)[O-])cc2)c2c1CCN2

$$$$
