
     RDKit          3D

 18 19  0  0  0  0  0  0  0  0999 V2000
    1.7229    2.2273   -0.0335 C   0  0  0  0  0  0  0  0  0  0  0  0
    1.5646    0.7436    0.1061 C   0  0  0  0  0  0  0  0  0  0  0  0
    0.4631    0.1914    0.7326 C   0  0  0  0  0  0  0  0  0  0  0  0
    0.3236   -1.1751    0.8577 C   0  0  0  0  0  0  0  0  0  0  0  0
   -0.7756   -1.7510    1.4839 O   0  0  0  0  0  0  0  0  0  0  0  0
   -1.8479   -1.0735    2.0501 C   0  0  0  0  0  0  0  0  0  0  0  0
   -2.5612   -0.2606    1.0957 N   0  0  0  0  0  0  0  0  0  0  0  0
   -2.2923    1.0225    0.8135 C   0  0  0  0  0  0  0  0  0  0  0  0
   -3.1652    1.4724   -0.1343 C   0  0  0  0  0  0  0  0  0  0  0  0
   -3.9865    0.4205   -0.4303 C   0  0  0  0  0  0  0  0  0  0  0  0
   -5.0668    0.3749   -1.3600 N   0  0  0  0  0  0  0  0  0  0  0  0
   -3.5875   -0.6070    0.3349 N   0  0  0  0  0  0  0  0  0  0  0  0
    1.3356   -1.9511    0.3273 C   0  0  0  0  0  0  0  0  0  0  0  0
    2.4340   -1.3969   -0.2976 C   0  0  0  0  0  0  0  0  0  0  0  0
    2.5759   -0.0303   -0.4240 C   0  0  0  0  0  0  0  0  0  0  0  0
    3.7458    0.5962   -1.0908 C   0  0  0  0  0  0  0  0  0  0  0  0
    4.7076   -0.4417   -1.5840 C   0  0  0  0  0  0  0  0  0  0  0  0
    4.4099    1.6385   -0.2283 C   0  0  0  0  0  0  0  0  0  0  0  0
  1  2  1  0
  2  3  2  0
  3  4  1  0
  4  5  1  0
  5  6  1  0
  6  7  1  0
  7  8  1  0
  8  9  2  0
  9 10  1  0
 10 11  1  0
 10 12  2  0
  4 13  2  0
 13 14  1  0
 14 15  2  0
 15 16  1  0
 16 17  1  0
 16 18  1  0
 15  2  1  0
 12  7  1  0
M  END
>  <zinc_id>  (1) 
ZINC000002534843

>  <smiles>  (1) 
Cc1cc(OCn2ccc(N)n2)ccc1C(C)C

$$$$
