
     RDKit          3D

 19 21  0  0  0  0  0  0  0  0999 V2000
    0.4343   -3.6065   -1.5753 N   0  0  0  0  0  0  0  0  0  0  0  0
   -0.0232   -2.6008   -1.2363 C   0  0  0  0  0  0  0  0  0  0  0  0
   -0.6270   -1.3308   -0.8002 C   0  0  0  0  0  0  0  0  0  0  0  0
   -1.7877   -1.3422   -0.2132 C   0  0  0  0  0  0  0  0  0  0  0  0
   -2.4462   -2.6229   -0.0109 N   0  0  0  0  0  0  0  0  0  0  0  0
   -2.3895   -0.1809    0.2108 O   0  0  0  0  0  0  0  0  0  0  0  0
   -1.7366    1.0454    0.0057 C   0  0  0  0  0  0  0  0  0  0  0  0
   -0.5978    1.1172   -0.5641 C   0  0  0  0  0  0  0  0  0  0  0  0
    0.0901    2.4591   -0.7755 C   0  0  0  0  0  0  0  0  0  0  0  0
   -0.4865    3.5342    0.0380 C   0  0  0  0  0  0  0  0  0  0  0  0
   -2.0039    3.4680   -0.1663 C   0  0  0  0  0  0  0  0  0  0  0  0
   -2.5213    2.2363    0.5262 C   0  0  0  0  0  0  0  0  0  0  0  0
    0.1847   -0.0837   -1.0834 C   0  0  1  0  0  0  0  0  0  0  0  0
    1.3138   -0.2144   -0.0093 C   0  0  0  0  0  0  0  0  0  0  0  0
    1.9047   -1.4220    0.1980 C   0  0  0  0  0  0  0  0  0  0  0  0
    2.9265   -1.5667    1.1618 C   0  0  0  0  0  0  0  0  0  0  0  0
    3.3041   -0.4763    1.8741 C   0  0  0  0  0  0  0  0  0  0  0  0
    2.7296    0.7432    1.6867 C   0  0  0  0  0  0  0  0  0  0  0  0
    1.7320    0.8437    0.7331 C   0  0  0  0  0  0  0  0  0  0  0  0
  1  2  3  0
  2  3  1  0
  3  4  2  0
  4  5  1  0
  4  6  1  0
  6  7  1  0
  7  8  2  0
  8  9  1  0
  9 10  1  0
 10 11  1  0
 11 12  1  0
  8 13  1  0
 13 14  1  1
 14 15  2  0
 15 16  1  0
 16 17  2  0
 17 18  1  0
 18 19  2  0
 13  3  1  0
 19 14  1  0
 12  7  1  0
M  END
>  <zinc_id>  (1) 
ZINC000004293333

>  <smiles>  (1) 
N#CC1=C(N)OC2=C(CCCC2)[C@H]1c1ccccc1

$$$$
