
     RDKit          3D

 21 23  0  0  0  0  0  0  0  0999 V2000
    7.7640    0.8447   -0.1646 C   0  0  0  0  0  0  0  0  0  0  0  0
    6.5737   -0.0966   -0.2283 C   0  0  0  0  0  0  0  0  0  0  0  0
    5.4202    0.6774    0.0316 O   0  0  0  0  0  0  0  0  0  0  0  0
    4.1862    0.0458    0.0312 C   0  0  0  0  0  0  0  0  0  0  0  0
    4.1549   -1.1887   -0.2012 O   0  0  0  0  0  0  0  0  0  0  0  0
    2.9660    0.6998    0.2748 N   0  0  0  0  0  0  0  0  0  0  0  0
    1.7024    0.0087    0.2659 C   0  0  0  0  0  0  0  0  0  0  0  0
    1.5850   -1.3195    0.0241 C   0  0  0  0  0  0  0  0  0  0  0  0
    0.3526   -1.9571    0.0225 C   0  0  0  0  0  0  0  0  0  0  0  0
   -0.8080   -1.2202    0.2760 C   0  0  0  0  0  0  0  0  0  0  0  0
   -0.6836    0.1307    0.5214 C   0  0  0  0  0  0  0  0  0  0  0  0
    0.5610    0.7419    0.5169 C   0  0  0  0  0  0  0  0  0  0  0  0
   -1.7597    1.0505    0.8006 N   0  0  0  0  0  0  0  0  0  0  0  0
   -3.1451    0.8829    0.4518 C   0  0  0  0  0  0  0  0  0  0  0  0
   -3.9521    1.9104    0.8298 C   0  0  0  0  0  0  0  0  0  0  0  0
   -5.3189    1.8986    0.5652 C   0  0  0  0  0  0  0  0  0  0  0  0
   -5.8462    0.8111   -0.0962 C   0  0  0  0  0  0  0  0  0  0  0  0
   -5.0203   -0.2468   -0.4864 C   0  0  0  0  0  0  0  0  0  0  0  0
   -3.6752   -0.2121   -0.2140 C   0  0  0  0  0  0  0  0  0  0  0  0
   -3.0184   -1.4445   -0.7268 C   0  0  0  0  0  0  0  0  0  0  0  0
   -2.0382   -2.0171    0.2460 C   0  0  0  0  0  0  0  0  0  0  0  0
  1  2  1  0
  2  3  1  0
  3  4  1  0
  4  5  2  0
  4  6  1  0
  6  7  1  0
  7  8  2  0
  8  9  1  0
  9 10  2  0
 10 11  1  0
 11 12  2  0
 11 13  1  0
 13 14  1  0
 14 15  2  0
 15 16  1  0
 16 17  2  0
 17 18  1  0
 18 19  2  0
 19 20  1  0
 20 21  1  0
 12  7  1  0
 19 14  1  0
 21 10  1  0
M  END
>  <zinc_id>  (1) 
ZINC000003878696

>  <smiles>  (1) 
CCOC(=O)Nc1ccc2c(c1)Nc1ccccc1CC2

$$$$
