
     RDKit          3D

 22 25  0  0  0  0  0  0  0  0999 V2000
    1.9042    1.4811   -0.0481 O   0  0  0  0  0  0  0  0  0  0  0  0
    1.6698    0.4972   -0.7975 C   0  0  0  0  0  0  0  0  0  0  0  0
    2.7174   -0.0012   -1.6052 N   0  0  0  0  0  0  0  0  0  0  0  0
    4.0411    0.5679   -1.6078 C   0  0  0  0  0  0  0  0  0  0  0  0
    4.6434    0.4938   -0.2579 C   0  0  0  0  0  0  0  0  0  0  0  0
    5.8974    0.9328    0.1479 C   0  0  0  0  0  0  0  0  0  0  0  0
    6.0049    0.6446    1.5031 C   0  0  0  0  0  0  0  0  0  0  0  0
    4.8056    0.0434    1.8502 C   0  0  0  0  0  0  0  0  0  0  0  0
    4.0493   -0.0204    0.7908 O   0  0  0  0  0  0  0  0  0  0  0  0
    0.3398   -0.0958   -0.8129 C   0  0  0  0  0  0  0  0  0  0  0  0
    0.1266   -1.1682   -1.6454 C   0  0  0  0  0  0  0  0  0  0  0  0
   -1.1113   -1.7556   -1.6898 C   0  0  0  0  0  0  0  0  0  0  0  0
   -2.1329   -1.2686   -0.9012 C   0  0  0  0  0  0  0  0  0  0  0  0
   -3.4104   -1.6666   -0.7702 N   0  0  0  0  0  0  0  0  0  0  0  0
   -4.0298   -0.8966    0.1111 C   0  0  0  0  0  0  0  0  0  0  0  0
   -3.1564    0.0525    0.5965 C   0  0  0  0  0  0  0  0  0  0  0  0
   -1.9555   -0.1802   -0.0419 C   0  0  0  0  0  0  0  0  0  0  0  0
   -0.6903    0.3815   -0.0294 C   0  0  0  0  0  0  0  0  0  0  0  0
   -3.4996    1.0777    1.5931 C   0  0  0  0  0  0  0  0  0  0  0  0
   -4.9648    1.2356    1.8191 C   0  0  0  0  0  0  0  0  0  0  0  0
   -5.8246    0.5514    0.8109 C   0  0  0  0  0  0  0  0  0  0  0  0
   -5.4238   -0.9064    0.6145 C   0  0  0  0  0  0  0  0  0  0  0  0
  1  2  2  0
  2  3  1  0
  3  4  1  0
  4  5  1  0
  5  6  2  0
  6  7  1  0
  7  8  2  0
  8  9  1  0
  2 10  1  0
 10 11  2  0
 11 12  1  0
 12 13  2  0
 13 14  1  0
 14 15  1  0
 15 16  2  0
 16 17  1  0
 17 18  2  0
 16 19  1  0
 19 20  1  0
 20 21  1  0
 21 22  1  0
  9  5  1  0
 18 10  1  0
 17 13  1  0
 22 15  1  0
M  END
>  <zinc_id>  (1) 
ZINC000003362560

>  <smiles>  (1) 
O=C(NCc1ccco1)c1ccc2[nH]c3c(c2c1)CCCC3

$$$$
