
     RDKit          3D

 20 23  0  0  0  0  0  0  0  0999 V2000
    2.0232    1.9383    0.0520 C   0  0  0  0  0  0  0  0  0  0  0  0
    2.4212    0.5566    0.4468 C   0  0  1  0  0  0  0  0  0  0  0  0
    2.0027    0.0559    1.7148 C   0  0  0  0  0  0  0  0  0  0  0  0
    0.4736    0.2489    1.6840 C   0  0  0  0  0  0  0  0  0  0  0  0
   -0.0534   -0.8052    0.5867 C   0  0  1  0  0  0  0  0  0  0  0  0
   -1.5169   -0.2782    0.5193 C   0  0  0  0  0  0  0  0  0  0  0  0
   -2.1409   -0.0761    1.7049 C   0  0  0  0  0  0  0  0  0  0  0  0
   -3.4615    0.3864    1.7029 C   0  0  0  0  0  0  0  0  0  0  0  0
   -4.1063    0.6290    0.5087 C   0  0  0  0  0  0  0  0  0  0  0  0
   -5.4393    1.0951    0.5703 N   0  0  0  0  0  0  0  0  0  0  0  0
   -3.4323    0.4091   -0.6520 C   0  0  0  0  0  0  0  0  0  0  0  0
   -2.1138   -0.0528   -0.6585 C   0  0  0  0  0  0  0  0  0  0  0  0
   -1.5142   -0.2519   -2.0082 C   0  0  0  0  0  0  0  0  0  0  0  0
   -0.1316   -0.8903   -1.7816 C   0  0  0  0  0  0  0  0  0  0  0  0
    0.4233    0.1659   -0.7252 C   0  0  2  0  0  0  0  0  0  0  0  0
    1.9664   -0.4700   -0.7108 C   0  0  1  0  0  0  0  0  0  0  0  0
    2.5634    0.5363   -1.8052 C   0  0  0  0  0  0  0  0  0  0  0  0
    3.9031    0.8575   -1.3657 C   0  0  0  0  0  0  0  0  0  0  0  0
    4.0146    0.5023    0.2202 C   0  0  2  0  0  0  0  0  0  0  0  0
    4.1186   -0.9853   -0.0032 O   0  0  0  0  0  0  0  0  0  0  0  0
  2  1  1  6
  2  3  1  0
  3  4  1  0
  5  4  1  1
  5  6  1  0
  6  7  2  0
  7  8  1  0
  8  9  2  0
  9 10  1  0
  9 11  1  0
 11 12  2  0
 12 13  1  0
 13 14  1  0
 15 14  1  6
 15 16  1  0
 16 17  1  6
 17 18  1  0
 18 19  1  0
 19 20  1  6
 16  2  1  0
 19  2  1  0
 15  5  1  0
 12  6  1  0
M  END
>  <zinc_id>  (1) 
ZINC000001580906

>  <smiles>  (1) 
C[C@@]12CC[C@H]3c4ccc(N)cc4CC[C@@H]3[C@H]1CC[C@@H]2O

$$$$
