
     RDKit          3D

 21 22  0  0  0  0  0  0  0  0999 V2000
   -5.8727   -1.4316    1.2769 C   0  0  0  0  0  0  0  0  0  0  0  0
   -4.7955   -0.5793    0.6656 C   0  0  0  0  0  0  0  0  0  0  0  0
   -5.1722    0.3597   -0.2619 C   0  0  0  0  0  0  0  0  0  0  0  0
   -4.1769    1.1498   -0.8270 C   0  0  0  0  0  0  0  0  0  0  0  0
   -2.8596    1.0105   -0.4837 C   0  0  0  0  0  0  0  0  0  0  0  0
   -1.8567    1.7988   -1.0465 O   0  0  0  0  0  0  0  0  0  0  0  0
   -2.4860    0.0587    0.4564 C   0  0  0  0  0  0  0  0  0  0  0  0
   -0.7612   -0.1182    0.8976 S   0  0  0  0  0  0  0  0  0  0  0  0
   -0.0213   -1.2742   -0.2585 C   0  0  0  0  0  0  0  0  0  0  0  0
   -0.0364   -0.6203   -1.6313 C   0  0  0  0  0  0  0  0  0  0  0  0
   -0.8743   -2.5148   -0.3071 C   0  0  0  0  0  0  0  0  0  0  0  0
    1.6596   -1.7276    0.1189 S   0  0  0  0  0  0  0  0  0  0  0  0
    2.8253   -0.4150   -0.0253 C   0  0  0  0  0  0  0  0  0  0  0  0
    2.5104    0.8767   -0.3785 C   0  0  0  0  0  0  0  0  0  0  0  0
    3.5041    1.8330   -0.4531 C   0  0  0  0  0  0  0  0  0  0  0  0
    3.1916    3.2339   -0.8304 C   0  0  0  0  0  0  0  0  0  0  0  0
    4.8206    1.5255   -0.1784 C   0  0  0  0  0  0  0  0  0  0  0  0
    5.1480    0.2456    0.1728 C   0  0  0  0  0  0  0  0  0  0  0  0
    4.1469   -0.7010    0.2433 C   0  0  0  0  0  0  0  0  0  0  0  0
    4.5786   -1.9856    0.6121 O   0  0  0  0  0  0  0  0  0  0  0  0
   -3.4723   -0.7248    1.0163 C   0  0  0  0  0  0  0  0  0  0  0  0
  1  2  1  0
  2  3  2  0
  3  4  1  0
  4  5  2  0
  5  6  1  0
  5  7  1  0
  7  8  1  0
  8  9  1  0
  9 10  1  0
  9 11  1  0
  9 12  1  0
 12 13  1  0
 13 14  2  0
 14 15  1  0
 15 16  1  0
 15 17  2  0
 17 18  1  0
 18 19  2  0
 19 20  1  0
  7 21  2  0
 21  2  1  0
 19 13  1  0
M  END
>  <zinc_id>  (1) 
ZINC000003668721

>  <smiles>  (1) 
Cc1ccc(O)c(SC(C)(C)Sc2cc(C)ccc2O)c1

$$$$
