
     RDKit          3D

 19 21  0  0  0  0  0  0  0  0999 V2000
    5.6573   -1.7518   -1.0186 C   0  0  0  0  0  0  0  0  0  0  0  0
    4.9681   -0.6612   -0.2608 C   0  0  0  0  0  0  0  0  0  0  0  0
    3.6999   -0.4911   -0.0135 C   0  0  0  0  0  0  0  0  0  0  0  0
    3.4153    0.6992    0.7620 C   0  0  0  0  0  0  0  0  0  0  0  0
    2.2389    1.2670    1.2518 N   0  0  0  0  0  0  0  0  0  0  0  0
    0.9412    1.0432    0.9420 N   0  0  0  0  0  0  0  0  0  0  0  0
    0.3261   -0.1119    0.4474 C   0  0  0  0  0  0  0  0  0  0  0  0
    1.0647   -1.1243    0.2427 O   0  0  0  0  0  0  0  0  0  0  0  0
   -1.1266   -0.2122    0.1526 C   0  0  0  0  0  0  0  0  0  0  0  0
   -2.0923    0.7193    0.3042 C   0  0  0  0  0  0  0  0  0  0  0  0
   -3.3485    0.4067   -0.0230 C   0  0  0  0  0  0  0  0  0  0  0  0
   -3.5605   -0.8681   -0.4985 C   0  0  0  0  0  0  0  0  0  0  0  0
   -1.9994   -1.5486   -0.4602 S   0  0  0  0  0  0  0  0  0  0  0  0
   -4.9579   -1.2899   -0.8867 C   0  0  0  0  0  0  0  0  0  0  0  0
   -5.7358   -0.2187   -1.5574 C   0  0  0  0  0  0  0  0  0  0  0  0
   -5.1441    1.1592   -1.4059 C   0  0  0  0  0  0  0  0  0  0  0  0
   -4.6275    1.2336    0.0376 C   0  0  0  0  0  0  0  0  0  0  0  0
    4.6111    1.2762    0.9902 C   0  0  0  0  0  0  0  0  0  0  0  0
    5.6700    0.4735    0.3705 C   0  0  0  0  0  0  0  0  0  0  0  0
  1  2  1  0
  2  3  2  0
  3  4  1  0
  4  5  1  0
  5  6  1  0
  6  7  1  0
  7  8  2  0
  7  9  1  0
  9 10  2  0
 10 11  1  0
 11 12  2  0
 12 13  1  0
 12 14  1  0
 14 15  1  0
 15 16  1  0
 16 17  1  0
  4 18  2  0
 18 19  1  0
 19  2  1  0
 13  9  1  0
 17 11  1  0
M  END
>  <zinc_id>  (1) 
ZINC000002660376

>  <smiles>  (1) 
CC1=CC(NNC(=O)c2cc3c(s2)CCCC3)=CC1

$$$$
