
     RDKit          3D

 20 21  0  0  0  0  0  0  0  0999 V2000
    4.2965    2.1300   -0.2525 C   0  0  0  0  0  0  0  0  0  0  0  0
    3.9316    0.6933   -0.1053 C   0  0  0  0  0  0  0  0  0  0  0  0
    4.9068   -0.3069   -0.0016 C   0  0  0  0  0  0  0  0  0  0  0  0
    4.5500   -1.6214    0.1331 C   0  0  0  0  0  0  0  0  0  0  0  0
    3.2464   -2.0228    0.1732 C   0  0  0  0  0  0  0  0  0  0  0  0
    2.8122   -3.4309    0.3167 C   0  0  0  0  0  0  0  0  0  0  0  0
    2.2316   -1.0309    0.0705 C   0  0  0  0  0  0  0  0  0  0  0  0
    0.9344   -1.4860    0.1172 N   0  0  0  0  0  0  0  0  0  0  0  0
   -0.2889   -0.9178    0.0369 C   0  0  0  0  0  0  0  0  0  0  0  0
   -1.5767   -2.0138    0.1617 S   0  0  0  0  0  0  0  0  0  0  0  0
   -0.7228    0.4135   -0.1304 N   0  0  0  0  0  0  0  0  0  0  0  0
    0.2224    1.5093   -0.2565 C   0  0  0  0  0  0  0  0  0  0  0  0
   -2.1338    0.7145   -0.1890 C   0  0  0  0  0  0  0  0  0  0  0  0
   -2.8711    0.6794   -1.3476 C   0  0  0  0  0  0  0  0  0  0  0  0
   -4.2145    0.9798   -1.3761 C   0  0  0  0  0  0  0  0  0  0  0  0
   -4.8439    1.3297   -0.1949 C   0  0  0  0  0  0  0  0  0  0  0  0
   -6.1912    1.6488   -0.1239 O   0  0  0  0  0  0  0  0  0  0  0  0
   -4.1303    1.3765    1.0003 C   0  0  0  0  0  0  0  0  0  0  0  0
   -2.7869    1.0649    0.9657 C   0  0  0  0  0  0  0  0  0  0  0  0
    2.6281    0.2908   -0.0650 C   0  0  0  0  0  0  0  0  0  0  0  0
  1  2  1  0
  2  3  2  0
  3  4  1  0
  4  5  2  0
  5  6  1  0
  5  7  1  0
  7  8  1  0
  8  9  1  0
  9 10  2  0
  9 11  1  0
 11 12  1  0
 11 13  1  0
 13 14  2  0
 14 15  1  0
 15 16  2  0
 16 17  1  0
 16 18  1  0
 18 19  2  0
  7 20  2  0
 20  2  1  0
 19 13  1  0
M  END
>  <zinc_id>  (1) 
ZINC000002645358

>  <smiles>  (1) 
Cc1ccc(C)c(NC(=S)N(C)c2ccc(O)cc2)c1

$$$$
