
     RDKit          3D

 20 22  0  0  0  0  0  0  0  0999 V2000
    1.6896   -1.6706    0.6602 O   0  0  0  0  0  0  0  0  0  0  0  0
    1.1862   -0.5933    0.2611 C   0  0  0  0  0  0  0  0  0  0  0  0
    1.9779    0.2965   -0.4688 N   0  0  0  0  0  0  0  0  0  0  0  0
    3.3257    0.1128   -0.8191 C   0  0  0  0  0  0  0  0  0  0  0  0
    3.9514    1.1038   -1.5471 C   0  0  0  0  0  0  0  0  0  0  0  0
    5.2757    0.9704   -1.9161 C   0  0  0  0  0  0  0  0  0  0  0  0
    5.9876   -0.1561   -1.5601 C   0  0  0  0  0  0  0  0  0  0  0  0
    5.3826   -1.1152   -0.8556 N   0  0  0  0  0  0  0  0  0  0  0  0
    4.0898   -0.9890   -0.4934 C   0  0  0  0  0  0  0  0  0  0  0  0
   -0.2182   -0.3436    0.5954 C   0  0  0  0  0  0  0  0  0  0  0  0
   -1.0072    0.7188    0.2987 C   0  0  0  0  0  0  0  0  0  0  0  0
   -2.2878    0.7114    0.7271 C   0  0  0  0  0  0  0  0  0  0  0  0
   -2.6764   -0.3966    1.4380 C   0  0  0  0  0  0  0  0  0  0  0  0
   -1.2704   -1.3535    1.4747 S   0  0  0  0  0  0  0  0  0  0  0  0
   -3.9279   -0.8473    2.0895 C   0  0  0  0  0  0  0  0  0  0  0  0
   -4.9246   -1.1447    0.9615 C   0  0  0  0  0  0  0  0  0  0  0  0
   -4.3421   -0.8705   -0.3873 C   0  0  0  0  0  0  0  0  0  0  0  0
   -4.5986    0.5018   -0.9087 C   0  0  0  0  0  0  0  0  0  0  0  0
   -4.5312    1.5843    0.1156 C   0  0  0  0  0  0  0  0  0  0  0  0
   -3.0821    1.9597    0.3345 C   0  0  0  0  0  0  0  0  0  0  0  0
  1  2  2  0
  2  3  1  0
  3  4  1  0
  4  5  2  0
  5  6  1  0
  6  7  2  0
  7  8  1  0
  8  9  2  0
  2 10  1  0
 10 11  2  0
 11 12  1  0
 12 13  2  0
 13 14  1  0
 13 15  1  0
 15 16  1  0
 16 17  1  0
 17 18  1  0
 18 19  1  0
 19 20  1  0
  9  4  1  0
 14 10  1  0
 20 12  1  0
M  END
>  <zinc_id>  (1) 
ZINC000001056452

>  <smiles>  (1) 
O=C(Nc1cccnc1)c1cc2c(s1)CCCCCC2

$$$$
