
     RDKit          3D

 21 23  0  0  0  0  0  0  0  0999 V2000
   -0.2962    4.3128    1.4624 C   0  0  0  0  0  0  0  0  0  0  0  0
   -0.3566    2.9504    1.1239 O   0  0  0  0  0  0  0  0  0  0  0  0
   -0.8735    2.4879   -0.0825 C   0  0  0  0  0  0  0  0  0  0  0  0
   -1.2941    3.3327   -0.8799 O   0  0  0  0  0  0  0  0  0  0  0  0
   -0.9280    1.0426   -0.4204 C   0  0  0  0  0  0  0  0  0  0  0  0
   -1.4022    0.6827   -1.5175 C   0  0  0  0  0  0  0  0  0  0  0  0
   -1.8816    1.7267   -2.4144 N   0  0  0  0  0  0  0  0  0  0  0  0
   -1.4747   -0.6304   -1.8748 O   0  0  0  0  0  0  0  0  0  0  0  0
   -1.0183   -1.5888   -1.0152 C   0  0  0  0  0  0  0  0  0  0  0  0
   -0.5294   -1.3031    0.1037 C   0  0  0  0  0  0  0  0  0  0  0  0
   -0.0413   -2.3226    1.0243 C   0  0  0  0  0  0  0  0  0  0  0  0
    0.2949   -2.0439    2.1891 O   0  0  0  0  0  0  0  0  0  0  0  0
    0.0635   -3.7255    0.5826 C   0  0  0  0  0  0  0  0  0  0  0  0
   -1.1914   -3.9745   -0.2560 C   0  0  0  0  0  0  0  0  0  0  0  0
   -1.0979   -3.0501   -1.4115 C   0  0  0  0  0  0  0  0  0  0  0  0
   -0.3454    0.1317    0.7212 C   0  0  1  0  0  0  0  0  0  0  0  0
    1.1756    0.3177    0.4512 C   0  0  0  0  0  0  0  0  0  0  0  0
    1.9738    0.0924    1.5351 C   0  0  0  0  0  0  0  0  0  0  0  0
    3.2918    0.2472    1.3256 C   0  0  0  0  0  0  0  0  0  0  0  0
    3.7173    0.6016    0.1025 C   0  0  0  0  0  0  0  0  0  0  0  0
    2.2137    0.7125   -0.7493 S   0  0  0  0  0  0  0  0  0  0  0  0
  1  2  1  0
  2  3  1  0
  3  4  2  0
  3  5  1  0
  5  6  2  0
  6  7  1  0
  6  8  1  0
  8  9  1  0
  9 10  2  0
 10 11  1  0
 11 12  2  0
 11 13  1  0
 13 14  1  0
 14 15  1  0
 10 16  1  0
 16 17  1  6
 17 18  2  0
 18 19  1  0
 19 20  2  0
 20 21  1  0
 16  5  1  0
 21 17  1  0
 15  9  1  0
M  END
>  <zinc_id>  (1) 
ZINC000000062230

>  <smiles>  (1) 
COC(=O)C1=C(N)OC2=C(C(=O)CCC2)[C@H]1c1cccs1

$$$$
