
     RDKit          3D

 19 20  0  0  0  0  0  0  0  0999 V2000
    4.8798   -0.5940    1.2041 C   0  0  0  0  0  0  0  0  0  0  0  0
    4.0373   -0.7016   -0.0404 C   0  0  0  0  0  0  0  0  0  0  0  0
    3.0914   -1.8653    0.1512 C   0  0  0  0  0  0  0  0  0  0  0  0
    3.2325    0.5316   -0.2412 C   0  0  0  0  0  0  0  0  0  0  0  0
    2.3564    0.3440   -1.6141 C   0  0  2  0  0  0  0  0  0  0  0  0
    1.6882    1.7677   -1.5107 N   0  0  0  0  0  0  0  0  0  0  0  0
    0.9554    1.7690   -0.3145 C   0  0  0  0  0  0  0  0  0  0  0  0
    0.6451    2.7977    0.3477 O   0  0  0  0  0  0  0  0  0  0  0  0
    0.6253    0.4290    0.0199 N   0  0  0  0  0  0  0  0  0  0  0  0
   -0.1349   -0.0447    1.1688 C   0  0  0  0  0  0  0  0  0  0  0  0
   -1.5757   -0.1095    0.8534 C   0  0  0  0  0  0  0  0  0  0  0  0
   -2.4602   -0.5373    1.8216 C   0  0  0  0  0  0  0  0  0  0  0  0
   -3.7973   -0.5832    1.4861 C   0  0  0  0  0  0  0  0  0  0  0  0
   -4.2523   -0.2214    0.2419 C   0  0  0  0  0  0  0  0  0  0  0  0
   -5.9420   -0.2722   -0.2034 Cl  0  0  0  0  0  0  0  0  0  0  0  0
   -3.3434    0.2023   -0.7054 C   0  0  0  0  0  0  0  0  0  0  0  0
   -1.9982    0.2582   -0.3970 C   0  0  0  0  0  0  0  0  0  0  0  0
    1.1345   -0.4301   -0.9384 C   0  0  0  0  0  0  0  0  0  0  0  0
    0.8582   -1.5517   -1.3296 O   0  0  0  0  0  0  0  0  0  0  0  0
  1  2  1  0
  2  3  1  0
  2  4  1  0
  5  4  1  1
  5  6  1  0
  6  7  1  0
  7  8  2  0
  7  9  1  0
  9 10  1  0
 10 11  1  0
 11 12  2  0
 12 13  1  0
 13 14  2  0
 14 15  1  0
 14 16  1  0
 16 17  2  0
  9 18  1  0
 18 19  2  0
 18  5  1  0
 17 11  1  0
M  END
>  <zinc_id>  (1) 
ZINC000003487539

>  <smiles>  (1) 
CC(C)C[C@@H]1NC(=O)N(Cc2ccc(Cl)cc2)C1=O

$$$$
