
     RDKit          3D

 21 24  0  0  0  0  0  0  0  0999 V2000
    2.0535    2.2878    0.0369 N   0  0  0  0  0  0  0  0  0  0  0  0
    1.9888    0.8753    0.0937 C   0  0  0  0  0  0  0  0  0  0  0  0
    3.0716    0.1012    0.1983 N   0  0  0  0  0  0  0  0  0  0  0  0
    3.0210   -1.2320    0.2526 C   0  0  0  0  0  0  0  0  0  0  0  0
    4.4036   -2.0902    0.3806 S   0  0  0  0  0  0  0  0  0  0  0  0
    1.8120   -1.8132    0.1982 N   0  0  0  0  0  0  0  0  0  0  0  0
    0.6885   -1.0559    0.0915 C   0  0  0  0  0  0  0  0  0  0  0  0
    0.6973    0.3098    0.0331 C   0  0  0  0  0  0  0  0  0  0  0  0
   -0.4601    1.2094   -0.0818 C   0  0  0  0  0  0  0  0  0  0  0  0
   -0.3219    2.1477    1.1323 C   0  0  0  0  0  0  0  0  0  0  0  0
   -1.2377    3.3264    1.0262 C   0  0  0  0  0  0  0  0  0  0  0  0
   -1.1900    4.0110   -0.3097 C   0  0  0  0  0  0  0  0  0  0  0  0
   -1.3457    3.0314   -1.4255 C   0  0  0  0  0  0  0  0  0  0  0  0
   -0.1688    2.0529   -1.3418 C   0  0  0  0  0  0  0  0  0  0  0  0
   -1.7600    0.5607   -0.1398 C   0  0  0  0  0  0  0  0  0  0  0  0
   -1.7538   -0.8981   -0.0762 C   0  0  0  0  0  0  0  0  0  0  0  0
   -3.0071   -1.5431   -0.1308 C   0  0  0  0  0  0  0  0  0  0  0  0
   -3.1160   -2.8855   -0.0799 C   0  0  0  0  0  0  0  0  0  0  0  0
   -1.9842   -3.6719    0.0286 C   0  0  0  0  0  0  0  0  0  0  0  0
   -0.7556   -3.0349    0.0820 C   0  0  0  0  0  0  0  0  0  0  0  0
   -0.6354   -1.6890    0.0317 C   0  0  0  0  0  0  0  0  0  0  0  0
  1  2  1  0
  2  3  2  0
  3  4  1  0
  4  5  2  0
  4  6  1  0
  6  7  1  0
  7  8  2  0
  8  9  1  0
  9 10  1  0
 10 11  1  0
 11 12  1  0
 12 13  1  0
 13 14  1  0
  9 15  1  0
 15 16  1  0
 16 17  2  0
 17 18  1  0
 18 19  2  0
 19 20  1  0
 20 21  2  0
  8  2  1  0
 14  9  1  0
 21 16  1  0
 21  7  1  0
M  END
>  <zinc_id>  (1) 
ZINC000002484772

>  <smiles>  (1) 
Nc1nc(=S)[nH]c2c1C1(CCCCC1)Cc1ccccc1-2

$$$$
