
     RDKit          3D

 19 20  0  0  0  0  0  0  0  0999 V2000
    4.6329    0.8892    2.9348 C   0  0  0  0  0  0  0  0  0  0  0  0
    3.7898    0.4435    1.7469 C   0  0  0  0  0  0  0  0  0  0  0  0
    2.6123    1.3681    1.6282 C   0  0  0  0  0  0  0  0  0  0  0  0
    1.6987    1.0401    0.4947 C   0  0  0  0  0  0  0  0  0  0  0  0
    2.3283    1.0813   -0.8419 C   0  0  0  0  0  0  0  0  0  0  0  0
    1.3397    0.7399   -1.9222 C   0  0  0  0  0  0  0  0  0  0  0  0
    0.7349   -0.6358   -1.7139 C   0  0  0  0  0  0  0  0  0  0  0  0
    1.3719   -1.7009   -2.2510 C   0  0  0  0  0  0  0  0  0  0  0  0
    0.9049   -2.9380   -1.9869 C   0  0  0  0  0  0  0  0  0  0  0  0
   -0.4295   -2.6153   -0.9854 S   0  0  0  0  0  0  0  0  0  0  0  0
   -0.3437   -0.8787   -0.9409 C   0  0  0  0  0  0  0  0  0  0  0  0
   -1.2960   -0.0661   -0.1955 C   0  0  0  0  0  0  0  0  0  0  0  0
   -2.1343   -0.6703    0.7391 C   0  0  0  0  0  0  0  0  0  0  0  0
   -3.0662   -0.0080    1.4189 N   0  0  0  0  0  0  0  0  0  0  0  0
   -3.2399    1.3101    1.2240 C   0  0  0  0  0  0  0  0  0  0  0  0
   -4.1187    1.9606    1.8590 O   0  0  0  0  0  0  0  0  0  0  0  0
   -2.4511    1.9066    0.3361 N   0  0  0  0  0  0  0  0  0  0  0  0
   -1.4945    1.2732   -0.3750 C   0  0  0  0  0  0  0  0  0  0  0  0
   -0.8394    1.9559   -1.1692 O   0  0  0  0  0  0  0  0  0  0  0  0
  1  2  1  0
  2  3  1  0
  3  4  1  0
  4  5  1  0
  5  6  1  0
  6  7  1  0
  7  8  1  0
  8  9  2  0
  9 10  1  0
 10 11  1  0
 11 12  1  0
 12 13  2  0
 13 14  1  0
 14 15  1  0
 15 16  2  0
 15 17  1  0
 17 18  1  0
 18 19  2  0
 11  7  2  0
 18 12  1  0
M  END
>  <zinc_id>  (1) 
ZINC000002173032

>  <smiles>  (1) 
CCCCCCc1ccsc1-c1c[nH]c(=O)[nH]c1=O

$$$$
