
     RDKit          3D

 21 22  0  0  0  0  0  0  0  0999 V2000
    6.3652    1.9499    0.1446 C   0  0  0  0  0  0  0  0  0  0  0  0
    5.0273    1.3074    0.1080 C   0  0  0  0  0  0  0  0  0  0  0  0
    3.8798    2.0724    0.0483 C   0  0  0  0  0  0  0  0  0  0  0  0
    2.6262    1.4958    0.0133 C   0  0  0  0  0  0  0  0  0  0  0  0
    2.4776    0.1323    0.0369 C   0  0  0  0  0  0  0  0  0  0  0  0
    1.1965   -0.5139    0.0018 N   0  0  0  0  0  0  0  0  0  0  0  0
    0.0074    0.2573   -0.0594 C   0  0  0  0  0  0  0  0  0  0  0  0
    0.0995    1.5105   -0.0819 O   0  0  0  0  0  0  0  0  0  0  0  0
   -1.2990   -0.4164   -0.0952 C   0  0  0  0  0  0  0  0  0  0  0  0
   -1.3737   -1.7916   -0.0732 C   0  0  0  0  0  0  0  0  0  0  0  0
   -2.6088   -2.4195   -0.1077 C   0  0  0  0  0  0  0  0  0  0  0  0
   -3.7969   -1.6990   -0.1646 C   0  0  0  0  0  0  0  0  0  0  0  0
   -5.1223   -2.3799   -0.2014 C   0  0  0  0  0  0  0  0  0  0  0  0
   -3.7216   -0.3219   -0.1865 C   0  0  0  0  0  0  0  0  0  0  0  0
   -4.9033    0.4732   -0.2445 N   0  0  0  0  0  4  0  0  0  0  0  0
   -4.8830    1.6139   -0.7579 O   0  0  0  0  0  0  0  0  0  0  0  0
   -6.1060    0.0372    0.2511 O   0  0  0  0  0  1  0  0  0  0  0  0
   -2.4767    0.2944   -0.1515 C   0  0  0  0  0  0  0  0  0  0  0  0
    3.6163   -0.6427    0.0966 C   0  0  0  0  0  0  0  0  0  0  0  0
    4.8723   -0.0652    0.1316 C   0  0  0  0  0  0  0  0  0  0  0  0
    6.1233   -0.8944    0.1964 C   0  0  0  0  0  0  0  0  0  0  0  0
  1  2  1  0
  2  3  2  0
  3  4  1  0
  4  5  2  0
  5  6  1  0
  6  7  1  0
  7  8  2  0
  7  9  1  0
  9 10  2  0
 10 11  1  0
 11 12  2  0
 12 13  1  0
 12 14  1  0
 14 15  1  0
 15 16  2  0
 15 17  1  0
 14 18  2  0
  5 19  1  0
 19 20  2  0
 20 21  1  0
 20  2  1  0
 18  9  1  0
M  CHG  2  15   1  17  -1
M  END
>  <zinc_id>  (1) 
ZINC000000271538

>  <smiles>  (1) 
Cc1ccc(NC(=O)c2ccc(C)c([N+](=O)[O-])c2)cc1C

$$$$
