
     RDKit          3D

 21 23  0  0  0  0  0  0  0  0999 V2000
    3.4552   -2.2451    1.9120 C   0  0  0  0  0  0  0  0  0  0  0  0
    3.6919   -1.6238    0.5470 C   0  0  0  0  0  0  0  0  0  0  0  0
    2.4578   -1.3663   -0.1580 N   0  0  0  0  0  0  0  0  0  0  0  0
    1.8772   -2.2483   -0.9697 N   0  0  0  0  0  0  0  0  0  0  0  0
    0.7371   -1.6805   -1.4632 C   0  0  0  0  0  0  0  0  0  0  0  0
   -0.2012   -2.3550   -2.4155 C   0  0  0  0  0  0  0  0  0  0  0  0
    0.6625   -0.4272   -0.9137 C   0  0  0  0  0  0  0  0  0  0  0  0
    1.6982   -0.2449   -0.1314 C   0  0  0  0  0  0  0  0  0  0  0  0
    1.8530    0.9376    0.5382 O   0  0  0  0  0  0  0  0  0  0  0  0
    0.9455    1.9638    0.4201 C   0  0  0  0  0  0  0  0  0  0  0  0
    1.1634    3.1679    1.1423 N   0  0  0  0  0  0  0  0  0  0  0  0
   -0.0704    1.8720   -0.3056 C   0  0  0  0  0  0  0  0  0  0  0  0
   -1.0753    2.9345   -0.4717 C   0  0  0  0  0  0  0  0  0  0  0  0
   -1.8536    3.7807   -0.5885 N   0  0  0  0  0  0  0  0  0  0  0  0
   -0.4831    0.6148   -1.1840 C   0  0  2  0  0  0  0  0  0  0  0  0
   -1.5548    0.0166   -0.1508 C   0  0  0  0  0  0  0  0  0  0  0  0
   -1.5199    0.2943    1.1444 C   0  0  0  0  0  0  0  0  0  0  0  0
   -2.4317   -0.2144    2.0412 C   0  0  0  0  0  0  0  0  0  0  0  0
   -3.4022   -1.0407    1.5287 C   0  0  0  0  0  0  0  0  0  0  0  0
   -3.4381   -1.3290    0.1822 C   0  0  0  0  0  0  0  0  0  0  0  0
   -2.5115   -0.8072   -0.7040 C   0  0  0  0  0  0  0  0  0  0  0  0
  1  2  1  0
  2  3  1  0
  3  4  1  0
  4  5  2  0
  5  6  1  0
  5  7  1  0
  7  8  2  0
  8  9  1  0
  9 10  1  0
 10 11  1  0
 10 12  2  0
 12 13  1  0
 13 14  3  0
 12 15  1  0
 15 16  1  1
 16 17  2  0
 17 18  1  0
 18 19  2  0
 19 20  1  0
 20 21  2  0
  8  3  1  0
 21 16  1  0
 15  7  1  0
M  END
>  <zinc_id>  (1) 
ZINC000000492807

>  <smiles>  (1) 
CCn1nc(C)c2c1OC(N)=C(C#N)[C@@H]2c1ccccc1

$$$$
