
     RDKit          3D

 21 23  0  0  0  0  0  0  0  0999 V2000
   -3.7613    0.2670   -2.0693 C   0  0  0  0  0  0  0  0  0  0  0  0
   -3.4298    0.9337   -0.8074 C   0  0  0  0  0  0  0  0  0  0  0  0
   -3.5359    2.4313   -0.8158 C   0  0  0  0  0  0  0  0  0  0  0  0
   -1.8516    0.6790   -0.4908 C   0  0  1  0  0  0  0  0  0  0  0  0
   -1.9003    0.9725    1.0891 C   0  0  0  0  0  0  0  0  0  0  0  0
   -3.2837    1.3592    1.3822 C   0  0  0  0  0  0  0  0  0  0  0  0
   -3.9602    0.3484    0.4338 C   0  0  1  0  0  0  0  0  0  0  0  0
   -5.3909    0.3162    0.6612 C   0  0  0  0  0  0  0  0  0  0  0  0
   -3.2747   -0.9419    0.6522 C   0  0  0  0  0  0  0  0  0  0  0  0
   -2.1144   -0.9844   -0.4508 C   0  0  2  0  0  0  0  0  0  0  0  0
   -0.9391   -1.2914    0.5974 C   0  0  0  0  0  0  0  0  0  0  0  0
    0.2715   -0.8636    0.0321 O   0  0  0  0  0  0  0  0  0  0  0  0
    1.4398   -1.0189    0.7426 C   0  0  0  0  0  0  0  0  0  0  0  0
    1.3767   -1.5394    1.8734 O   0  0  0  0  0  0  0  0  0  0  0  0
    2.7551   -0.6055    0.2422 C   0  0  0  0  0  0  0  0  0  0  0  0
    3.8819   -0.7834    0.9899 C   0  0  0  0  0  0  0  0  0  0  0  0
    5.1142   -0.4002    0.5299 C   0  0  0  0  0  0  0  0  0  0  0  0
    5.2269    0.1875   -0.7342 C   0  0  0  0  0  0  0  0  0  0  0  0
    6.4516    0.6086   -1.2802 N   0  0  0  0  0  0  0  0  0  0  0  0
    4.0781    0.3590   -1.4746 C   0  0  0  0  0  0  0  0  0  0  0  0
    2.8461   -0.0338   -0.9934 C   0  0  0  0  0  0  0  0  0  0  0  0
  1  2  1  0
  2  3  1  0
  2  4  1  0
  4  5  1  1
  5  6  1  0
  6  7  1  0
  7  8  1  6
  7  9  1  0
  9 10  1  0
 10 11  1  1
 11 12  1  0
 12 13  1  0
 13 14  2  0
 13 15  1  0
 15 16  2  0
 16 17  1  0
 17 18  2  0
 18 19  1  0
 18 20  1  0
 20 21  2  0
  7  2  1  0
 21 15  1  0
 10  4  1  0
M  END
>  <zinc_id>  (1) 
ZINC000003846353

>  <smiles>  (1) 
CC1(C)[C@H]2CC[C@]1(C)C[C@@H]2COC(=O)c1ccc(N)cc1

$$$$
