
     RDKit          3D

 20 23  0  0  0  0  0  0  0  0999 V2000
   -0.9942   -2.2823   -1.3227 N   0  0  0  0  0  0  0  0  0  0  0  0
   -0.4480   -1.1552   -0.6338 C   0  0  0  0  0  0  0  0  0  0  0  0
    0.8661   -1.0753   -0.5511 N   0  0  0  0  0  0  0  0  0  0  0  0
    1.5238   -0.0839    0.0596 C   0  0  0  0  0  0  0  0  0  0  0  0
    2.9735   -0.0368    0.1263 C   0  0  0  0  0  0  0  0  0  0  0  0
    3.6853   -1.0446   -0.4579 C   0  0  0  0  0  0  0  0  0  0  0  0
    5.0632   -1.1052   -0.4576 C   0  0  0  0  0  0  0  0  0  0  0  0
    5.7181   -0.1081    0.1565 N   0  0  0  0  0  0  0  0  0  0  0  0
    5.0524    0.8994    0.7418 C   0  0  0  0  0  0  0  0  0  0  0  0
    3.6597    0.9734    0.7490 C   0  0  0  0  0  0  0  0  0  0  0  0
    0.7670    0.8942    0.6248 N   0  0  0  0  0  0  0  0  0  0  0  0
   -0.6017    0.8447    0.5588 C   0  0  0  0  0  0  0  0  0  0  0  0
   -1.8503    1.8566    1.1312 S   0  0  0  0  0  0  0  0  0  0  0  0
   -3.1998    0.9818    0.5719 C   0  0  0  0  0  0  0  0  0  0  0  0
   -2.6315   -0.0894   -0.0540 C   0  0  0  0  0  0  0  0  0  0  0  0
   -1.2774   -0.1641   -0.0627 C   0  0  0  0  0  0  0  0  0  0  0  0
   -3.6572   -1.0412   -0.6507 C   0  0  0  0  0  0  0  0  0  0  0  0
   -4.6024   -0.2276   -1.4731 C   0  0  0  0  0  0  0  0  0  0  0  0
   -5.3422    0.8192   -0.6826 C   0  0  0  0  0  0  0  0  0  0  0  0
   -4.7044    1.1443    0.6292 C   0  0  0  0  0  0  0  0  0  0  0  0
  1  2  1  0
  2  3  2  0
  3  4  1  0
  4  5  1  0
  5  6  2  0
  6  7  1  0
  7  8  2  0
  8  9  1  0
  9 10  2  0
  4 11  2  0
 11 12  1  0
 12 13  1  0
 13 14  1  0
 14 15  2  0
 15 16  1  0
 15 17  1  0
 17 18  1  0
 18 19  1  0
 19 20  1  0
 16  2  1  0
 10  5  1  0
 16 12  2  0
 20 14  1  0
M  END
>  <zinc_id>  (1) 
ZINC000000420811

>  <smiles>  (1) 
Nc1nc(-c2ccncc2)nc2sc3c(c12)CCCC3

$$$$
