
     RDKit          3D

 18 19  0  0  0  0  0  0  0  0999 V2000
   -2.9721   -1.9029   -0.4952 C   0  0  0  0  0  0  0  0  0  0  0  0
   -2.9463   -0.4865   -0.2557 N   0  0  0  0  0  0  0  0  0  0  0  0
   -3.7223    0.0562    0.8287 C   0  0  0  0  0  0  0  0  0  0  0  0
   -2.1817    0.3988   -1.0566 C   0  0  0  0  0  0  0  0  0  0  0  0
   -2.6016    0.8143   -2.3521 N   0  0  0  0  0  0  0  0  0  0  0  0
   -1.0872    0.8376   -0.5827 N   0  0  0  0  0  0  0  0  0  0  0  0
   -0.5177    0.5569    0.6697 C   0  0  0  0  0  0  0  0  0  0  0  0
   -1.1319    0.7539    1.8789 C   0  0  0  0  0  0  0  0  0  0  0  0
   -0.4917    0.4235    3.0475 C   0  0  0  0  0  0  0  0  0  0  0  0
    0.7722   -0.1134    3.0830 C   0  0  0  0  0  0  0  0  0  0  0  0
    1.4132   -0.3194    1.8653 C   0  0  0  0  0  0  0  0  0  0  0  0
    0.7460    0.0231    0.6915 C   0  0  0  0  0  0  0  0  0  0  0  0
    1.4876   -0.2102   -0.5165 N   0  0  0  0  0  0  0  0  0  0  0  0
    1.1261   -1.2557   -1.4498 C   0  0  0  0  0  0  0  0  0  0  0  0
    2.1556   -2.3777   -1.3363 C   0  0  0  0  0  0  0  0  0  0  0  0
    3.7973   -1.5904   -1.4431 S   0  0  0  0  0  0  0  0  0  0  0  0
    3.5257    0.1627   -1.8280 C   0  0  0  0  0  0  0  0  0  0  0  0
    2.6289    0.6935   -0.7485 C   0  0  0  0  0  0  0  0  0  0  0  0
  1  2  1  0
  2  3  1  0
  2  4  1  0
  4  5  1  0
  4  6  2  0
  6  7  1  0
  7  8  2  0
  8  9  1  0
  9 10  2  0
 10 11  1  0
 11 12  2  0
 12 13  1  0
 13 14  1  0
 14 15  1  0
 15 16  1  0
 16 17  1  0
 17 18  1  0
 12  7  1  0
 18 13  1  0
M  END
>  <zinc_id>  (1) 
ZINC000003917600

>  <smiles>  (1) 
CN(C)/C(N)=N\c1ccccc1N1CCSCC1

$$$$
