
     RDKit          3D

 21 22  0  0  0  0  0  0  0  0999 V2000
    3.2827   -1.9701    1.5746 C   0  0  0  0  0  0  0  0  0  0  0  0
    3.6380   -0.8071    0.7189 C   0  0  0  0  0  0  0  0  0  0  0  0
    4.9545   -0.4559    0.4710 C   0  0  0  0  0  0  0  0  0  0  0  0
    5.2846    0.6245   -0.3238 C   0  0  0  0  0  0  0  0  0  0  0  0
    6.5648    0.9919   -0.5839 F   0  0  0  0  0  0  0  0  0  0  0  0
    4.2462    1.3498   -0.8681 C   0  0  0  0  0  0  0  0  0  0  0  0
    2.9333    0.9987   -0.6202 C   0  0  0  0  0  0  0  0  0  0  0  0
    2.6034   -0.0806    0.1737 C   0  0  0  0  0  0  0  0  0  0  0  0
    1.2345   -0.4494    0.4338 N   0  0  0  0  0  0  0  0  0  0  0  0
    0.1495    0.2684   -0.1036 C   0  0  0  0  0  0  0  0  0  0  0  0
    0.3365    1.2654   -0.8357 O   0  0  0  0  0  0  0  0  0  0  0  0
   -1.2028   -0.1851    0.2184 C   0  0  0  0  0  0  0  0  0  0  0  0
   -1.4399   -1.2847    1.0092 C   0  0  0  0  0  0  0  0  0  0  0  0
   -2.7198   -1.6987    1.3030 C   0  0  0  0  0  0  0  0  0  0  0  0
   -3.8014   -1.0071    0.8017 C   0  0  0  0  0  0  0  0  0  0  0  0
   -5.2135   -1.3867    1.0696 C   0  0  0  0  0  0  0  0  0  0  0  0
   -3.5601    0.0961    0.0083 C   0  0  0  0  0  0  0  0  0  0  0  0
   -4.6680    0.8360   -0.5275 N   0  0  0  0  0  4  0  0  0  0  0  0
   -5.7146    0.2140   -0.7933 O   0  0  0  0  0  0  0  0  0  0  0  0
   -4.6206    2.1817   -0.7551 O   0  0  0  0  0  1  0  0  0  0  0  0
   -2.2873    0.4990   -0.2776 C   0  0  0  0  0  0  0  0  0  0  0  0
  1  2  1  0
  2  3  2  0
  3  4  1  0
  4  5  1  0
  4  6  2  0
  6  7  1  0
  7  8  2  0
  8  9  1  0
  9 10  1  0
 10 11  2  0
 10 12  1  0
 12 13  2  0
 13 14  1  0
 14 15  2  0
 15 16  1  0
 15 17  1  0
 17 18  1  0
 18 19  2  0
 18 20  1  0
 17 21  2  0
  8  2  1  0
 21 12  1  0
M  CHG  2  18   1  20  -1
M  END
>  <zinc_id>  (1) 
ZINC000003558988

>  <smiles>  (1) 
Cc1cc(F)ccc1NC(=O)c1ccc(C)c([N+](=O)[O-])c1

$$$$
