
     RDKit          3D

 20 22  0  0  0  0  0  0  0  0999 V2000
    4.2503    2.4527    1.4786 C   0  0  0  0  0  0  0  0  0  0  0  0
    3.3328    2.7883    0.3053 C   0  0  0  0  0  0  0  0  0  0  0  0
    2.2627    1.8512    0.2148 O   0  0  0  0  0  0  0  0  0  0  0  0
    2.5424    0.5047    0.0266 C   0  0  0  0  0  0  0  0  0  0  0  0
    3.7232    0.1085   -0.0640 O   0  0  0  0  0  0  0  0  0  0  0  0
    1.4852   -0.5009   -0.0733 C   0  0  0  0  0  0  0  0  0  0  0  0
    1.6347   -1.8544   -0.2583 C   0  0  0  0  0  0  0  0  0  0  0  0
    2.8784   -2.5737   -0.3940 N   0  0  0  0  0  0  0  0  0  0  0  0
    0.4042   -2.3724   -0.2878 N   0  0  0  0  0  0  0  0  0  0  0  0
    0.0804   -3.7902   -0.4662 C   0  0  0  0  0  0  0  0  0  0  0  0
   -0.5214   -1.3956   -0.1281 C   0  0  0  0  0  0  0  0  0  0  0  0
   -1.8742   -1.3865   -0.0835 N   0  0  0  0  0  0  0  0  0  0  0  0
   -2.5859   -0.2582    0.0895 C   0  0  0  0  0  0  0  0  0  0  0  0
   -3.9647   -0.2937    0.1290 C   0  0  0  0  0  0  0  0  0  0  0  0
   -4.6666    0.8645    0.3057 C   0  0  0  0  0  0  0  0  0  0  0  0
   -4.0280    2.0709    0.4458 C   0  0  0  0  0  0  0  0  0  0  0  0
   -2.6531    2.0847    0.4036 C   0  0  0  0  0  0  0  0  0  0  0  0
   -1.8968    0.9464    0.2278 C   0  0  0  0  0  0  0  0  0  0  0  0
   -0.5538    0.9542    0.1858 N   0  0  0  0  0  0  0  0  0  0  0  0
    0.1504   -0.2005    0.0095 C   0  0  0  0  0  0  0  0  0  0  0  0
  1  2  1  0
  2  3  1  0
  3  4  1  0
  4  5  2  0
  4  6  1  0
  6  7  2  0
  7  8  1  0
  7  9  1  0
  9 10  1  0
  9 11  1  0
 11 12  2  0
 12 13  1  0
 13 14  2  0
 14 15  1  0
 15 16  2  0
 16 17  1  0
 17 18  2  0
 18 19  1  0
 19 20  2  0
 20  6  1  0
 20 11  1  0
 18 13  1  0
M  END
>  <zinc_id>  (1) 
ZINC000000613470

>  <smiles>  (1) 
CCOC(=O)c1c(N)n(C)c2nc3ccccc3nc12

$$$$
