
     RDKit          3D

 20 21  0  0  0  0  0  0  0  0999 V2000
    5.4364    0.1006   -1.1583 C   0  0  0  0  0  0  0  0  0  0  0  0
    3.8049   -0.1087   -1.2378 C   0  0  2  0  0  0  0  0  0  0  0  0
    3.4926    1.1058   -0.1750 C   0  0  0  0  0  0  0  0  0  0  0  0
    2.1559    0.8257    0.3732 C   0  0  0  0  0  0  0  0  0  0  0  0
    1.0151    1.6354    0.1435 N   0  0  0  0  0  0  0  0  0  0  0  0
   -0.2938    1.1915    0.3464 N   0  0  0  0  0  0  0  0  0  0  0  0
   -1.2791    1.1837   -0.6569 C   0  0  0  0  0  0  0  0  0  0  0  0
   -0.9581    1.6015   -1.8073 O   0  0  0  0  0  0  0  0  0  0  0  0
   -2.6493    0.7292   -0.4674 C   0  0  0  0  0  0  0  0  0  0  0  0
   -3.6438    1.0112   -1.4085 C   0  0  0  0  0  0  0  0  0  0  0  0
   -4.9445    0.5868   -1.2374 C   0  0  0  0  0  0  0  0  0  0  0  0
   -5.3286   -0.1378   -0.1286 C   0  0  0  0  0  0  0  0  0  0  0  0
   -6.6261   -0.5482    0.0227 F   0  0  0  0  0  0  0  0  0  0  0  0
   -4.3581   -0.4238    0.8062 C   0  0  0  0  0  0  0  0  0  0  0  0
   -3.0561    0.0031    0.6321 C   0  0  0  0  0  0  0  0  0  0  0  0
    2.1351   -0.2752    1.1127 C   0  0  0  0  0  0  0  0  0  0  0  0
    3.4861   -0.9153    1.1723 C   0  0  0  0  0  0  0  0  0  0  0  0
    3.3209   -2.1608    2.0030 C   0  0  0  0  0  0  0  0  0  0  0  0
    4.4968   -0.0435    1.8476 C   0  0  0  0  0  0  0  0  0  0  0  0
    3.7939   -1.3514   -0.1828 C   0  0  0  0  0  0  0  0  0  0  0  0
  2  1  1  1
  2  3  1  0
  3  4  1  0
  4  5  1  0
  5  6  1  0
  6  7  1  0
  7  8  2  0
  7  9  1  0
  9 10  2  0
 10 11  1  0
 11 12  2  0
 12 13  1  0
 12 14  1  0
 14 15  2  0
  4 16  2  0
 16 17  1  0
 17 18  1  0
 17 19  1  0
 17 20  1  0
 20  2  1  0
 15  9  1  0
M  END
>  <zinc_id>  (1) 
ZINC000003468921

>  <smiles>  (1) 
C[C@@H]1CC(NNC(=O)c2ccc(F)cc2)=CC(C)(C)C1

$$$$
