
     RDKit          3D

 20 22  0  0  0  0  0  0  0  0999 V2000
   -4.1746    2.8419    0.4292 C   0  0  0  0  0  0  0  0  0  0  0  0
   -3.5871    1.5031    0.2791 C   0  0  0  0  0  0  0  0  0  0  0  0
   -4.3883    0.3908    0.1832 C   0  0  0  0  0  0  0  0  0  0  0  0
   -3.8432   -0.8891    0.0400 C   0  0  0  0  0  0  0  0  0  0  0  0
   -2.4619   -1.0341   -0.0057 C   0  0  0  0  0  0  0  0  0  0  0  0
   -1.8918   -2.2576   -0.1436 N   0  0  0  0  0  0  0  0  0  0  0  0
   -0.5620   -2.4176   -0.1897 C   0  0  0  0  0  0  0  0  0  0  0  0
   -0.0118   -3.7955   -0.3430 C   0  0  0  0  0  0  0  0  0  0  0  0
    0.2513   -1.3072   -0.0943 C   0  0  0  0  0  0  0  0  0  0  0  0
   -0.2735   -0.0429    0.0468 C   0  0  0  0  0  0  0  0  0  0  0  0
    0.5046    1.1262    0.1491 N   0  0  0  0  0  0  0  0  0  0  0  0
    1.9239    1.1084    0.1156 C   0  0  0  0  0  0  0  0  0  0  0  0
    2.6861    2.2421    0.2145 C   0  0  0  0  0  0  0  0  0  0  0  0
    4.0644    2.1050    0.1698 C   0  0  0  0  0  0  0  0  0  0  0  0
    4.6631    0.8863    0.0318 C   0  0  0  0  0  0  0  0  0  0  0  0
    3.9023   -0.2481   -0.0673 C   0  0  0  0  0  0  0  0  0  0  0  0
    4.5483   -1.4881   -0.2086 O   0  0  0  0  0  0  0  0  0  0  0  0
    2.5398   -0.1354   -0.0254 C   0  0  0  0  0  0  0  0  0  0  0  0
   -1.6564    0.0821    0.0905 C   0  0  0  0  0  0  0  0  0  0  0  0
   -2.2331    1.3297    0.2311 C   0  0  0  0  0  0  0  0  0  0  0  0
  1  2  1  0
  2  3  2  0
  3  4  1  0
  4  5  2  0
  5  6  1  0
  6  7  2  0
  7  8  1  0
  7  9  1  0
  9 10  2  0
 10 11  1  0
 11 12  1  0
 12 13  2  0
 13 14  1  0
 14 15  2  0
 15 16  1  0
 16 17  1  0
 16 18  2  0
 10 19  1  0
 19 20  2  0
 20  2  1  0
 19  5  1  0
 18 12  1  0
M  END
>  <zinc_id>  (1) 
ZINC000000533817

>  <smiles>  (1) 
Cc1ccc2nc(C)cc(Nc3cccc(O)c3)c2c1

$$$$
