
     RDKit          3D

 21 23  0  0  0  0  0  0  0  0999 V2000
   -3.6793    0.2320    2.2400 C   0  0  0  0  0  0  0  0  0  0  0  0
   -3.9005    0.0931    0.7768 C   0  0  0  0  0  0  0  0  0  0  0  0
   -5.2021    0.0534    0.2959 C   0  0  0  0  0  0  0  0  0  0  0  0
   -5.4442   -0.0748   -1.0566 C   0  0  0  0  0  0  0  0  0  0  0  0
   -4.3468   -0.1597   -1.8891 C   0  0  0  0  0  0  0  0  0  0  0  0
   -3.0522   -0.1204   -1.4128 C   0  0  0  0  0  0  0  0  0  0  0  0
   -2.8088    0.0077   -0.0607 C   0  0  0  0  0  0  0  0  0  0  0  0
   -1.5303    0.0564    0.5127 N   0  0  0  0  0  0  0  0  0  0  0  0
   -0.3093   -0.0168   -0.1916 C   0  0  0  0  0  0  0  0  0  0  0  0
   -0.3663   -0.1360   -1.4411 O   0  0  0  0  0  0  0  0  0  0  0  0
    0.9952    0.0426    0.4952 C   0  0  0  0  0  0  0  0  0  0  0  0
    1.1982    0.1706    1.8445 C   0  0  0  0  0  0  0  0  0  0  0  0
    0.1514    0.2746    2.8790 C   0  0  0  0  0  0  0  0  0  0  0  0
    2.4779    0.1888    2.0994 O   0  0  0  0  0  0  0  0  0  0  0  0
    3.1605    0.0771    0.9658 C   0  0  0  0  0  0  0  0  0  0  0  0
    4.5098    0.0430    0.6776 C   0  0  0  0  0  0  0  0  0  0  0  0
    4.8826   -0.0854   -0.6461 C   0  0  0  0  0  0  0  0  0  0  0  0
    3.9674   -0.1788   -1.6693 C   0  0  0  0  0  0  0  0  0  0  0  0
    4.4403   -0.3044   -2.9596 O   0  0  0  0  0  0  0  0  0  0  0  0
    2.6147   -0.1454   -1.3888 C   0  0  0  0  0  0  0  0  0  0  0  0
    2.2420   -0.0176   -0.0713 C   0  0  0  0  0  0  0  0  0  0  0  0
  1  2  1  0
  2  3  2  0
  3  4  1  0
  4  5  2  0
  5  6  1  0
  6  7  2  0
  7  8  1  0
  8  9  1  0
  9 10  2  0
  9 11  1  0
 11 12  2  0
 12 13  1  0
 12 14  1  0
 14 15  1  0
 15 16  2  0
 16 17  1  0
 17 18  2  0
 18 19  1  0
 18 20  1  0
 20 21  2  0
  7  2  1  0
 21 11  1  0
 21 15  1  0
M  END
>  <zinc_id>  (1) 
ZINC000004426137

>  <smiles>  (1) 
Cc1ccccc1NC(=O)c1c(C)oc2ccc(O)cc12

$$$$
