
     RDKit          3D

 28 30  0  0  0  0  0  0  0  0999 V2000
    8.3252    2.1600    0.3123 C   0  0  0  0  0  0  0  0  0  0  0  0
    7.9252    1.6128   -1.0556 C   0  0  0  0  0  0  0  0  0  0  0  0
    6.6108    0.9591   -0.8717 C   0  0  0  0  0  0  0  0  0  0  0  0
    6.4918   -0.3662   -0.5446 C   0  0  0  0  0  0  0  0  0  0  0  0
    5.2329   -0.9337   -0.3687 C   0  0  0  0  0  0  0  0  0  0  0  0
    4.1386   -0.1338   -0.5305 C   0  0  0  0  0  0  0  0  0  0  0  0
    2.8649   -0.7244   -0.3212 N   0  0  0  0  0  0  0  0  0  0  0  0
    2.6902   -2.0993   -0.0570 C   0  0  0  0  0  0  0  0  0  0  0  0
    3.7477   -2.8136   -0.0189 O   0  0  0  0  0  0  0  0  0  0  0  0
    1.3715   -2.6620    0.1587 C   0  0  0  0  0  0  0  0  0  0  0  0
    0.2625   -1.7974    0.1155 N   0  0  0  0  0  0  0  0  0  0  0  0
    0.1648   -0.8316    1.2002 C   0  0  0  0  0  0  0  0  0  0  0  0
   -1.3495   -0.7662    1.4895 C   0  0  0  0  0  0  0  0  0  0  0  0
   -1.9635   -0.2879    0.2574 N   0  0  0  0  0  0  0  0  0  0  0  0
   -3.1488    0.4654    0.3961 C   0  0  0  0  0  0  0  0  0  0  0  0
   -4.3949   -0.0368    0.0892 C   0  0  0  0  0  0  0  0  0  0  0  0
   -5.5332    0.7378    0.2354 C   0  0  0  0  0  0  0  0  0  0  0  0
   -6.8685    0.1943   -0.0625 C   0  0  0  0  0  0  0  0  0  0  0  0
   -7.8265    0.7450    0.7946 F   0  0  0  0  0  0  0  0  0  0  0  0
   -7.2737    0.4831   -1.3379 F   0  0  0  0  0  0  0  0  0  0  0  0
   -6.8889   -1.1896    0.1689 F   0  0  0  0  0  0  0  0  0  0  0  0
   -5.3969    2.0015    0.6848 N   0  0  0  0  0  0  0  0  0  0  0  0
   -4.1772    2.4912    0.9846 C   0  0  0  0  0  0  0  0  0  0  0  0
   -3.0699    1.7224    0.8394 N   0  0  0  0  0  0  0  0  0  0  0  0
   -1.4448   -0.5142   -1.0705 C   0  0  0  0  0  0  0  0  0  0  0  0
   -0.1923   -1.3254   -1.1291 C   0  0  0  0  0  0  0  0  0  0  0  0
    4.2109    1.1873   -0.8576 C   0  0  0  0  0  0  0  0  0  0  0  0
    5.4917    1.7223   -1.0263 C   0  0  0  0  0  0  0  0  0  0  0  0
  1  2  1  0
  2  3  1  0
  3  4  2  0
  4  5  1  0
  5  6  2  0
  6  7  1  0
  7  8  1  0
  8  9  2  0
  8 10  1  0
 10 11  1  0
 11 12  1  0
 12 13  1  0
 13 14  1  0
 14 15  1  0
 15 16  2  0
 16 17  1  0
 17 18  1  0
 18 19  1  0
 18 20  1  0
 18 21  1  0
 17 22  2  0
 22 23  1  0
 23 24  2  0
 14 25  1  0
 25 26  1  0
  6 27  1  0
 27 28  2  0
 28  3  1  0
 26 11  1  0
 24 15  1  0
M  END
>  <zinc_id>  (1) 
ZINC000000013208

>  <smiles>  (1) 
CCc1ccc(NC(=O)CN2CCN(c3cc(C(F)(F)F)ncn3)CC2)cc1

$$$$
