
     RDKit          3D

 20 20  0  0  0  0  0  0  0  0999 V2000
   -1.2841   -0.7113    2.1210 C   0  0  0  0  0  0  0  0  0  0  0  0
   -1.9650   -0.1941    0.9084 C   0  0  0  0  0  0  0  0  0  0  0  0
   -1.2065    0.0900   -0.2121 C   0  0  0  0  0  0  0  0  0  0  0  0
    0.1976   -0.1021   -0.2278 N   0  0  0  0  0  0  0  0  0  0  0  0
    0.9547    0.1900   -1.3653 C   0  0  0  0  0  0  0  0  0  0  0  0
    0.2105    0.7646   -2.6990 S   0  0  0  0  0  0  0  0  0  0  0  0
    2.3643    0.0234   -1.4578 N   0  0  0  0  0  0  0  0  0  0  0  0
    3.1956   -0.4548   -0.4345 C   0  0  0  0  0  0  0  0  0  0  0  0
    2.6590   -0.7657    0.6621 O   0  0  0  0  0  0  0  0  0  0  0  0
    4.6642   -0.6200   -0.5538 C   0  0  0  0  0  0  0  0  0  0  0  0
    5.2574   -1.1662    0.7265 C   0  0  0  0  0  0  0  0  0  0  0  0
    5.3034    0.7391   -0.8249 C   0  0  0  0  0  0  0  0  0  0  0  0
    5.0717   -1.5248   -1.6750 C   0  0  0  0  0  0  0  0  0  0  0  0
   -1.8132    0.5706   -1.3494 C   0  0  0  0  0  0  0  0  0  0  0  0
   -3.1750    0.7644   -1.3597 C   0  0  0  0  0  0  0  0  0  0  0  0
   -3.9415    0.4834   -0.2449 C   0  0  0  0  0  0  0  0  0  0  0  0
   -3.3236    0.0054    0.8807 C   0  0  0  0  0  0  0  0  0  0  0  0
   -4.1349   -0.2781    2.0214 N   0  0  0  0  0  4  0  0  0  0  0  0
   -3.7748   -1.2050    2.7689 O   0  0  0  0  0  0  0  0  0  0  0  0
   -5.2595    0.4109    2.3151 O   0  0  0  0  0  1  0  0  0  0  0  0
  1  2  1  0
  2  3  2  0
  3  4  1  0
  4  5  1  0
  5  6  2  0
  5  7  1  0
  7  8  1  0
  8  9  2  0
  8 10  1  0
 10 11  1  0
 10 12  1  0
 10 13  1  0
  3 14  1  0
 14 15  2  0
 15 16  1  0
 16 17  2  0
 17 18  1  0
 18 19  2  0
 18 20  1  0
 17  2  1  0
M  CHG  2  18   1  20  -1
M  END
>  <zinc_id>  (1) 
ZINC000001070713

>  <smiles>  (1) 
Cc1c(NC(=S)NC(=O)C(C)(C)C)cccc1[N+](=O)[O-]

$$$$
