
     RDKit          3D

 20 21  0  0  0  0  0  0  0  0999 V2000
   -2.0933   -3.7567   -2.2376 C   0  0  0  0  0  0  0  0  0  0  0  0
   -2.5155   -2.5223   -1.7301 O   0  0  0  0  0  0  0  0  0  0  0  0
   -1.6511   -1.6212   -1.1191 C   0  0  0  0  0  0  0  0  0  0  0  0
   -0.3621   -1.9714   -1.0231 N   0  0  0  0  0  0  0  0  0  0  0  0
    0.5387   -1.1427   -0.4395 C   0  0  0  0  0  0  0  0  0  0  0  0
    1.9029   -1.5268   -0.3444 N   0  0  0  0  0  0  0  0  0  0  0  0
    2.8199   -0.6355    0.2727 C   0  0  0  0  0  0  0  0  0  0  0  0
    4.1669   -0.9465    0.3991 C   0  0  0  0  0  0  0  0  0  0  0  0
    5.0490   -0.0866    0.9940 C   0  0  0  0  0  0  0  0  0  0  0  0
    4.6155    1.1256    1.4887 C   0  0  0  0  0  0  0  0  0  0  0  0
    3.2678    1.4726    1.3795 C   0  0  0  0  0  0  0  0  0  0  0  0
    2.4018    0.5779    0.7711 C   0  0  0  0  0  0  0  0  0  0  0  0
    0.0769    0.0292    0.0297 N   0  0  0  0  0  0  0  0  0  0  0  0
   -1.2046    0.4282   -0.0412 C   0  0  0  0  0  0  0  0  0  0  0  0
   -1.6328    1.6841    0.4753 N   0  0  0  0  0  0  0  0  0  0  0  0
   -2.9749    2.1587    0.4283 C   0  0  0  0  0  0  0  0  0  0  0  0
   -3.5150    2.2863   -0.9788 C   0  0  0  0  0  0  0  0  0  0  0  0
   -2.9814    3.5761    1.0145 C   0  0  0  0  0  0  0  0  0  0  0  0
   -3.8484    1.3086    1.2944 C   0  0  0  0  0  0  0  0  0  0  0  0
   -2.0602   -0.4377   -0.6335 N   0  0  0  0  0  0  0  0  0  0  0  0
  1  2  1  0
  2  3  1  0
  3  4  2  0
  4  5  1  0
  5  6  1  0
  6  7  1  0
  7  8  2  0
  8  9  1  0
  9 10  2  0
 10 11  1  0
 11 12  2  0
  5 13  2  0
 13 14  1  0
 14 15  1  0
 15 16  1  0
 16 17  1  0
 16 18  1  0
 16 19  1  0
 14 20  2  0
 20  3  1  0
 12  7  1  0
M  END
>  <zinc_id>  (1) 
ZINC000000227300

>  <smiles>  (1) 
COc1nc(Nc2ccccc2)nc(NC(C)(C)C)n1

$$$$
