
     RDKit          3D

 19 20  0  0  0  0  0  0  0  0999 V2000
   -2.8384   -3.3290   -0.3718 C   0  0  0  0  0  0  0  0  0  0  0  0
   -2.5834   -1.9324   -0.4264 O   0  0  0  0  0  0  0  0  0  0  0  0
   -1.5960   -1.4282    0.4465 C   0  0  0  0  0  0  0  0  0  0  0  0
   -1.0037   -2.2057    1.2089 O   0  0  0  0  0  0  0  0  0  0  0  0
   -1.2948   -0.0117    0.4335 C   0  0  0  0  0  0  0  0  0  0  0  0
   -1.9251    0.7697   -0.3659 C   0  0  0  0  0  0  0  0  0  0  0  0
   -2.9769    0.2061   -1.2915 C   0  0  0  0  0  0  0  0  0  0  0  0
   -1.7315    2.1672   -0.4459 N   0  0  0  0  0  0  0  0  0  0  0  0
   -0.7610    2.7061    0.4437 C   0  0  0  0  0  0  0  0  0  0  0  0
   -0.5533    4.3528    0.3245 S   0  0  0  0  0  0  0  0  0  0  0  0
   -0.0922    1.9026    1.2941 N   0  0  0  0  0  0  0  0  0  0  0  0
   -0.1801    0.4262    1.4121 C   0  0  2  0  0  0  0  0  0  0  0  0
    1.0904    0.0017    0.5787 C   0  0  0  0  0  0  0  0  0  0  0  0
    2.2724    0.6366    0.7128 C   0  0  0  0  0  0  0  0  0  0  0  0
    3.3851    0.2401   -0.0309 C   0  0  0  0  0  0  0  0  0  0  0  0
    3.2993   -0.7878   -0.8998 C   0  0  0  0  0  0  0  0  0  0  0  0
    4.3999   -1.2259   -1.6756 O   0  0  0  0  0  0  0  0  0  0  0  0
    2.1009   -1.4509   -1.0528 C   0  0  0  0  0  0  0  0  0  0  0  0
    0.9885   -1.0374   -0.2942 C   0  0  0  0  0  0  0  0  0  0  0  0
  1  2  1  0
  2  3  1  0
  3  4  2  0
  3  5  1  0
  5  6  2  0
  6  7  1  0
  6  8  1  0
  8  9  1  0
  9 10  2  0
  9 11  1  0
 11 12  1  0
 12 13  1  6
 13 14  2  0
 14 15  1  0
 15 16  2  0
 16 17  1  0
 16 18  1  0
 18 19  2  0
 12  5  1  0
 19 13  1  0
M  END
>  <zinc_id>  (1) 
ZINC000002473887

>  <smiles>  (1) 
COC(=O)C1=C(C)NC(=S)N[C@@H]1c1ccc(O)cc1

$$$$
