
     RDKit          2D

 22 26  0  0  0  0  0  0  0  0999 V2000
   -3.4867    1.7293    0.0000 C   0  0  0  0  0  0  0  0  0  0  0  0
   -2.6591    0.4783    0.0000 C   0  0  0  0  0  0  0  0  0  0  0  0
   -1.8529    1.7432    0.0000 C   0  0  0  0  0  0  0  0  0  0  0  0
   -0.3543    1.6774    0.0000 C   0  0  0  0  0  0  0  0  0  0  0  0
    0.4519    2.9424    0.0000 F   0  0  0  0  0  0  0  0  0  0  0  0
    0.3380    0.3468    0.0000 C   0  0  0  0  0  0  0  0  0  0  0  0
   -0.4682   -0.9181    0.0000 C   0  0  0  0  0  0  0  0  0  0  0  0
    0.2241   -2.2488    0.0000 C   0  0  0  0  0  0  0  0  0  0  0  0
    1.7227   -2.3146    0.0000 C   0  0  0  0  0  0  0  0  0  0  0  0
    2.5289   -1.0496    0.0000 C   0  0  0  0  0  0  0  0  0  0  0  0
    4.0275   -1.1154    0.0000 C   0  0  0  0  0  0  0  0  0  0  0  0
    4.8337    0.1495    0.0000 C   0  0  0  0  0  0  0  0  0  0  0  0
    6.3323    0.0838    0.0000 O   0  0  0  0  0  0  0  0  0  0  0  0
    4.1414    1.4802    0.0000 C   0  0  0  0  0  0  0  0  0  0  0  0
    2.6428    1.5459    0.0000 C   0  0  0  0  0  0  0  0  0  0  0  0
    1.8366    0.2810    0.0000 C   0  0  0  0  0  0  0  0  0  0  0  0
   -1.9668   -0.8524    0.0000 C   0  0  0  0  0  0  0  0  0  0  0  0
   -1.5662   -2.2979    0.0000 C   0  0  0  0  0  0  0  0  0  0  0  0
   -3.0183   -1.9220    0.0000 C   0  0  0  0  0  0  0  0  0  0  0  0
   -4.3606   -1.2525    0.0000 C   0  0  0  0  0  0  0  0  0  0  0  0
   -4.1386    0.2310    0.0000 C   0  0  0  0  0  0  0  0  0  0  0  0
   -5.2082    1.2826    0.0000 O   0  0  0  0  0  0  0  0  0  0  0  0
  2  1  1  1
  2  3  1  0
  3  4  1  0
  4  5  1  1
  4  6  1  0
  6  7  2  0
  7  8  1  0
  8  9  2  0
  9 10  1  0
 10 11  2  0
 11 12  1  0
 12 13  1  0
 12 14  2  0
 14 15  1  0
 15 16  2  0
  7 17  1  0
 17 18  1  6
 19 18  1  6
 19 20  1  0
 20 21  1  0
 21 22  1  6
 17  2  1  0
 21  2  1  0
 16  6  1  0
 19 17  1  0
 16 10  1  0
M  END
>  <zinc_id>  (1) 
ZINC000000026251

>  <smiles>  (1) 
C[C@@]12C[C@@H](F)c3c(ccc4cc(O)ccc34)[C@]13C[C@@H]3C[C@@H]2O

$$$$
