
     RDKit          3D

 20 21  0  0  0  0  0  0  0  0999 V2000
   -0.4353   -2.4222    0.5614 O   0  0  0  0  0  0  0  0  0  0  0  0
   -0.0933   -1.2623    0.2182 C   0  0  0  0  0  0  0  0  0  0  0  0
   -1.1348   -0.4044   -0.2285 N   0  0  0  0  0  0  0  0  0  0  0  0
   -2.4961   -0.7926   -0.2994 C   0  0  0  0  0  0  0  0  0  0  0  0
   -3.0080   -2.2737    0.1276 S   0  0  0  0  0  0  0  0  0  0  0  0
   -3.4203    0.1762   -0.7662 N   0  0  0  0  0  0  0  0  0  0  0  0
   -2.9998    1.5134   -1.1580 C   0  0  0  0  0  0  0  0  0  0  0  0
   -3.7632    2.5909   -0.4431 C   0  0  0  0  0  0  0  0  0  0  0  0
   -5.2329    2.3180   -0.3683 C   0  0  0  0  0  0  0  0  0  0  0  0
   -5.5491    0.8963    0.0191 C   0  0  0  0  0  0  0  0  0  0  0  0
   -4.8395   -0.0977   -0.8846 C   0  0  0  0  0  0  0  0  0  0  0  0
    1.3045   -0.8198    0.2760 C   0  0  0  0  0  0  0  0  0  0  0  0
    2.3156   -1.6463    0.7075 C   0  0  0  0  0  0  0  0  0  0  0  0
    3.6219   -1.2302    0.7607 C   0  0  0  0  0  0  0  0  0  0  0  0
    3.9613    0.0521    0.3755 C   0  0  0  0  0  0  0  0  0  0  0  0
    5.3172    0.5086    0.4223 N   0  0  0  0  0  4  0  0  0  0  0  0
    6.2301   -0.2457    0.8146 O   0  0  0  0  0  0  0  0  0  0  0  0
    5.5706    1.7915    0.0241 O   0  0  0  0  0  1  0  0  0  0  0  0
    2.9763    0.8968   -0.0583 C   0  0  0  0  0  0  0  0  0  0  0  0
    1.6748    0.4511   -0.1007 C   0  0  0  0  0  0  0  0  0  0  0  0
  1  2  2  0
  2  3  1  0
  3  4  1  0
  4  5  2  0
  4  6  1  0
  6  7  1  0
  7  8  1  0
  8  9  1  0
  9 10  1  0
 10 11  1  0
  2 12  1  0
 12 13  2  0
 13 14  1  0
 14 15  2  0
 15 16  1  0
 16 17  2  0
 16 18  1  0
 15 19  1  0
 19 20  2  0
 11  6  1  0
 20 12  1  0
M  CHG  2  16   1  18  -1
M  END
>  <zinc_id>  (1) 
ZINC000000238014

>  <smiles>  (1) 
O=C(NC(=S)N1CCCCC1)c1ccc([N+](=O)[O-])cc1

$$$$
