
     RDKit          3D

 20 22  0  0  0  0  0  0  0  0999 V2000
   -0.2756   -1.7355    0.9718 N   0  0  0  0  0  0  0  0  0  0  0  0
   -0.1194   -0.6708    0.0375 C   0  0  0  0  0  0  0  0  0  0  0  0
    0.9140    0.1903   -0.0013 N   0  0  0  0  0  0  0  0  0  0  0  0
    2.0396    0.1791    0.8995 C   0  0  0  0  0  0  0  0  0  0  0  0
    3.1610   -0.6788    0.3945 C   0  0  0  0  0  0  0  0  0  0  0  0
    3.6615   -0.1827   -0.9442 C   0  0  0  0  0  0  0  0  0  0  0  0
    5.1518    0.0817   -0.9159 C   0  0  0  0  0  0  0  0  0  0  0  0
    5.3772    1.1621    0.1375 C   0  0  0  0  0  0  0  0  0  0  0  0
    5.0477    0.5771    1.4736 C   0  0  0  0  0  0  0  0  0  0  0  0
    4.2531   -0.6795    1.4219 C   0  0  0  0  0  0  0  0  0  0  0  0
    0.6519    1.0009   -1.0138 N   0  0  0  0  0  0  0  0  0  0  0  0
   -0.4943    0.6556   -1.5767 N   0  0  0  0  0  0  0  0  0  0  0  0
   -0.9923   -0.3916   -0.9299 N   0  0  0  0  0  4  0  0  0  0  0  0
   -2.2534   -1.0696   -1.2530 C   0  0  0  0  0  0  0  0  0  0  0  0
   -3.3419   -0.4052   -0.4725 C   0  0  0  0  0  0  0  0  0  0  0  0
   -3.7177   -0.7951    0.7726 C   0  0  0  0  0  0  0  0  0  0  0  0
   -4.7312   -0.1385    1.4396 C   0  0  0  0  0  0  0  0  0  0  0  0
   -5.3691    0.9244    0.8366 C   0  0  0  0  0  0  0  0  0  0  0  0
   -4.9886    1.3197   -0.4248 C   0  0  0  0  0  0  0  0  0  0  0  0
   -3.9740    0.6563   -1.0831 C   0  0  0  0  0  0  0  0  0  0  0  0
  1  2  1  0
  2  3  1  0
  3  4  1  0
  4  5  1  0
  5  6  1  0
  6  7  1  0
  7  8  1  0
  8  9  1  0
  9 10  1  0
  3 11  1  0
 11 12  2  0
 12 13  1  0
 13 14  1  0
 14 15  1  0
 15 16  2  0
 16 17  1  0
 17 18  2  0
 18 19  1  0
 19 20  2  0
 13  2  2  0
 20 15  1  0
 10  5  1  0
M  CHG  1  13   1
M  END
>  <zinc_id>  (1) 
ZINC000002518947

>  <smiles>  (1) 
Nc1n(CC2CCCCC2)nn[n+]1Cc1ccccc1

$$$$
