
     RDKit          3D

 19 20  0  0  0  0  0  0  0  0999 V2000
   -1.7028    0.6594   -3.5129 C   0  0  0  0  0  0  0  0  0  0  0  0
   -1.7918    0.3406   -2.0466 C   0  0  0  0  0  0  0  0  0  0  0  0
   -3.0059    0.1415   -1.4253 C   0  0  0  0  0  0  0  0  0  0  0  0
   -3.1239   -0.1518   -0.0859 C   0  0  0  0  0  0  0  0  0  0  0  0
   -4.4225   -0.3684    0.5956 C   0  0  0  0  0  0  0  0  0  0  0  0
   -1.9605   -0.2456    0.6483 C   0  0  0  0  0  0  0  0  0  0  0  0
   -1.9614   -0.5508    2.0734 C   0  0  0  0  0  0  0  0  0  0  0  0
   -3.1916   -0.7642    2.7569 N   0  0  0  0  0  0  0  0  0  0  0  0
   -0.9047   -0.6376    2.7472 O   0  0  0  0  0  0  0  0  0  0  0  0
   -0.7399   -0.0428    0.0115 C   0  0  0  0  0  0  0  0  0  0  0  0
    0.4396   -0.1460    0.7936 N   0  0  0  0  0  0  0  0  0  0  0  0
    1.6921    0.0547    0.1748 C   0  0  0  0  0  0  0  0  0  0  0  0
    1.7331    0.3443   -1.1671 C   0  0  0  0  0  0  0  0  0  0  0  0
    2.9552    0.5349   -1.7462 C   0  0  0  0  0  0  0  0  0  0  0  0
    4.1163    0.4427   -1.0203 C   0  0  0  0  0  0  0  0  0  0  0  0
    4.0904    0.1513    0.3342 C   0  0  0  0  0  0  0  0  0  0  0  0
    5.5828    0.0346    1.2585 Cl  0  0  0  0  0  0  0  0  0  0  0  0
    2.8670   -0.0409    0.9201 C   0  0  0  0  0  0  0  0  0  0  0  0
   -0.6715    0.2439   -1.3100 N   0  0  0  0  0  0  0  0  0  0  0  0
  1  2  1  0
  2  3  2  0
  3  4  1  0
  4  5  1  0
  4  6  2  0
  6  7  1  0
  7  8  1  0
  7  9  2  0
  6 10  1  0
 10 11  1  0
 11 12  1  0
 12 13  2  0
 13 14  1  0
 14 15  2  0
 15 16  1  0
 16 17  1  0
 16 18  2  0
 10 19  2  0
 19  2  1  0
 18 12  1  0
M  END
>  <zinc_id>  (1) 
ZINC000000238764

>  <smiles>  (1) 
Cc1cc(C)c(C(N)=O)c(Nc2cccc(Cl)c2)n1

$$$$
