
     RDKit          2D

 18 20  0  0  0  0  0  0  0  0999 V2000
   -5.7036   -1.5088    0.0000 C   0  0  0  0  0  0  0  0  0  0  0  0
   -4.3231   -0.9222    0.0000 N   0  0  0  0  0  0  0  0  0  0  0  0
   -3.0370   -1.6943    0.0000 C   0  0  0  0  0  0  0  0  0  0  0  0
   -1.9053   -0.7097    0.0000 C   0  0  0  0  0  0  0  0  0  0  0  0
   -2.4920    0.6708    0.0000 C   0  0  0  0  0  0  0  0  0  0  0  0
   -3.9862    0.5395    0.0000 C   0  0  0  0  0  0  0  0  0  0  0  0
   -2.8545    1.5240    0.0000 C   0  0  0  0  0  0  0  0  0  0  0  0
   -1.5685    0.7519    0.0000 N   0  0  0  0  0  0  0  0  0  0  0  0
   -0.1880    1.3386    0.0000 C   0  0  0  0  0  0  0  0  0  0  0  0
   -0.0057    2.8275    0.0000 O   0  0  0  0  0  0  0  0  0  0  0  0
    1.0103    0.4363    0.0000 C   0  0  0  0  0  0  0  0  0  0  0  0
    2.4446    0.8754    0.0000 C   0  0  0  0  0  0  0  0  0  0  0  0
    3.3055   -0.3530    0.0000 C   0  0  0  0  0  0  0  0  0  0  0  0
    4.8053   -0.3786    0.0000 N   0  0  0  0  0  4  0  0  0  0  0  0
    5.5773    0.9075    0.0000 O   0  0  0  0  0  0  0  0  0  0  0  0
    5.5330   -1.6902    0.0000 O   0  0  0  0  0  1  0  0  0  0  0  0
    2.4032   -1.5513    0.0000 N   0  0  0  0  0  0  0  0  0  0  0  0
    0.9847   -1.0635    0.0000 N   0  0  0  0  0  0  0  0  0  0  0  0
  1  2  1  0
  2  3  1  0
  4  3  1  1
  4  5  1  0
  5  6  1  0
  6  7  1  6
  7  8  1  0
  8  9  1  0
  9 10  2  0
  9 11  1  0
 11 12  2  0
 12 13  1  0
 13 14  1  0
 14 15  2  0
 14 16  1  0
 13 17  2  0
 17 18  1  0
  6  2  1  0
 18 11  1  0
  8  4  1  0
M  CHG  2  14   1  16  -1
M  END
>  <zinc_id>  (1) 
ZINC000000043125

>  <smiles>  (1) 
CN1C[C@H]2C[C@H]1CN2C(=O)c1cc([N+](=O)[O-])n[nH]1

$$$$
