
     RDKit          3D

 20 22  0  0  0  0  0  0  0  0999 V2000
    4.2501    0.8859    1.7192 C   0  0  0  0  0  0  0  0  0  0  0  0
    3.4797    0.1275    0.6924 C   0  0  0  0  0  0  0  0  0  0  0  0
    4.0923   -0.5840   -0.3057 C   0  0  0  0  0  0  0  0  0  0  0  0
    3.3249   -1.2776   -1.2246 C   0  0  0  0  0  0  0  0  0  0  0  0
    1.9383   -1.2493   -1.1303 C   0  0  0  0  0  0  0  0  0  0  0  0
    1.2331   -1.9645   -2.0822 O   0  0  0  0  0  0  0  0  0  0  0  0
    1.3082   -0.5500   -0.1485 C   0  0  0  0  0  0  0  0  0  0  0  0
   -0.1309   -0.5058    0.0251 C   0  0  0  0  0  0  0  0  0  0  0  0
   -0.8848   -1.5995    0.2311 N   0  0  0  0  0  0  0  0  0  0  0  0
   -2.2006   -1.5416    0.3925 N   0  0  0  0  0  0  0  0  0  0  0  0
   -2.9760   -2.7735    0.6244 C   0  0  0  0  0  0  0  0  0  0  0  0
   -2.8609   -0.3765    0.3577 C   0  0  0  0  0  0  0  0  0  0  0  0
   -4.1210   -0.3115    0.5122 O   0  0  0  0  0  0  0  0  0  0  0  0
   -2.1551    0.8006    0.1478 C   0  0  0  0  0  0  0  0  0  0  0  0
   -2.8436    2.0242    0.0969 C   0  0  0  0  0  0  0  0  0  0  0  0
   -2.0496    3.1299   -0.1257 C   0  0  0  0  0  0  0  0  0  0  0  0
   -0.6833    3.0605   -0.2905 C   0  0  0  0  0  0  0  0  0  0  0  0
   -0.0292    1.8479   -0.2389 C   0  0  0  0  0  0  0  0  0  0  0  0
   -0.7974    0.7185   -0.0165 C   0  0  0  0  0  0  0  0  0  0  0  0
    2.1057    0.1388    0.7634 C   0  0  0  0  0  0  0  0  0  0  0  0
  1  2  1  0
  2  3  2  0
  3  4  1  0
  4  5  2  0
  5  6  1  0
  5  7  1  0
  7  8  1  0
  8  9  2  0
  9 10  1  0
 10 11  1  0
 10 12  1  0
 12 13  2  0
 12 14  1  0
 14 15  2  0
 15 16  1  0
 16 17  2  0
 17 18  1  0
 18 19  2  0
  7 20  2  0
 20  2  1  0
 19  8  1  0
 19 14  1  0
M  END
>  <zinc_id>  (1) 
ZINC000000389943

>  <smiles>  (1) 
Cc1ccc(O)c(-c2nn(C)c(=O)c3ccccc23)c1

$$$$
