
     RDKit          3D

 20 22  0  0  0  0  0  0  0  0999 V2000
   -2.6998   -0.7072    3.4465 C   0  0  0  0  0  0  0  0  0  0  0  0
   -2.0024   -0.4646    2.2567 O   0  0  0  0  0  0  0  0  0  0  0  0
   -2.7037   -0.2812    1.0809 C   0  0  0  0  0  0  0  0  0  0  0  0
   -4.0722   -0.3353    1.0723 C   0  0  0  0  0  0  0  0  0  0  0  0
   -4.8108   -0.1584   -0.0761 C   0  0  0  0  0  0  0  0  0  0  0  0
   -4.1409    0.0808   -1.2530 C   0  0  0  0  0  0  0  0  0  0  0  0
   -2.7708    0.1358   -1.2490 C   0  0  0  0  0  0  0  0  0  0  0  0
   -2.0178   -0.0383   -0.1130 C   0  0  0  0  0  0  0  0  0  0  0  0
   -0.6105    0.0065   -0.0445 N   0  0  0  0  0  0  0  0  0  0  0  0
    0.2350    0.2358   -1.1266 C   0  0  0  0  0  0  0  0  0  0  0  0
   -0.2861    0.4176   -2.2533 O   0  0  0  0  0  0  0  0  0  0  0  0
    1.7105    0.2624   -0.9415 C   0  0  0  0  0  0  0  0  0  0  0  0
    2.4943    0.4921   -2.0405 C   0  0  0  0  0  0  0  0  0  0  0  0
    2.1307    0.7239   -3.4091 N   0  0  0  0  0  0  0  0  0  0  0  0
    4.0721    0.4445   -1.4211 S   0  0  0  0  0  0  0  0  0  0  0  0
    3.7163    0.1344    0.2199 C   0  0  0  0  0  0  0  0  0  0  0  0
    2.3578    0.0756    0.2412 C   0  0  0  0  0  0  0  0  0  0  0  0
    1.9266   -0.1972    1.6845 C   0  0  0  0  0  0  0  0  0  0  0  0
    3.1560   -0.7347    2.3303 C   0  0  0  0  0  0  0  0  0  0  0  0
    4.3156   -0.0924    1.5952 C   0  0  0  0  0  0  0  0  0  0  0  0
  1  2  1  0
  2  3  1  0
  3  4  2  0
  4  5  1  0
  5  6  2  0
  6  7  1  0
  7  8  2  0
  8  9  1  0
  9 10  1  0
 10 11  2  0
 10 12  1  0
 12 13  2  0
 13 14  1  0
 13 15  1  0
 15 16  1  0
 16 17  2  0
 17 18  1  0
 18 19  1  0
 19 20  1  0
  8  3  1  0
 17 12  1  0
 20 16  1  0
M  END
>  <zinc_id>  (1) 
ZINC000000265241

>  <smiles>  (1) 
COc1ccccc1NC(=O)c1c(N)sc2c1CCC2

$$$$
