
     RDKit          3D

 20 21  0  0  0  0  0  0  0  0999 V2000
    2.6905    1.7055   -3.0567 C   0  0  0  0  0  0  0  0  0  0  0  0
    1.6332    1.4480   -2.0422 C   0  0  0  0  0  0  0  0  0  0  0  0
    1.7026   -0.1810   -1.7203 C   0  0  2  0  0  0  0  0  0  0  0  0
    0.5102   -0.1746   -0.6461 C   0  0  0  0  0  0  0  0  0  0  0  0
    0.7069   -0.1016    0.5387 O   0  0  0  0  0  0  0  0  0  0  0  0
   -0.7994   -0.2617   -1.1981 N   0  0  0  0  0  0  0  0  0  0  0  0
   -1.9697   -0.2686   -0.3860 C   0  0  0  0  0  0  0  0  0  0  0  0
   -1.9427   -0.1925    0.9923 C   0  0  0  0  0  0  0  0  0  0  0  0
   -3.0815   -0.1997    1.7732 C   0  0  0  0  0  0  0  0  0  0  0  0
   -4.3208   -0.2867    1.1698 C   0  0  0  0  0  0  0  0  0  0  0  0
   -5.5764   -0.2980    1.9688 C   0  0  0  0  0  0  0  0  0  0  0  0
   -4.3591   -0.3632   -0.2068 C   0  0  0  0  0  0  0  0  0  0  0  0
   -5.6201   -0.4503   -0.7952 O   0  0  0  0  0  0  0  0  0  0  0  0
   -3.2018   -0.3547   -0.9784 C   0  0  0  0  0  0  0  0  0  0  0  0
    2.9126   -0.0708   -0.6664 C   0  0  0  0  0  0  0  0  0  0  0  0
    2.8144    0.7528    0.3685 C   0  0  0  0  0  0  0  0  0  0  0  0
    3.8625    0.8335    1.2616 C   0  0  0  0  0  0  0  0  0  0  0  0
    4.9904    0.0769    1.0879 C   0  0  0  0  0  0  0  0  0  0  0  0
    5.0482   -0.7658   -0.0028 C   0  0  0  0  0  0  0  0  0  0  0  0
    4.0001   -0.8476   -0.8974 C   0  0  0  0  0  0  0  0  0  0  0  0
  1  2  1  0
  3  2  1  6
  3  4  1  0
  4  5  2  0
  4  6  1  0
  6  7  1  0
  7  8  2  0
  8  9  1  0
  9 10  2  0
 10 11  1  0
 10 12  1  0
 12 13  1  0
 12 14  2  0
  3 15  1  0
 15 16  2  0
 16 17  1  0
 17 18  2  0
 18 19  1  0
 19 20  2  0
 14  7  1  0
 20 15  1  0
M  END
>  <zinc_id>  (1) 
ZINC000000365445

>  <smiles>  (1) 
CC[C@H](C(=O)Nc1ccc(C)c(O)c1)c1ccccc1

$$$$
