
     RDKit          3D

 21 24  0  0  0  0  0  0  0  0999 V2000
    1.9316   -1.2182    2.4470 C   0  0  0  0  0  0  0  0  0  0  0  0
    2.0645   -0.8378    1.0015 C   0  0  0  0  0  0  0  0  0  0  0  0
    0.9268   -0.6684    0.1910 C   0  0  0  0  0  0  0  0  0  0  0  0
   -0.4569   -0.8491    0.6025 C   0  0  0  0  0  0  0  0  0  0  0  0
   -1.3889    0.0008    0.2145 C   0  0  0  0  0  0  0  0  0  0  0  0
   -1.2850    1.1900   -0.6187 C   0  0  0  0  0  0  0  0  0  0  0  0
   -0.2370    1.6142   -1.1185 O   0  0  0  0  0  0  0  0  0  0  0  0
   -2.6169    1.7364   -0.7245 N   0  0  0  0  0  0  0  0  0  0  0  0
   -3.5264    0.9362    0.0049 C   0  0  0  0  0  0  0  0  0  0  0  0
   -4.8743    1.0646    0.1868 N   0  0  0  0  0  0  0  0  0  0  0  0
   -5.5744    0.1896    0.9255 C   0  0  0  0  0  0  0  0  0  0  0  0
   -4.9039   -0.8615    1.5097 C   0  0  0  0  0  0  0  0  0  0  0  0
   -3.5287   -1.0019    1.3302 C   0  0  0  0  0  0  0  0  0  0  0  0
   -2.8229   -0.0960    0.5694 C   0  0  0  0  0  0  0  0  0  0  0  0
    1.4380   -0.3390   -1.0062 N   0  0  0  0  0  0  0  0  0  0  0  0
    2.7807   -0.2960   -0.9852 C   0  0  0  0  0  0  0  0  0  0  0  0
    3.2071   -0.6089    0.2796 C   0  0  0  0  0  0  0  0  0  0  0  0
    4.6229   -0.6685    0.7149 C   0  0  0  0  0  0  0  0  0  0  0  0
    5.5563   -0.0485   -0.2805 C   0  0  0  0  0  0  0  0  0  0  0  0
    4.9059    0.7475   -1.3511 C   0  0  0  0  0  0  0  0  0  0  0  0
    3.7814    0.0144   -2.0456 C   0  0  0  0  0  0  0  0  0  0  0  0
  1  2  1  0
  2  3  2  0
  3  4  1  0
  4  5  2  0
  5  6  1  0
  6  7  2  0
  6  8  1  0
  8  9  1  0
  9 10  2  0
 10 11  1  0
 11 12  2  0
 12 13  1  0
 13 14  2  0
  3 15  1  0
 15 16  1  0
 16 17  2  0
 17 18  1  0
 18 19  1  0
 19 20  1  0
 20 21  1  0
 17  2  1  0
 14  5  1  0
 21 16  1  0
 14  9  1  0
M  END
>  <zinc_id>  (1) 
ZINC000003955272

>  <smiles>  (1) 
Cc1c(/C=C2\C(=O)Nc3ncccc32)[nH]c2c1CCCC2

$$$$
