
     RDKit          3D

 18 19  0  0  0  0  0  0  0  0999 V2000
    4.7102   -0.1954   -0.8154 C   0  0  0  0  0  0  0  0  0  0  0  0
    3.2098    0.3572   -1.2119 C   0  0  2  0  0  0  0  0  0  0  0  0
    3.3111    1.7960   -0.4057 C   0  0  0  0  0  0  0  0  0  0  0  0
    4.1724    1.7303    0.7382 C   0  0  0  0  0  0  0  0  0  0  0  0
    4.2906    0.4158    1.4560 C   0  0  0  0  0  0  0  0  0  0  0  0
    3.0001   -0.3084    1.1800 C   0  0  0  0  0  0  0  0  0  0  0  0
    2.4657   -0.3727    0.0147 C   0  0  0  0  0  0  0  0  0  0  0  0
    1.2842   -0.9924   -0.4002 N   0  0  0  0  0  0  0  0  0  0  0  0
    0.0041   -0.6029    0.0005 N   0  0  0  0  0  0  0  0  0  0  0  0
   -1.0088   -0.5027   -0.9975 C   0  0  0  0  0  0  0  0  0  0  0  0
   -0.7752   -0.7566   -2.1920 O   0  0  0  0  0  0  0  0  0  0  0  0
   -2.3564   -0.0941   -0.6197 C   0  0  0  0  0  0  0  0  0  0  0  0
   -2.6829    1.2379   -0.6329 C   0  0  0  0  0  0  0  0  0  0  0  0
   -3.9161    1.7252   -0.2958 C   0  0  0  0  0  0  0  0  0  0  0  0
   -4.8919    0.8051    0.0807 C   0  0  0  0  0  0  0  0  0  0  0  0
   -4.5733   -0.5384    0.0966 C   0  0  0  0  0  0  0  0  0  0  0  0
   -3.3143   -1.0008   -0.2486 C   0  0  0  0  0  0  0  0  0  0  0  0
   -2.9293   -2.7031   -0.2184 Cl  0  0  0  0  0  0  0  0  0  0  0  0
  2  1  1  1
  2  3  1  0
  3  4  1  0
  4  5  1  0
  5  6  1  0
  6  7  2  0
  7  8  1  0
  8  9  1  0
  9 10  1  0
 10 11  2  0
 10 12  1  0
 12 13  2  0
 13 14  1  0
 14 15  2  0
 15 16  1  0
 16 17  2  0
 17 18  1  0
  7  2  1  0
 17 12  1  0
M  END
>  <zinc_id>  (1) 
ZINC000002753859

>  <smiles>  (1) 
C[C@@H]1CCCC=C1NNC(=O)c1ccccc1Cl

$$$$
