
     RDKit          3D

 19 20  0  0  0  0  0  0  0  0999 V2000
   -2.7858   -2.6758   -0.6635 N   0  0  0  0  0  0  0  0  0  0  0  0
   -1.6009   -2.0828   -0.1729 C   0  0  0  0  0  0  0  0  0  0  0  0
   -0.7737   -2.5630    1.0826 S   0  0  0  0  0  0  0  0  0  0  0  0
   -1.1869   -0.8211   -1.0452 C   0  0  2  0  0  0  0  0  0  0  0  0
    0.2315   -0.5165   -0.3705 C   0  0  0  0  0  0  0  0  0  0  0  0
    0.8811   -1.3878    0.1630 O   0  0  0  0  0  0  0  0  0  0  0  0
    0.5658    0.8104   -0.4918 O   0  0  0  0  0  0  0  0  0  0  0  0
    1.7511    1.3300   -0.0001 C   0  0  0  0  0  0  0  0  0  0  0  0
    3.0138    0.8590   -0.5778 C   0  0  0  0  0  0  0  0  0  0  0  0
    4.1979    1.5505    0.0887 C   0  0  0  0  0  0  0  0  0  0  0  0
    4.8847    0.4985    0.9027 C   0  0  0  0  0  0  0  0  0  0  0  0
    4.5028   -0.8391    0.3081 C   0  0  0  0  0  0  0  0  0  0  0  0
    3.2962   -0.5888   -0.5553 C   0  0  0  0  0  0  0  0  0  0  0  0
   -2.0580    0.2303   -0.2232 C   0  0  0  0  0  0  0  0  0  0  0  0
   -1.5100    1.3449    0.2724 C   0  0  0  0  0  0  0  0  0  0  0  0
   -2.3016    2.2294    0.9689 C   0  0  0  0  0  0  0  0  0  0  0  0
   -3.6282    1.9275    1.1259 C   0  0  0  0  0  0  0  0  0  0  0  0
   -4.1392    0.7750    0.5998 C   0  0  0  0  0  0  0  0  0  0  0  0
   -3.3406   -0.0809   -0.0822 N   0  0  0  0  0  0  0  0  0  0  0  0
  1  2  1  0
  2  3  2  0
  4  2  1  1
  4  5  1  0
  5  6  2  0
  5  7  1  0
  7  8  1  0
  8  9  1  0
  9 10  1  0
 10 11  1  0
 11 12  1  0
 12 13  1  0
  4 14  1  0
 14 15  2  0
 15 16  1  0
 16 17  2  0
 17 18  1  0
 18 19  2  0
 13  9  1  0
 19 14  1  0
M  END
>  <zinc_id>  (1) 
ZINC000000004303

>  <smiles>  (1) 
NC(=S)[C@H](C(=O)OCC1CCCC1)c1ccccn1

$$$$
