
     RDKit          3D

 19 20  0  0  0  0  0  0  0  0999 V2000
   -2.6453    3.7801    1.5308 C   0  0  0  0  0  0  0  0  0  0  0  0
   -2.3724    2.8537    0.4608 N   0  0  0  0  0  0  0  0  0  0  0  0
   -1.4287    1.8180    0.6276 C   0  0  0  0  0  0  0  0  0  0  0  0
   -0.6347    1.6635    2.0468 S   0  0  0  0  0  0  0  0  0  0  0  0
   -1.1335    0.8954   -0.3880 N   0  0  0  0  0  0  0  0  0  0  0  0
   -0.2160   -0.1536   -0.3007 C   0  0  0  0  0  0  0  0  0  0  0  0
   -0.4679   -1.4396    0.1235 C   0  0  0  0  0  0  0  0  0  0  0  0
   -1.7568   -1.9544    0.5671 C   0  0  0  0  0  0  0  0  0  0  0  0
   -1.8655   -3.1632    0.9363 O   0  0  0  0  0  0  0  0  0  0  0  0
   -2.8597   -1.1302    0.5865 O   0  0  0  0  0  0  0  0  0  0  0  0
   -4.1071   -1.6314    1.0165 C   0  0  0  0  0  0  0  0  0  0  0  0
    0.6991   -2.1142    0.0467 N   0  0  0  0  0  0  0  0  0  0  0  0
    1.6749   -1.3072   -0.4080 C   0  0  0  0  0  0  0  0  0  0  0  0
    3.0298   -1.4500   -0.6796 C   0  0  0  0  0  0  0  0  0  0  0  0
    3.7944   -0.4056   -1.1532 C   0  0  0  0  0  0  0  0  0  0  0  0
    3.2325    0.8333   -1.3765 C   0  0  0  0  0  0  0  0  0  0  0  0
    4.0360    1.9847   -1.8896 C   0  0  0  0  0  0  0  0  0  0  0  0
    1.8873    0.9873   -1.1103 C   0  0  0  0  0  0  0  0  0  0  0  0
    1.1337   -0.0664   -0.6366 C   0  0  0  0  0  0  0  0  0  0  0  0
  1  2  1  0
  2  3  1  0
  3  4  2  0
  3  5  1  0
  5  6  1  0
  6  7  2  0
  7  8  1  0
  8  9  2  0
  8 10  1  0
 10 11  1  0
  7 12  1  0
 12 13  1  0
 13 14  2  0
 14 15  1  0
 15 16  2  0
 16 17  1  0
 16 18  1  0
 18 19  2  0
 19  6  1  0
 19 13  1  0
M  END
>  <zinc_id>  (1) 
ZINC000000549762

>  <smiles>  (1) 
CNC(=S)Nc1c(C(=O)OC)[nH]c2ccc(C)cc12

$$$$
