
     RDKit          3D

 20 21  0  0  0  0  0  0  0  0999 V2000
    4.2325   -1.1676    0.4580 C   0  0  0  0  0  0  0  0  0  0  0  0
    4.0935   -0.0281    1.5886 C   0  0  1  0  0  0  0  0  0  0  0  0
    5.1118    0.9918    0.8833 C   0  0  0  0  0  0  0  0  0  0  0  0
    4.5109    2.3075    0.6735 C   0  0  0  0  0  0  0  0  0  0  0  0
    3.6174    2.2133   -0.5502 C   0  0  0  0  0  0  0  0  0  0  0  0
    3.0124    0.8105   -0.4965 C   0  0  0  0  0  0  0  0  0  0  0  0
    2.6447    0.6944    1.0813 C   0  0  1  0  0  0  0  0  0  0  0  0
    1.8877   -0.6082    1.0024 O   0  0  0  0  0  0  0  0  0  0  0  0
    0.5782   -0.6011    0.6154 C   0  0  0  0  0  0  0  0  0  0  0  0
    0.1297    0.5477    0.3558 O   0  0  0  0  0  0  0  0  0  0  0  0
   -0.2489   -1.7463    0.4984 N   0  0  0  0  0  0  0  0  0  0  0  0
   -1.5962   -1.5567    0.0801 C   0  0  0  0  0  0  0  0  0  0  0  0
   -2.4601   -2.6237   -0.0566 C   0  0  0  0  0  0  0  0  0  0  0  0
   -3.7804   -2.4395   -0.4664 C   0  0  0  0  0  0  0  0  0  0  0  0
   -4.2485   -1.1826   -0.7436 C   0  0  0  0  0  0  0  0  0  0  0  0
   -3.4144   -0.1171   -0.6156 C   0  0  0  0  0  0  0  0  0  0  0  0
   -3.8704    1.1910   -0.8950 N   0  0  0  0  0  4  0  0  0  0  0  0
   -5.0496    1.3428   -1.2595 O   0  0  0  0  0  0  0  0  0  0  0  0
   -3.0458    2.2789   -0.7723 O   0  0  0  0  0  1  0  0  0  0  0  0
   -2.1046   -0.3071   -0.2083 C   0  0  0  0  0  0  0  0  0  0  0  0
  2  1  1  6
  2  3  1  0
  3  4  1  0
  4  5  1  0
  5  6  1  0
  6  7  1  0
  7  8  1  6
  8  9  1  0
  9 10  2  0
  9 11  1  0
 11 12  1  0
 12 13  2  0
 13 14  1  0
 14 15  2  0
 15 16  1  0
 16 17  1  0
 17 18  2  0
 17 19  1  0
 16 20  2  0
  7  2  1  0
 20 12  1  0
M  CHG  2  17   1  19  -1
M  END
>  <zinc_id>  (1) 
ZINC000002171329

>  <smiles>  (1) 
C[C@H]1CCCC[C@H]1OC(=O)Nc1cccc([N+](=O)[O-])c1

$$$$
