
     RDKit          3D

 20 22  0  0  0  0  0  0  0  0999 V2000
   -0.1075    3.8472    1.2386 N   0  0  0  0  0  0  0  0  0  0  0  0
    0.3206    2.8472    0.8525 C   0  0  0  0  0  0  0  0  0  0  0  0
    0.8529    1.5547    0.3565 C   0  0  0  0  0  0  0  0  0  0  0  0
    1.7629    1.5701   -0.5518 C   0  0  0  0  0  0  0  0  0  0  0  0
    2.2605    2.8268   -1.0822 N   0  0  0  0  0  0  0  0  0  0  0  0
    2.3287    0.4202   -1.0851 O   0  0  0  0  0  0  0  0  0  0  0  0
    1.8497   -0.7709   -0.5752 C   0  0  0  0  0  0  0  0  0  0  0  0
    0.9404   -0.8888    0.3350 C   0  0  0  0  0  0  0  0  0  0  0  0
    0.4943   -2.2533    0.8156 C   0  0  0  0  0  0  0  0  0  0  0  0
    1.5935   -3.2106    0.7587 C   0  0  0  0  0  0  0  0  0  0  0  0
    2.8567   -2.8020    0.0971 C   0  0  0  0  0  0  0  0  0  0  0  0
    2.4893   -2.0247   -1.1778 C   0  0  0  0  0  0  0  0  0  0  0  0
    0.2788    0.3127    0.9634 C   0  0  2  0  0  0  0  0  0  0  0  0
   -1.1336    0.2453    0.3521 C   0  0  0  0  0  0  0  0  0  0  0  0
   -1.7750    1.3482   -0.0486 C   0  0  0  0  0  0  0  0  0  0  0  0
   -3.0496    1.2798   -0.5983 C   0  0  0  0  0  0  0  0  0  0  0  0
   -3.6411    0.0610   -0.7239 C   0  0  0  0  0  0  0  0  0  0  0  0
   -3.0116   -1.0921   -0.3231 C   0  0  0  0  0  0  0  0  0  0  0  0
   -3.5826   -2.3103   -0.4398 F   0  0  0  0  0  0  0  0  0  0  0  0
   -1.7275   -0.9604    0.2239 C   0  0  0  0  0  0  0  0  0  0  0  0
  1  2  3  0
  2  3  1  0
  3  4  2  0
  4  5  1  0
  4  6  1  0
  6  7  1  0
  7  8  2  0
  8  9  1  0
  9 10  1  0
 10 11  1  0
 11 12  1  0
  8 13  1  0
 13 14  1  1
 14 15  2  0
 15 16  1  0
 16 17  2  0
 17 18  1  0
 18 19  1  0
 18 20  2  0
 13  3  1  0
 20 14  1  0
 12  7  1  0
M  END
>  <zinc_id>  (1) 
ZINC000002360727

>  <smiles>  (1) 
N#CC1=C(N)OC2=C(CCCC2)[C@H]1c1cccc(F)c1

$$$$
