
     RDKit          3D

 22 24  0  0  0  0  0  0  0  0999 V2000
   -2.9959    2.5138    1.1590 C   0  0  0  0  0  0  0  0  0  0  0  0
   -3.2776    1.1293    0.6915 C   0  0  0  0  0  0  0  0  0  0  0  0
   -4.6185    0.7340    0.6374 C   0  0  0  0  0  0  0  0  0  0  0  0
   -4.9297   -0.5341    0.2125 C   0  0  0  0  0  0  0  0  0  0  0  0
   -6.2623   -0.9657    0.1452 O   0  0  0  0  0  0  0  0  0  0  0  0
   -3.9582   -1.4233   -0.1603 C   0  0  0  0  0  0  0  0  0  0  0  0
   -2.6333   -1.0014   -0.0959 C   0  0  0  0  0  0  0  0  0  0  0  0
   -2.2847    0.2577    0.3235 C   0  0  0  0  0  0  0  0  0  0  0  0
   -0.9456    0.6875    0.3898 N   0  0  0  0  0  0  0  0  0  0  0  0
    0.1833   -0.0647    0.0551 C   0  0  0  0  0  0  0  0  0  0  0  0
    0.0091   -1.2496   -0.3492 O   0  0  0  0  0  0  0  0  0  0  0  0
    1.5568    0.5303    0.1770 C   0  0  0  0  0  0  0  0  0  0  0  0
    2.5981   -0.4349   -0.2269 C   0  0  0  0  0  0  0  0  0  0  0  0
    2.4323   -1.1738   -1.3691 C   0  0  0  0  0  0  0  0  0  0  0  0
    3.3460   -2.0852   -1.8108 C   0  0  0  0  0  0  0  0  0  0  0  0
    4.4916   -2.2780   -1.0805 C   0  0  0  0  0  0  0  0  0  0  0  0
    4.6786   -1.5508    0.0642 C   0  0  0  0  0  0  0  0  0  0  0  0
    3.7571   -0.6255    0.5178 C   0  0  0  0  0  0  0  0  0  0  0  0
    1.8385    0.9058    1.6285 C   0  0  0  0  0  0  0  0  0  0  0  0
    2.7192    2.1173    1.5744 C   0  0  0  0  0  0  0  0  0  0  0  0
    2.6059    2.7045    0.1934 C   0  0  0  0  0  0  0  0  0  0  0  0
    1.6893    1.8068   -0.6002 C   0  0  0  0  0  0  0  0  0  0  0  0
  1  2  1  0
  2  3  2  0
  3  4  1  0
  4  5  1  0
  4  6  2  0
  6  7  1  0
  7  8  2  0
  8  9  1  0
  9 10  1  0
 10 11  2  0
 10 12  1  0
 12 13  1  0
 13 14  2  0
 14 15  1  0
 15 16  2  0
 16 17  1  0
 17 18  2  0
 12 19  1  0
 19 20  1  0
 20 21  1  0
 21 22  1  0
  8  2  1  0
 22 12  1  0
 18 13  1  0
M  END
>  <zinc_id>  (1) 
ZINC000002512657

>  <smiles>  (1) 
Cc1cc(O)ccc1NC(=O)C1(c2ccccc2)CCCC1

$$$$
