
     RDKit          3D

 21 24  0  0  0  0  0  0  0  0999 V2000
    6.2672    0.0403    0.0561 O   0  0  0  0  0  0  0  0  0  0  0  0
    4.8815    0.1728    0.0029 C   0  0  0  0  0  0  0  0  0  0  0  0
    4.0793   -0.8401    0.5009 C   0  0  0  0  0  0  0  0  0  0  0  0
    2.7101   -0.7269    0.4569 C   0  0  0  0  0  0  0  0  0  0  0  0
    2.1131    0.3873   -0.0789 C   0  0  0  0  0  0  0  0  0  0  0  0
    0.6934    0.4867   -0.1158 N   0  0  0  0  0  0  0  0  0  0  0  0
   -0.1345   -0.5668    0.4022 C   0  0  0  0  0  0  0  0  0  0  0  0
    0.4236   -1.6649    0.9307 N   0  0  0  0  0  0  0  0  0  0  0  0
   -0.2435   -2.6840    1.4306 C   0  0  0  0  0  0  0  0  0  0  0  0
   -1.5948   -2.5963    1.3989 N   0  0  0  0  0  0  0  0  0  0  0  0
   -2.2134   -1.5009    0.8722 C   0  0  0  0  0  0  0  0  0  0  0  0
   -3.8455   -1.0530    0.6679 S   0  0  0  0  0  0  0  0  0  0  0  0
   -3.6302    0.4643   -0.0703 C   0  0  0  0  0  0  0  0  0  0  0  0
   -2.2703    0.5838   -0.1392 C   0  0  0  0  0  0  0  0  0  0  0  0
   -1.5316   -0.4384    0.3511 C   0  0  0  0  0  0  0  0  0  0  0  0
   -1.8469    1.8979   -0.7804 C   0  0  0  0  0  0  0  0  0  0  0  0
   -2.5240    1.9725   -2.1337 C   0  0  0  0  0  0  0  0  0  0  0  0
   -4.0164    1.8011   -2.0389 C   0  0  0  0  0  0  0  0  0  0  0  0
   -4.4824    1.5854   -0.6076 C   0  0  0  0  0  0  0  0  0  0  0  0
    2.8998    1.3950   -0.5742 C   0  0  0  0  0  0  0  0  0  0  0  0
    4.2653    1.2841   -0.5314 C   0  0  0  0  0  0  0  0  0  0  0  0
  1  2  1  0
  2  3  2  0
  3  4  1  0
  4  5  2  0
  5  6  1  0
  6  7  1  0
  7  8  2  0
  8  9  1  0
  9 10  2  0
 10 11  1  0
 11 12  1  0
 12 13  1  0
 13 14  2  0
 14 15  1  0
 14 16  1  0
 16 17  1  0
 17 18  1  0
 18 19  1  0
  5 20  1  0
 20 21  2  0
 21  2  1  0
 15  7  1  0
 15 11  2  0
 19 13  1  0
M  END
>  <zinc_id>  (1) 
ZINC000000250221

>  <smiles>  (1) 
Oc1ccc(Nc2ncnc3sc4c(c23)CCCC4)cc1

$$$$
