
     RDKit          3D

 25 29  0  0  0  0  0  0  0  0999 V2000
    1.3859   -2.3840   -2.3555 O   0  0  0  0  0  0  0  0  0  0  0  0
    1.6971   -1.3024   -1.6820 C   0  0  0  0  0  0  0  0  0  0  0  0
    2.9110   -0.6474   -2.3001 C   0  0  0  0  0  0  0  0  0  0  0  0
    3.2228    0.3156   -0.9270 C   0  0  0  0  0  0  0  0  0  0  0  0
    4.2933    1.0278   -1.1973 C   0  0  0  0  0  0  0  0  0  0  0  0
    5.0705    2.0180   -0.3643 C   0  0  0  0  0  0  0  0  0  0  0  0
    6.1809    1.3314    0.4911 C   0  0  0  0  0  0  0  0  0  0  0  0
    4.9042    1.8097    1.1012 C   0  0  0  0  0  0  0  0  0  0  0  0
    4.6995    0.7160   -2.4358 N   0  0  0  0  0  0  0  0  0  0  0  0
    3.8346   -0.1490   -2.7704 N   0  0  0  0  0  0  0  0  0  0  0  0
    0.9440   -0.9116   -0.5915 N   0  0  0  0  0  0  0  0  0  0  0  0
   -0.2254   -1.6672   -0.1226 C   0  0  0  0  0  0  0  0  0  0  0  0
    0.1847   -1.6875    1.3076 C   0  0  0  0  0  0  0  0  0  0  0  0
    0.3364   -0.0451    1.5810 C   0  0  2  0  0  0  0  0  0  0  0  0
   -1.1252    0.3051    0.9987 C   0  0  0  0  0  0  0  0  0  0  0  0
   -1.4210    1.0200   -0.0308 N   0  0  0  0  0  0  0  0  0  0  0  0
   -2.7437    1.0257   -0.1082 O   0  0  0  0  0  0  0  0  0  0  0  0
   -3.2561    0.3189    0.8643 C   0  0  0  0  0  0  0  0  0  0  0  0
   -4.6812    0.0987    1.1014 C   0  0  0  0  0  0  0  0  0  0  0  0
   -5.7813    0.5323    0.4240 C   0  0  0  0  0  0  0  0  0  0  0  0
   -6.9711    0.1654    0.8684 C   0  0  0  0  0  0  0  0  0  0  0  0
   -7.0406   -0.6202    1.9705 C   0  0  0  0  0  0  0  0  0  0  0  0
   -5.3673   -0.8209    2.3593 S   0  0  0  0  0  0  0  0  0  0  0  0
   -2.2260   -0.1741    1.6185 N   0  0  0  0  0  0  0  0  0  0  0  0
    1.1738    0.2457    0.1995 C   0  0  0  0  0  0  0  0  0  0  0  0
  1  2  2  0
  2  3  1  0
  3  4  1  0
  4  5  2  0
  5  6  1  0
  6  7  1  0
  7  8  1  0
  5  9  1  0
  9 10  1  0
  2 11  1  0
 11 12  1  0
 12 13  1  0
 13 14  1  0
 14 15  1  6
 15 16  2  0
 16 17  1  0
 17 18  1  0
 18 19  1  0
 19 20  2  0
 20 21  1  0
 21 22  2  0
 22 23  1  0
 18 24  2  0
 14 25  1  0
 10  3  2  0
 25 11  1  0
  8  6  1  0
 24 15  1  0
 23 19  1  0
M  END
>  <zinc_id>  (1) 
ZINC000000043771

>  <smiles>  (1) 
O=C(c1cc(C2CC2)[nH]n1)N1CC[C@H](c2noc(-c3cccs3)n2)C1

$$$$
