
     RDKit          3D

 21 23  0  0  0  0  0  0  0  0999 V2000
   -6.1856   -0.5109    0.2608 C   0  0  0  0  0  0  0  0  0  0  0  0
   -4.7978    0.0514    0.2077 C   0  0  0  0  0  0  0  0  0  0  0  0
   -4.6799    1.4216    0.2247 C   0  0  0  0  0  0  0  0  0  0  0  0
   -3.4172    2.0294    0.1783 C   0  0  0  0  0  0  0  0  0  0  0  0
   -2.2812    1.2419    0.1146 C   0  0  0  0  0  0  0  0  0  0  0  0
   -2.4308   -0.1191    0.0992 C   0  0  0  0  0  0  0  0  0  0  0  0
   -1.2965   -0.9446    0.0354 N   0  0  0  0  0  0  0  0  0  0  0  0
    0.0266   -0.4404   -0.0080 C   0  0  0  0  0  0  0  0  0  0  0  0
    0.3970    0.8494    0.0022 N   0  0  0  0  0  0  0  0  0  0  0  0
    1.7368    0.9490   -0.0505 C   0  0  0  0  0  0  0  0  0  0  0  0
    2.5995    2.0561   -0.0638 C   0  0  0  0  0  0  0  0  0  0  0  0
    3.9660    1.8811   -0.1232 C   0  0  0  0  0  0  0  0  0  0  0  0
    4.9066    3.0390   -0.1392 C   0  0  0  0  0  0  0  0  0  0  0  0
    4.4553    0.5823   -0.1689 C   0  0  0  0  0  0  0  0  0  0  0  0
    3.5955   -0.5227   -0.1556 C   0  0  0  0  0  0  0  0  0  0  0  0
    2.2213   -0.3336   -0.0958 C   0  0  0  0  0  0  0  0  0  0  0  0
    1.1692   -1.2188   -0.0702 C   0  0  0  0  0  0  0  0  0  0  0  0
    1.2245   -2.6530   -0.1005 N   0  0  0  0  0  4  0  0  0  0  0  0
    1.5997   -3.2569    0.9123 O   0  0  0  0  0  0  0  0  0  0  0  0
    0.8792   -3.3671   -1.2047 O   0  0  0  0  0  1  0  0  0  0  0  0
   -3.6878   -0.7341    0.1451 C   0  0  0  0  0  0  0  0  0  0  0  0
  1  2  1  0
  2  3  2  0
  3  4  1  0
  4  5  2  0
  5  6  1  0
  6  7  1  0
  7  8  1  0
  8  9  1  0
  9 10  1  0
 10 11  2  0
 11 12  1  0
 12 13  1  0
 12 14  2  0
 14 15  1  0
 15 16  2  0
 16 17  1  0
 17 18  1  0
 18 19  2  0
 18 20  1  0
  6 21  2  0
 21  2  1  0
 17  8  2  0
 16 10  1  0
M  CHG  2  18   1  20  -1
M  END
>  <zinc_id>  (1) 
ZINC000004177102

>  <smiles>  (1) 
Cc1cccc(Nc2[nH]c3cc(C)ccc3c2[N+](=O)[O-])c1

$$$$
