
     RDKit          3D

 20 22  0  0  0  0  0  0  0  0999 V2000
   -6.2240    0.8922    1.3687 C   0  0  0  0  0  0  0  0  0  0  0  0
   -6.1656   -0.2452    0.3600 C   0  0  0  0  0  0  0  0  0  0  0  0
   -4.7019   -0.4270    0.0032 C   0  0  0  0  0  0  0  0  0  0  0  0
   -3.9678   -0.7665    1.2869 C   0  0  0  0  0  0  0  0  0  0  0  0
   -2.5687   -0.9542    1.0281 N   0  0  0  0  0  0  0  0  0  0  0  0
   -1.7255    0.0466    0.4834 C   0  0  0  0  0  0  0  0  0  0  0  0
   -2.1429    1.2789    0.1500 N   0  0  0  0  0  0  0  0  0  0  0  0
   -1.3078    2.1993   -0.3648 C   0  0  0  0  0  0  0  0  0  0  0  0
    0.0089    1.9222   -0.5733 N   0  0  0  0  0  0  0  0  0  0  0  0
    0.4558    0.7094   -0.2536 C   0  0  0  0  0  0  0  0  0  0  0  0
   -0.3851   -0.2447    0.2743 C   0  0  0  0  0  0  0  0  0  0  0  0
    0.2895   -1.3817    0.5148 N   0  0  0  0  0  0  0  0  0  0  0  0
    1.5864   -1.1927    0.1481 C   0  0  0  0  0  0  0  0  0  0  0  0
    2.7042   -1.9857    0.1658 C   0  0  0  0  0  0  0  0  0  0  0  0
    3.8950   -1.4682   -0.2908 C   0  0  0  0  0  0  0  0  0  0  0  0
    4.0192   -0.1804   -0.7691 C   0  0  0  0  0  0  0  0  0  0  0  0
    5.2542    0.3035   -1.2243 O   0  0  0  0  0  0  0  0  0  0  0  0
    6.3793   -0.5356   -1.1922 C   0  0  0  0  0  0  0  0  0  0  0  0
    2.8953    0.6187   -0.7875 C   0  0  0  0  0  0  0  0  0  0  0  0
    1.7016    0.0940   -0.3276 C   0  0  0  0  0  0  0  0  0  0  0  0
  1  2  1  0
  2  3  1  0
  3  4  1  0
  4  5  1  0
  5  6  1  0
  6  7  2  0
  7  8  1  0
  8  9  2  0
  9 10  1  0
 10 11  2  0
 11 12  1  0
 12 13  1  0
 13 14  2  0
 14 15  1  0
 15 16  2  0
 16 17  1  0
 17 18  1  0
 16 19  1  0
 19 20  2  0
 11  6  1  0
 20 13  1  0
 20 10  1  0
M  END
>  <zinc_id>  (1) 
ZINC000002273184

>  <smiles>  (1) 
CCCCNc1ncnc2c1[nH]c1ccc(OC)cc12

$$$$
