
     RDKit          3D

 21 23  0  0  0  0  0  0  0  0999 V2000
   -2.2266    0.9615    2.2363 C   0  0  0  0  0  0  0  0  0  0  0  0
   -2.9171   -0.1528    1.2230 C   0  0  1  0  0  0  0  0  0  0  0  0
   -3.8940    0.8868    0.4398 C   0  0  0  0  0  0  0  0  0  0  0  0
   -3.3212    2.2339    0.4545 C   0  0  0  0  0  0  0  0  0  0  0  0
   -2.1404    2.2896   -0.4844 C   0  0  0  0  0  0  0  0  0  0  0  0
   -1.1514    1.2643    0.0466 C   0  0  0  0  0  0  0  0  0  0  0  0
   -1.7153   -0.0389    0.0861 C   0  0  2  0  0  0  0  0  0  0  0  0
   -2.2030   -0.6343   -1.1266 N   0  0  0  0  0  0  0  0  0  0  0  0
   -0.9542   -1.0549   -1.7789 C   0  0  0  0  0  0  0  0  0  0  0  0
   -0.7667   -1.1547   -3.0353 O   0  0  0  0  0  0  0  0  0  0  0  0
   -0.0303   -1.3605   -0.8019 N   0  0  0  0  0  0  0  0  0  0  0  0
    1.3327   -1.7338   -0.6248 C   0  0  0  0  0  0  0  0  0  0  0  0
    2.2178   -0.5142   -0.4149 C   0  0  0  0  0  0  0  0  0  0  0  0
    2.4528    0.4852   -1.2442 C   0  0  0  0  0  0  0  0  0  0  0  0
    3.3327    1.5715   -1.0615 C   0  0  0  0  0  0  0  0  0  0  0  0
    3.9846    1.5144    0.2299 C   0  0  0  0  0  0  0  0  0  0  0  0
    3.7376    0.5353    1.0694 C   0  0  0  0  0  0  0  0  0  0  0  0
    2.8778   -0.5366    0.8357 C   0  0  0  0  0  0  0  0  0  0  0  0
    2.6615   -1.7873    1.9297 Cl  0  0  0  0  0  0  0  0  0  0  0  0
   -0.7589   -1.0926    0.4928 C   0  0  0  0  0  0  0  0  0  0  0  0
   -0.5184   -1.6820    1.5288 O   0  0  0  0  0  0  0  0  0  0  0  0
  2  1  1  1
  2  3  1  0
  3  4  1  0
  4  5  1  0
  5  6  1  0
  7  6  1  6
  7  8  1  0
  8  9  1  0
  9 10  2  0
  9 11  1  0
 11 12  1  0
 12 13  1  0
 13 14  2  0
 14 15  1  0
 15 16  2  0
 16 17  1  0
 17 18  2  0
 18 19  1  0
 11 20  1  0
 20 21  2  0
  7  2  1  0
 18 13  1  0
 20  7  1  0
M  END
>  <zinc_id>  (1) 
ZINC000003396907

>  <smiles>  (1) 
C[C@H]1CCCC[C@]12NC(=O)N(Cc1ccccc1Cl)C2=O

$$$$
