
     RDKit          3D

 18 19  0  0  0  0  0  0  0  0999 V2000
    5.4454   -0.2124   -0.1482 O   0  0  0  0  0  0  0  0  0  0  0  0
    5.1943    1.0969   -0.4025 C   0  0  0  0  0  0  0  0  0  0  0  0
    3.6071    1.2812   -0.7548 C   0  0  1  0  0  0  0  0  0  0  0  0
    3.6517    0.2700   -2.0493 C   0  0  0  0  0  0  0  0  0  0  0  0
    2.2462   -0.2325   -2.2266 C   0  0  0  0  0  0  0  0  0  0  0  0
    1.2701    0.5022   -1.3090 C   0  0  0  0  0  0  0  0  0  0  0  0
    1.6630    0.1591    0.0407 N   0  0  0  0  0  0  0  0  0  0  0  0
    0.6740   -0.1123    0.9921 C   0  0  0  0  0  0  0  0  0  0  0  0
    1.0763   -0.5054    2.5339 S   0  0  0  0  0  0  0  0  0  0  0  0
   -0.6867   -0.0520    0.6395 N   0  0  0  0  0  0  0  0  0  0  0  0
   -1.7766   -0.3149    1.5492 C   0  0  0  0  0  0  0  0  0  0  0  0
   -3.0544   -0.1526    0.8132 C   0  0  0  0  0  0  0  0  0  0  0  0
   -3.6363    1.1013    0.8031 C   0  0  0  0  0  0  0  0  0  0  0  0
   -4.8235    1.2726    0.1250 C   0  0  0  0  0  0  0  0  0  0  0  0
   -5.4321    0.2372   -0.5319 C   0  0  0  0  0  0  0  0  0  0  0  0
   -4.8455   -1.0127   -0.5178 C   0  0  0  0  0  0  0  0  0  0  0  0
   -3.6640   -1.2000    0.1524 C   0  0  0  0  0  0  0  0  0  0  0  0
    3.0910    0.1271    0.2911 C   0  0  0  0  0  0  0  0  0  0  0  0
  1  2  1  0
  3  2  1  1
  3  4  1  0
  4  5  1  0
  5  6  1  0
  6  7  1  0
  7  8  1  0
  8  9  2  0
  8 10  1  0
 10 11  1  0
 11 12  1  0
 12 13  2  0
 13 14  1  0
 14 15  2  0
 15 16  1  0
 16 17  2  0
  7 18  1  0
 18  3  1  0
 17 12  1  0
M  END
>  <zinc_id>  (1) 
ZINC000000110434

>  <smiles>  (1) 
OC[C@H]1CCCN(C(=S)NCc2ccccc2)C1

$$$$
