
     RDKit          3D

 19 20  0  0  0  0  0  0  0  0999 V2000
    5.8743   -0.2789    0.1301 C   0  0  0  0  0  0  0  0  0  0  0  0
    4.3884   -0.2094   -0.0999 C   0  0  0  0  0  0  0  0  0  0  0  0
    3.9057   -0.2055   -1.3968 C   0  0  0  0  0  0  0  0  0  0  0  0
    2.5592   -0.1429   -1.6297 C   0  0  0  0  0  0  0  0  0  0  0  0
    1.7061   -0.0847   -0.5680 C   0  0  0  0  0  0  0  0  0  0  0  0
    2.2042   -0.0893    0.7275 C   0  0  0  0  0  0  0  0  0  0  0  0
    1.3602   -0.0304    1.8635 N   0  0  0  0  0  0  0  0  0  0  0  0
   -0.0332    0.0355    1.6972 C   0  0  0  0  0  0  0  0  0  0  0  0
   -0.9998    0.1029    2.9954 S   0  0  0  0  0  0  0  0  0  0  0  0
   -0.5963    0.0434    0.4084 N   0  0  0  0  0  0  0  0  0  0  0  0
   -1.9766    0.1070    0.1317 C   0  0  0  0  0  0  0  0  0  0  0  0
   -2.6476    1.3086   -0.0321 C   0  0  0  0  0  0  0  0  0  0  0  0
   -1.8295    2.5547    0.0996 C   0  0  0  0  0  0  0  0  0  0  0  0
   -3.9985    1.3511   -0.3024 C   0  0  0  0  0  0  0  0  0  0  0  0
   -4.6864    0.1708   -0.4099 C   0  0  0  0  0  0  0  0  0  0  0  0
   -4.0719   -1.0575   -0.2566 C   0  0  0  0  0  0  0  0  0  0  0  0
   -2.7148   -1.0647    0.0140 C   0  0  0  0  0  0  0  0  0  0  0  0
   -1.9689   -2.3594    0.1951 C   0  0  0  0  0  0  0  0  0  0  0  0
    3.5254   -0.1512    0.9271 N   0  0  0  0  0  0  0  0  0  0  0  0
  1  2  1  0
  2  3  2  0
  3  4  1  0
  4  5  2  0
  5  6  1  0
  6  7  1  0
  7  8  1  0
  8  9  2  0
  8 10  1  0
 10 11  1  0
 11 12  2  0
 12 13  1  0
 12 14  1  0
 14 15  2  0
 15 16  1  0
 16 17  2  0
 17 18  1  0
  6 19  2  0
 19  2  1  0
 17 11  1  0
M  END
>  <zinc_id>  (1) 
ZINC000000093895

>  <smiles>  (1) 
Cc1cccc(NC(=S)Nc2c(C)cccc2C)n1

$$$$
