
     RDKit          3D

 20 22  0  0  0  0  0  0  0  0999 V2000
   -3.7606    3.6253    0.5099 O   0  0  0  0  0  0  0  0  0  0  0  0
   -2.9138    2.5294    0.4420 C   0  0  0  0  0  0  0  0  0  0  0  0
   -2.9062    1.7117   -0.6571 C   0  0  0  0  0  0  0  0  0  0  0  0
   -2.0662    0.5955   -0.7613 C   0  0  0  0  0  0  0  0  0  0  0  0
   -1.2112    0.2970    0.2712 C   0  0  0  0  0  0  0  0  0  0  0  0
   -0.2885   -0.8892    0.2159 C   0  0  0  0  0  0  0  0  0  0  0  0
    1.1164   -0.3591    0.0742 C   0  0  0  0  0  0  0  0  0  0  0  0
    1.6562    0.4631    1.0398 C   0  0  0  0  0  0  0  0  0  0  0  0
    2.9374    0.9574    0.9451 C   0  0  0  0  0  0  0  0  0  0  0  0
    3.6896    0.6135   -0.1495 C   0  0  0  0  0  0  0  0  0  0  0  0
    4.9983    1.0671   -0.3277 O   0  0  0  0  0  0  0  0  0  0  0  0
    3.1664   -0.2037   -1.1191 C   0  0  0  0  0  0  0  0  0  0  0  0
    1.9006   -0.6828   -1.0100 C   0  0  0  0  0  0  0  0  0  0  0  0
   -0.5997   -1.6624   -0.9900 C   0  0  0  0  0  0  0  0  0  0  0  0
   -0.9454   -3.0746   -0.8809 C   0  0  0  0  0  0  0  0  0  0  0  0
   -1.1110   -3.6446    0.4722 C   0  0  0  0  0  0  0  0  0  0  0  0
   -0.0454   -3.0977    1.3965 C   0  0  0  0  0  0  0  0  0  0  0  0
   -0.3427   -1.6050    1.5158 C   0  0  0  0  0  0  0  0  0  0  0  0
   -1.2244    1.1284    1.3780 C   0  0  0  0  0  0  0  0  0  0  0  0
   -2.0500    2.2306    1.4875 C   0  0  0  0  0  0  0  0  0  0  0  0
  1  2  1  0
  2  3  2  0
  3  4  1  0
  4  5  2  0
  5  6  1  0
  6  7  1  0
  7  8  2  0
  8  9  1  0
  9 10  2  0
 10 11  1  0
 10 12  1  0
 12 13  2  0
  6 14  1  0
 14 15  1  0
 15 16  1  0
 16 17  1  0
 17 18  1  0
  5 19  1  0
 19 20  2  0
 20  2  1  0
 18  6  1  0
 13  7  1  0
M  END
>  <zinc_id>  (1) 
ZINC000000225610

>  <smiles>  (1) 
Oc1ccc(C2(c3ccc(O)cc3)CCCCC2)cc1

$$$$
