MODEL 1
REMARK VINA RESULT:      -7.5      0.000      0.000
REMARK  Name = 
REMARK  8 active torsions:
REMARK  status: ('A' for Active; 'I' for Inactive)
REMARK    1  A    between atoms: C_2  and  C_3
REMARK    2  A    between atoms: C_2  and  C_11
REMARK    3  A    between atoms: C_3  and  O_4
REMARK    4  A    between atoms: O_4  and  C_5
REMARK    5  A    between atoms: C_11  and  N_12
REMARK    6  A    between atoms: C_15  and  C_16
REMARK    7  A    between atoms: C_19  and  O_20
REMARK    8  A    between atoms: O_20  and  C_21
REMARK                            x       y       z     vdW  Elec       q    Type
REMARK                         _______ _______ _______ _____ _____    ______ ____
ROOT
ATOM      1  N   UNL     1      12.402  -1.517  28.828  0.00  0.00    +0.000 NA
ATOM      2  C   UNL     1      13.478  -0.637  29.274  0.00  0.00    +0.000 C 
ATOM      3  C   UNL     1      13.663   0.509  28.298  0.00  0.00    +0.000 C 
ATOM      4  C   UNL     1      13.918  -0.026  26.942  0.00  0.00    +0.000 C 
ATOM      5  C   UNL     1      13.122  -1.196  26.514  0.00  0.00    +0.000 C 
ATOM      6  C   UNL     1      12.769  -2.179  27.589  0.00  0.00    +0.000 C 
ENDROOT
BRANCH   4   7
ATOM      7  C   UNL     1      15.353  -0.058  26.562  0.00  0.00    +0.000 A 
ATOM      8  C   UNL     1      15.898  -1.087  25.825  0.00  0.00    +0.000 A 
ATOM      9  C   UNL     1      17.234  -1.105  25.482  0.00  0.00    +0.000 A 
ATOM     10  C   UNL     1      18.102  -0.101  25.855  0.00  0.00    +0.000 A 
ATOM     11  C   UNL     1      17.556   0.928  26.591  0.00  0.00    +0.000 A 
ATOM     12  C   UNL     1      16.224   0.955  26.938  0.00  0.00    +0.000 A 
BRANCH  10  13
ATOM     13  O   UNL     1      19.445  -0.142  25.499  0.00  0.00    +0.000 OA
BRANCH  13  14
ATOM     14  C   UNL     1      19.786  -0.179  24.134  0.00  0.00    +0.000 A 
ATOM     15  C   UNL     1      20.166  -1.379  23.554  0.00  0.00    +0.000 A 
ATOM     16  C   UNL     1      20.509  -1.466  22.222  0.00  0.00    +0.000 A 
ATOM     17  C   UNL     1      20.478  -0.329  21.415  0.00  0.00    +0.000 A 
ATOM     18  C   UNL     1      20.097   0.855  22.008  0.00  0.00    +0.000 A 
ATOM     19  C   UNL     1      19.756   0.932  23.348  0.00  0.00    +0.000 A 
ENDBRANCH  13  14
ENDBRANCH  10  13
ENDBRANCH   4   7
BRANCH   1  20
ATOM     20  C   UNL     1      11.222  -0.664  28.580  0.00  0.00    +0.000 C 
BRANCH  20  22
ATOM     21  O   UNL     1       9.645  -1.430  30.106  0.00  0.00    +0.000 OA
ATOM     22  C   UNL     1      10.786  -0.430  30.182  0.00  0.00    +0.000 C 
BRANCH  22  23
ATOM     23  C   UNL     1       9.866   0.886  29.850  0.00  0.00    +0.000 C 
BRANCH  23  24
ATOM     24  O   UNL     1      10.030   1.180  28.558  0.00  0.00    +0.000 OA
BRANCH  24  25
ATOM     25  C   UNL     1      10.468   2.116  27.722  0.00  0.00    +0.000 A 
ATOM     26  C   UNL     1      11.322   3.098  28.290  0.00  0.00    +0.000 A 
ATOM     27  C   UNL     1      11.848   4.120  27.545  0.00  0.00    +0.000 A 
ATOM     28  C   UNL     1      11.549   4.209  26.209  0.00  0.00    +0.000 A 
ATOM     29  C   UNL     1      10.723   3.281  25.605  0.00  0.00    +0.000 A 
ATOM     30  C   UNL     1      10.215   2.274  26.381  0.00  0.00    +0.000 A 
ENDBRANCH  24  25
ENDBRANCH  23  24
ENDBRANCH  22  23
ENDBRANCH  20  22
ENDBRANCH   1  20
TORSDOF 8
ENDMDL
MODEL 2
REMARK VINA RESULT:      -7.5      2.091      3.029
REMARK  Name = 
REMARK  8 active torsions:
REMARK  status: ('A' for Active; 'I' for Inactive)
REMARK    1  A    between atoms: C_2  and  C_3
REMARK    2  A    between atoms: C_2  and  C_11
REMARK    3  A    between atoms: C_3  and  O_4
REMARK    4  A    between atoms: O_4  and  C_5
REMARK    5  A    between atoms: C_11  and  N_12
REMARK    6  A    between atoms: C_15  and  C_16
REMARK    7  A    between atoms: C_19  and  O_20
REMARK    8  A    between atoms: O_20  and  C_21
REMARK                            x       y       z     vdW  Elec       q    Type
REMARK                         _______ _______ _______ _____ _____    ______ ____
ROOT
ATOM      1  N   UNL     1      12.456  -1.344  28.582  0.00  0.00    +0.000 NA
ATOM      2  C   UNL     1      13.654  -0.724  29.142  0.00  0.00    +0.000 C 
ATOM      3  C   UNL     1      14.001   0.539  28.376  0.00  0.00    +0.000 C 
ATOM      4  C   UNL     1      14.166   0.223  26.940  0.00  0.00    +0.000 C 
ATOM      5  C   UNL     1      13.203  -0.722  26.339  0.00  0.00    +0.000 C 
ATOM      6  C   UNL     1      12.713  -1.820  27.235  0.00  0.00    +0.000 C 
ENDROOT
BRANCH   4   7
ATOM      7  C   UNL     1      15.578   0.052  26.515  0.00  0.00    +0.000 A 
ATOM      8  C   UNL     1      15.989  -1.006  25.733  0.00  0.00    +0.000 A 
ATOM      9  C   UNL     1      17.305  -1.156  25.348  0.00  0.00    +0.000 A 
ATOM     10  C   UNL     1      18.285  -0.261  25.720  0.00  0.00    +0.000 A 
ATOM     11  C   UNL     1      17.874   0.798  26.500  0.00  0.00    +0.000 A 
ATOM     12  C   UNL     1      16.563   0.955  26.889  0.00  0.00    +0.000 A 
BRANCH  10  13
ATOM     13  O   UNL     1      19.605  -0.433  25.320  0.00  0.00    +0.000 OA
BRANCH  13  14
ATOM     14  C   UNL     1      19.909  -0.410  23.947  0.00  0.00    +0.000 A 
ATOM     15  C   UNL     1      20.183  -1.595  23.284  0.00  0.00    +0.000 A 
ATOM     16  C   UNL     1      20.485  -1.624  21.940  0.00  0.00    +0.000 A 
ATOM     17  C   UNL     1      20.521  -0.440  21.205  0.00  0.00    +0.000 A 
ATOM     18  C   UNL     1      20.246   0.730  21.879  0.00  0.00    +0.000 A 
ATOM     19  C   UNL     1      19.945   0.747  23.231  0.00  0.00    +0.000 A 
ENDBRANCH  13  14
ENDBRANCH  10  13
ENDBRANCH   4   7
BRANCH   1  20
ATOM     20  C   UNL     1      11.415  -0.298  28.527  0.00  0.00    +0.000 C 
BRANCH  20  22
ATOM     21  O   UNL     1       9.303  -0.776  29.371  0.00  0.00    +0.000 OA
ATOM     22  C   UNL     1      10.682  -0.645  29.994  0.00  0.00    +0.000 C 
BRANCH  22  23
ATOM     23  C   UNL     1      10.521   0.933  30.409  0.00  0.00    +0.000 C 
BRANCH  23  24
ATOM     24  O   UNL     1      11.137   1.109  31.580  0.00  0.00    +0.000 OA
BRANCH  24  25
ATOM     25  C   UNL     1      12.259   1.548  32.142  0.00  0.00    +0.000 A 
ATOM     26  C   UNL     1      12.136   2.723  32.929  0.00  0.00    +0.000 A 
ATOM     27  C   UNL     1      13.209   3.285  33.567  0.00  0.00    +0.000 A 
ATOM     28  C   UNL     1      14.447   2.704  33.451  0.00  0.00    +0.000 A 
ATOM     29  C   UNL     1      14.624   1.559  32.698  0.00  0.00    +0.000 A 
ATOM     30  C   UNL     1      13.529   1.027  32.074  0.00  0.00    +0.000 A 
ENDBRANCH  24  25
ENDBRANCH  23  24
ENDBRANCH  22  23
ENDBRANCH  20  22
ENDBRANCH   1  20
TORSDOF 8
ENDMDL
MODEL 3
REMARK VINA RESULT:      -7.4     23.007     27.522
REMARK  Name = 
REMARK  8 active torsions:
REMARK  status: ('A' for Active; 'I' for Inactive)
REMARK    1  A    between atoms: C_2  and  C_3
REMARK    2  A    between atoms: C_2  and  C_11
REMARK    3  A    between atoms: C_3  and  O_4
REMARK    4  A    between atoms: O_4  and  C_5
REMARK    5  A    between atoms: C_11  and  N_12
REMARK    6  A    between atoms: C_15  and  C_16
REMARK    7  A    between atoms: C_19  and  O_20
REMARK    8  A    between atoms: O_20  and  C_21
REMARK                            x       y       z     vdW  Elec       q    Type
REMARK                         _______ _______ _______ _____ _____    ______ ____
ROOT
ATOM      1  N   UNL     1      38.233   5.175  14.899  0.00  0.00    +0.000 NA
ATOM      2  C   UNL     1      39.063   4.328  15.752  0.00  0.00    +0.000 C 
ATOM      3  C   UNL     1      38.645   4.470  17.203  0.00  0.00    +0.000 C 
ATOM      4  C   UNL     1      38.715   5.893  17.606  0.00  0.00    +0.000 C 
ATOM      5  C   UNL     1      38.237   6.897  16.634  0.00  0.00    +0.000 C 
ATOM      6  C   UNL     1      38.473   6.577  15.188  0.00  0.00    +0.000 C 
ENDROOT
BRANCH   4   7
ATOM      7  C   UNL     1      39.954   6.255  18.340  0.00  0.00    +0.000 A 
ATOM      8  C   UNL     1      39.971   6.451  19.704  0.00  0.00    +0.000 A 
ATOM      9  C   UNL     1      41.129   6.791  20.374  0.00  0.00    +0.000 A 
ATOM     10  C   UNL     1      42.333   6.954  19.723  0.00  0.00    +0.000 A 
ATOM     11  C   UNL     1      42.315   6.756  18.360  0.00  0.00    +0.000 A 
ATOM     12  C   UNL     1      41.165   6.417  17.683  0.00  0.00    +0.000 A 
BRANCH  10  13
ATOM     13  O   UNL     1      43.486   7.297  20.419  0.00  0.00    +0.000 OA
BRANCH  13  14
ATOM     14  C   UNL     1      44.416   6.289  20.734  0.00  0.00    +0.000 A 
ATOM     15  C   UNL     1      44.133   5.385  21.745  0.00  0.00    +0.000 A 
ATOM     16  C   UNL     1      45.010   4.381  22.090  0.00  0.00    +0.000 A 
ATOM     17  C   UNL     1      46.224   4.250  21.415  0.00  0.00    +0.000 A 
ATOM     18  C   UNL     1      46.490   5.157  20.412  0.00  0.00    +0.000 A 
ATOM     19  C   UNL     1      45.600   6.163  20.075  0.00  0.00    +0.000 A 
ENDBRANCH  13  14
ENDBRANCH  10  13
ENDBRANCH   4   7
BRANCH   1  20
ATOM     20  C   UNL     1      36.826   4.857  15.215  0.00  0.00    +0.000 C 
BRANCH  20  22
ATOM     21  O   UNL     1      35.644   4.884  13.215  0.00  0.00    +0.000 OA
ATOM     22  C   UNL     1      36.529   3.859  13.902  0.00  0.00    +0.000 C 
BRANCH  22  23
ATOM     23  C   UNL     1      35.305   3.064  14.647  0.00  0.00    +0.000 C 
BRANCH  23  24
ATOM     24  O   UNL     1      35.843   2.079  15.370  0.00  0.00    +0.000 OA
BRANCH  24  25
ATOM     25  C   UNL     1      35.692   0.804  15.718  0.00  0.00    +0.000 A 
ATOM     26  C   UNL     1      34.856   0.567  16.841  0.00  0.00    +0.000 A 
ATOM     27  C   UNL     1      34.610  -0.696  17.310  0.00  0.00    +0.000 A 
ATOM     28  C   UNL     1      35.183  -1.774  16.683  0.00  0.00    +0.000 A 
ATOM     29  C   UNL     1      36.004  -1.601  15.585  0.00  0.00    +0.000 A 
ATOM     30  C   UNL     1      36.227  -0.325  15.146  0.00  0.00    +0.000 A 
ENDBRANCH  24  25
ENDBRANCH  23  24
ENDBRANCH  22  23
ENDBRANCH  20  22
ENDBRANCH   1  20
TORSDOF 8
ENDMDL
MODEL 4
REMARK VINA RESULT:      -7.1      2.680      3.577
REMARK  Name = 
REMARK  8 active torsions:
REMARK  status: ('A' for Active; 'I' for Inactive)
REMARK    1  A    between atoms: C_2  and  C_3
REMARK    2  A    between atoms: C_2  and  C_11
REMARK    3  A    between atoms: C_3  and  O_4
REMARK    4  A    between atoms: O_4  and  C_5
REMARK    5  A    between atoms: C_11  and  N_12
REMARK    6  A    between atoms: C_15  and  C_16
REMARK    7  A    between atoms: C_19  and  O_20
REMARK    8  A    between atoms: O_20  and  C_21
REMARK                            x       y       z     vdW  Elec       q    Type
REMARK                         _______ _______ _______ _____ _____    ______ ____
ROOT
ATOM      1  N   UNL     1      11.917   0.595  26.956  0.00  0.00    +0.000 NA
ATOM      2  C   UNL     1      12.576  -0.071  25.835  0.00  0.00    +0.000 C 
ATOM      3  C   UNL     1      13.534  -1.133  26.341  0.00  0.00    +0.000 C 
ATOM      4  C   UNL     1      14.511  -0.523  27.270  0.00  0.00    +0.000 C 
ATOM      5  C   UNL     1      14.001   0.480  28.228  0.00  0.00    +0.000 C 
ATOM      6  C   UNL     1      12.881   1.348  27.737  0.00  0.00    +0.000 C 
ENDROOT
BRANCH   4   7
ATOM      7  C   UNL     1      15.820  -0.203  26.648  0.00  0.00    +0.000 A 
ATOM      8  C   UNL     1      16.585  -1.156  26.010  0.00  0.00    +0.000 A 
ATOM      9  C   UNL     1      17.802  -0.846  25.438  0.00  0.00    +0.000 A 
ATOM     10  C   UNL     1      18.326   0.428  25.472  0.00  0.00    +0.000 A 
ATOM     11  C   UNL     1      17.561   1.380  26.109  0.00  0.00    +0.000 A 
ATOM     12  C   UNL     1      16.345   1.081  26.682  0.00  0.00    +0.000 A 
BRANCH  10  13
ATOM     13  O   UNL     1      19.555   0.716  24.890  0.00  0.00    +0.000 OA
BRANCH  13  14
ATOM     14  C   UNL     1      19.865   0.152  23.639  0.00  0.00    +0.000 A 
ATOM     15  C   UNL     1      19.893   0.955  22.511  0.00  0.00    +0.000 A 
ATOM     16  C   UNL     1      20.192   0.449  21.265  0.00  0.00    +0.000 A 
ATOM     17  C   UNL     1      20.480  -0.907  21.111  0.00  0.00    +0.000 A 
ATOM     18  C   UNL     1      20.448  -1.692  22.243  0.00  0.00    +0.000 A 
ATOM     19  C   UNL     1      20.145  -1.172  23.491  0.00  0.00    +0.000 A 
ENDBRANCH  13  14
ENDBRANCH  10  13
ENDBRANCH   4   7
BRANCH   1  20
ATOM     20  C   UNL     1      11.338  -0.465  27.806  0.00  0.00    +0.000 C 
BRANCH  20  22
ATOM     21  O   UNL     1       9.428  -0.375  29.127  0.00  0.00    +0.000 OA
ATOM     22  C   UNL     1       9.737   0.019  27.693  0.00  0.00    +0.000 C 
BRANCH  22  23
ATOM     23  C   UNL     1       9.245  -1.396  27.029  0.00  0.00    +0.000 C 
BRANCH  23  24
ATOM     24  O   UNL     1       9.543  -1.359  25.728  0.00  0.00    +0.000 OA
BRANCH  24  25
ATOM     25  C   UNL     1       9.016  -1.420  24.509  0.00  0.00    +0.000 A 
ATOM     26  C   UNL     1       7.669  -0.985  24.397  0.00  0.00    +0.000 A 
ATOM     27  C   UNL     1       7.000  -0.993  23.202  0.00  0.00    +0.000 A 
ATOM     28  C   UNL     1       7.641  -1.431  22.070  0.00  0.00    +0.000 A 
ATOM     29  C   UNL     1       8.952  -1.865  22.121  0.00  0.00    +0.000 A 
ATOM     30  C   UNL     1       9.587  -1.844  23.333  0.00  0.00    +0.000 A 
ENDBRANCH  24  25
ENDBRANCH  23  24
ENDBRANCH  22  23
ENDBRANCH  20  22
ENDBRANCH   1  20
TORSDOF 8
ENDMDL
MODEL 5
REMARK VINA RESULT:      -7.1     23.328     27.546
REMARK  Name = 
REMARK  8 active torsions:
REMARK  status: ('A' for Active; 'I' for Inactive)
REMARK    1  A    between atoms: C_2  and  C_3
REMARK    2  A    between atoms: C_2  and  C_11
REMARK    3  A    between atoms: C_3  and  O_4
REMARK    4  A    between atoms: O_4  and  C_5
REMARK    5  A    between atoms: C_11  and  N_12
REMARK    6  A    between atoms: C_15  and  C_16
REMARK    7  A    between atoms: C_19  and  O_20
REMARK    8  A    between atoms: O_20  and  C_21
REMARK                            x       y       z     vdW  Elec       q    Type
REMARK                         _______ _______ _______ _____ _____    ______ ____
ROOT
ATOM      1  N   UNL     1      38.645   3.682  13.072  0.00  0.00    +0.000 NA
ATOM      2  C   UNL     1      39.575   3.191  14.086  0.00  0.00    +0.000 C 
ATOM      3  C   UNL     1      38.868   3.035  15.419  0.00  0.00    +0.000 C 
ATOM      4  C   UNL     1      38.255   4.323  15.814  0.00  0.00    +0.000 C 
ATOM      5  C   UNL     1      37.595   5.112  14.753  0.00  0.00    +0.000 C 
ATOM      6  C   UNL     1      38.214   5.031  13.390  0.00  0.00    +0.000 C 
ENDROOT
BRANCH   4   7
ATOM      7  C   UNL     1      39.062   5.107  16.783  0.00  0.00    +0.000 A 
ATOM      8  C   UNL     1      38.823   5.071  18.139  0.00  0.00    +0.000 A 
ATOM      9  C   UNL     1      39.578   5.807  19.029  0.00  0.00    +0.000 A 
ATOM     10  C   UNL     1      40.613   6.619  18.618  0.00  0.00    +0.000 A 
ATOM     11  C   UNL     1      40.852   6.654  17.261  0.00  0.00    +0.000 A 
ATOM     12  C   UNL     1      40.104   5.923  16.366  0.00  0.00    +0.000 A 
BRANCH  10  13
ATOM     13  O   UNL     1      41.360   7.352  19.532  0.00  0.00    +0.000 OA
BRANCH  13  14
ATOM     14  C   UNL     1      42.611   6.857  19.942  0.00  0.00    +0.000 A 
ATOM     15  C   UNL     1      42.708   6.111  21.106  0.00  0.00    +0.000 A 
ATOM     16  C   UNL     1      43.910   5.604  21.547  0.00  0.00    +0.000 A 
ATOM     17  C   UNL     1      45.077   5.833  20.817  0.00  0.00    +0.000 A 
ATOM     18  C   UNL     1      44.963   6.576  19.662  0.00  0.00    +0.000 A 
ATOM     19  C   UNL     1      43.749   7.082  19.229  0.00  0.00    +0.000 A 
ENDBRANCH  13  14
ENDBRANCH  10  13
ENDBRANCH   4   7
BRANCH   1  20
ATOM     20  C   UNL     1      37.470   2.788  13.096  0.00  0.00    +0.000 C 
BRANCH  20  22
ATOM     21  O   UNL     1      37.503   1.920  10.941  0.00  0.00    +0.000 OA
ATOM     22  C   UNL     1      38.153   1.512  12.251  0.00  0.00    +0.000 C 
BRANCH  22  23
ATOM     23  C   UNL     1      36.979   0.454  12.689  0.00  0.00    +0.000 C 
BRANCH  23  24
ATOM     24  O   UNL     1      36.938   0.424  14.023  0.00  0.00    +0.000 OA
BRANCH  24  25
ATOM     25  C   UNL     1      36.252  -0.046  15.061  0.00  0.00    +0.000 A 
ATOM     26  C   UNL     1      35.680   0.932  15.916  0.00  0.00    +0.000 A 
ATOM     27  C   UNL     1      34.946   0.590  17.021  0.00  0.00    +0.000 A 
ATOM     28  C   UNL     1      34.750  -0.735  17.321  0.00  0.00    +0.000 A 
ATOM     29  C   UNL     1      35.284  -1.728  16.522  0.00  0.00    +0.000 A 
ATOM     30  C   UNL     1      36.012  -1.349  15.428  0.00  0.00    +0.000 A 
ENDBRANCH  24  25
ENDBRANCH  23  24
ENDBRANCH  22  23
ENDBRANCH  20  22
ENDBRANCH   1  20
TORSDOF 8
ENDMDL
MODEL 6
REMARK VINA RESULT:      -7.0      1.696      2.441
REMARK  Name = 
REMARK  8 active torsions:
REMARK  status: ('A' for Active; 'I' for Inactive)
REMARK    1  A    between atoms: C_2  and  C_3
REMARK    2  A    between atoms: C_2  and  C_11
REMARK    3  A    between atoms: C_3  and  O_4
REMARK    4  A    between atoms: O_4  and  C_5
REMARK    5  A    between atoms: C_11  and  N_12
REMARK    6  A    between atoms: C_15  and  C_16
REMARK    7  A    between atoms: C_19  and  O_20
REMARK    8  A    between atoms: O_20  and  C_21
REMARK                            x       y       z     vdW  Elec       q    Type
REMARK                         _______ _______ _______ _____ _____    ______ ____
ROOT
ATOM      1  N   UNL     1      12.706  -1.019  28.599  0.00  0.00    +0.000 NA
ATOM      2  C   UNL     1      13.862  -0.226  29.011  0.00  0.00    +0.000 C 
ATOM      3  C   UNL     1      14.151   0.858  27.990  0.00  0.00    +0.000 C 
ATOM      4  C   UNL     1      14.350   0.247  26.657  0.00  0.00    +0.000 C 
ATOM      5  C   UNL     1      13.447  -0.858  26.275  0.00  0.00    +0.000 C 
ATOM      6  C   UNL     1      13.006  -1.761  27.388  0.00  0.00    +0.000 C 
ENDROOT
BRANCH   4   7
ATOM      7  C   UNL     1      15.775   0.066  26.280  0.00  0.00    +0.000 A 
ATOM      8  C   UNL     1      16.665   1.117  26.235  0.00  0.00    +0.000 A 
ATOM      9  C   UNL     1      17.985   0.936  25.881  0.00  0.00    +0.000 A 
ATOM     10  C   UNL     1      18.494  -0.302  25.550  0.00  0.00    +0.000 A 
ATOM     11  C   UNL     1      17.604  -1.353  25.596  0.00  0.00    +0.000 A 
ATOM     12  C   UNL     1      16.284  -1.182  25.949  0.00  0.00    +0.000 A 
BRANCH  10  13
ATOM     13  O   UNL     1      19.828  -0.460  25.195  0.00  0.00    +0.000 OA
BRANCH  13  14
ATOM     14  C   UNL     1      20.157  -0.609  23.835  0.00  0.00    +0.000 A 
ATOM     15  C   UNL     1      20.006  -1.842  23.222  0.00  0.00    +0.000 A 
ATOM     16  C   UNL     1      20.314  -2.037  21.894  0.00  0.00    +0.000 A 
ATOM     17  C   UNL     1      20.792  -0.977  21.123  0.00  0.00    +0.000 A 
ATOM     18  C   UNL     1      20.935   0.243  21.748  0.00  0.00    +0.000 A 
ATOM     19  C   UNL     1      20.624   0.427  23.084  0.00  0.00    +0.000 A 
ENDBRANCH  13  14
ENDBRANCH  10  13
ENDBRANCH   4   7
BRANCH   1  20
ATOM     20  C   UNL     1      11.611  -0.068  28.317  0.00  0.00    +0.000 C 
BRANCH  20  22
ATOM     21  O   UNL     1       9.289  -0.081  28.408  0.00  0.00    +0.000 OA
ATOM     22  C   UNL     1      10.373  -0.952  29.019  0.00  0.00    +0.000 C 
BRANCH  22  23
ATOM     23  C   UNL     1      10.452  -0.136  30.439  0.00  0.00    +0.000 C 
BRANCH  23  24
ATOM     24  O   UNL     1      10.432   1.169  30.158  0.00  0.00    +0.000 OA
BRANCH  24  25
ATOM     25  C   UNL     1      10.162   2.367  30.666  0.00  0.00    +0.000 A 
ATOM     26  C   UNL     1       9.657   3.326  29.749  0.00  0.00    +0.000 A 
ATOM     27  C   UNL     1       9.334   4.600  30.135  0.00  0.00    +0.000 A 
ATOM     28  C   UNL     1       9.498   4.973  31.445  0.00  0.00    +0.000 A 
ATOM     29  C   UNL     1       9.985   4.080  32.380  0.00  0.00    +0.000 A 
ATOM     30  C   UNL     1      10.298   2.817  31.958  0.00  0.00    +0.000 A 
ENDBRANCH  24  25
ENDBRANCH  23  24
ENDBRANCH  22  23
ENDBRANCH  20  22
ENDBRANCH   1  20
TORSDOF 8
ENDMDL
MODEL 7
REMARK VINA RESULT:      -7.0     23.307     27.834
REMARK  Name = 
REMARK  8 active torsions:
REMARK  status: ('A' for Active; 'I' for Inactive)
REMARK    1  A    between atoms: C_2  and  C_3
REMARK    2  A    between atoms: C_2  and  C_11
REMARK    3  A    between atoms: C_3  and  O_4
REMARK    4  A    between atoms: O_4  and  C_5
REMARK    5  A    between atoms: C_11  and  N_12
REMARK    6  A    between atoms: C_15  and  C_16
REMARK    7  A    between atoms: C_19  and  O_20
REMARK    8  A    between atoms: O_20  and  C_21
REMARK                            x       y       z     vdW  Elec       q    Type
REMARK                         _______ _______ _______ _____ _____    ______ ____
ROOT
ATOM      1  N   UNL     1      38.064   6.538  14.915  0.00  0.00    +0.000 NA
ATOM      2  C   UNL     1      39.337   5.828  15.002  0.00  0.00    +0.000 C 
ATOM      3  C   UNL     1      39.356   4.922  16.218  0.00  0.00    +0.000 C 
ATOM      4  C   UNL     1      39.086   5.717  17.437  0.00  0.00    +0.000 C 
ATOM      5  C   UNL     1      38.042   6.759  17.350  0.00  0.00    +0.000 C 
ATOM      6  C   UNL     1      37.919   7.457  16.029  0.00  0.00    +0.000 C 
ENDROOT
BRANCH   4   7
ATOM      7  C   UNL     1      40.304   6.098  18.195  0.00  0.00    +0.000 A 
ATOM      8  C   UNL     1      41.508   6.355  17.574  0.00  0.00    +0.000 A 
ATOM      9  C   UNL     1      42.634   6.704  18.290  0.00  0.00    +0.000 A 
ATOM     10  C   UNL     1      42.625   6.817  19.664  0.00  0.00    +0.000 A 
ATOM     11  C   UNL     1      41.421   6.561  20.284  0.00  0.00    +0.000 A 
ATOM     12  C   UNL     1      40.292   6.211  19.578  0.00  0.00    +0.000 A 
BRANCH  10  13
ATOM     13  O   UNL     1      43.772   7.169  20.365  0.00  0.00    +0.000 OA
BRANCH  13  14
ATOM     14  C   UNL     1      44.662   6.156  20.768  0.00  0.00    +0.000 A 
ATOM     15  C   UNL     1      45.856   5.981  20.088  0.00  0.00    +0.000 A 
ATOM     16  C   UNL     1      46.759   5.004  20.445  0.00  0.00    +0.000 A 
ATOM     17  C   UNL     1      46.487   4.157  21.519  0.00  0.00    +0.000 A 
ATOM     18  C   UNL     1      45.295   4.346  22.185  0.00  0.00    +0.000 A 
ATOM     19  C   UNL     1      44.393   5.330  21.816  0.00  0.00    +0.000 A 
ENDBRANCH  13  14
ENDBRANCH  10  13
ENDBRANCH   4   7
BRANCH   1  20
ATOM     20  C   UNL     1      36.997   5.519  14.997  0.00  0.00    +0.000 C 
BRANCH  20  22
ATOM     21  O   UNL     1      35.244   5.372  13.478  0.00  0.00    +0.000 OA
ATOM     22  C   UNL     1      36.757   5.327  13.349  0.00  0.00    +0.000 C 
BRANCH  22  23
ATOM     23  C   UNL     1      36.874   3.693  13.415  0.00  0.00    +0.000 C 
BRANCH  23  24
ATOM     24  O   UNL     1      36.099   3.271  14.416  0.00  0.00    +0.000 OA
BRANCH  24  25
ATOM     25  C   UNL     1      35.788   2.207  15.151  0.00  0.00    +0.000 A 
ATOM     26  C   UNL     1      36.331   0.972  14.709  0.00  0.00    +0.000 A 
ATOM     27  C   UNL     1      36.095  -0.203  15.371  0.00  0.00    +0.000 A 
ATOM     28  C   UNL     1      35.311  -0.201  16.497  0.00  0.00    +0.000 A 
ATOM     29  C   UNL     1      34.757   0.973  16.972  0.00  0.00    +0.000 A 
ATOM     30  C   UNL     1      35.014   2.127  16.284  0.00  0.00    +0.000 A 
ENDBRANCH  24  25
ENDBRANCH  23  24
ENDBRANCH  22  23
ENDBRANCH  20  22
ENDBRANCH   1  20
TORSDOF 8
ENDMDL
MODEL 8
REMARK VINA RESULT:      -7.0     23.708     27.222
REMARK  Name = 
REMARK  8 active torsions:
REMARK  status: ('A' for Active; 'I' for Inactive)
REMARK    1  A    between atoms: C_2  and  C_3
REMARK    2  A    between atoms: C_2  and  C_11
REMARK    3  A    between atoms: C_3  and  O_4
REMARK    4  A    between atoms: O_4  and  C_5
REMARK    5  A    between atoms: C_11  and  N_12
REMARK    6  A    between atoms: C_15  and  C_16
REMARK    7  A    between atoms: C_19  and  O_20
REMARK    8  A    between atoms: O_20  and  C_21
REMARK                            x       y       z     vdW  Elec       q    Type
REMARK                         _______ _______ _______ _____ _____    ______ ____
ROOT
ATOM      1  N   UNL     1      39.273   3.480  12.648  0.00  0.00    +0.000 NA
ATOM      2  C   UNL     1      39.849   2.873  13.845  0.00  0.00    +0.000 C 
ATOM      3  C   UNL     1      38.815   2.808  14.953  0.00  0.00    +0.000 C 
ATOM      4  C   UNL     1      38.288   4.164  15.224  0.00  0.00    +0.000 C 
ATOM      5  C   UNL     1      38.018   5.032  14.059  0.00  0.00    +0.000 C 
ATOM      6  C   UNL     1      38.946   4.873  12.892  0.00  0.00    +0.000 C 
ENDROOT
BRANCH   4   7
ATOM      7  C   UNL     1      38.915   4.837  16.389  0.00  0.00    +0.000 A 
ATOM      8  C   UNL     1      38.475   4.639  17.680  0.00  0.00    +0.000 A 
ATOM      9  C   UNL     1      39.064   5.273  18.754  0.00  0.00    +0.000 A 
ATOM     10  C   UNL     1      40.125   6.141  18.602  0.00  0.00    +0.000 A 
ATOM     11  C   UNL     1      40.565   6.338  17.312  0.00  0.00    +0.000 A 
ATOM     12  C   UNL     1      39.983   5.710  16.234  0.00  0.00    +0.000 A 
BRANCH  10  13
ATOM     13  O   UNL     1      40.703   6.770  19.699  0.00  0.00    +0.000 OA
BRANCH  13  14
ATOM     14  C   UNL     1      40.173   7.998  20.136  0.00  0.00    +0.000 A 
ATOM     15  C   UNL     1      40.997   9.107  20.228  0.00  0.00    +0.000 A 
ATOM     16  C   UNL     1      40.525  10.331  20.650  0.00  0.00    +0.000 A 
ATOM     17  C   UNL     1      39.183  10.481  21.000  0.00  0.00    +0.000 A 
ATOM     18  C   UNL     1      38.378   9.367  20.902  0.00  0.00    +0.000 A 
ATOM     19  C   UNL     1      38.863   8.142  20.478  0.00  0.00    +0.000 A 
ENDBRANCH  13  14
ENDBRANCH  10  13
ENDBRANCH   4   7
BRANCH   1  20
ATOM     20  C   UNL     1      38.028   2.744  12.348  0.00  0.00    +0.000 C 
BRANCH  20  22
ATOM     21  O   UNL     1      38.896   1.251  10.792  0.00  0.00    +0.000 OA
ATOM     22  C   UNL     1      38.694   1.206  12.296  0.00  0.00    +0.000 C 
BRANCH  22  23
ATOM     23  C   UNL     1      37.235   0.461  12.240  0.00  0.00    +0.000 C 
BRANCH  23  24
ATOM     24  O   UNL     1      36.387   1.174  12.984  0.00  0.00    +0.000 OA
BRANCH  24  25
ATOM     25  C   UNL     1      35.907   1.317  14.216  0.00  0.00    +0.000 A 
ATOM     26  C   UNL     1      36.156   0.238  15.104  0.00  0.00    +0.000 A 
ATOM     27  C   UNL     1      35.721   0.252  16.403  0.00  0.00    +0.000 A 
ATOM     28  C   UNL     1      35.025   1.336  16.873  0.00  0.00    +0.000 A 
ATOM     29  C   UNL     1      34.756   2.415  16.052  0.00  0.00    +0.000 A 
ATOM     30  C   UNL     1      35.204   2.365  14.761  0.00  0.00    +0.000 A 
ENDBRANCH  24  25
ENDBRANCH  23  24
ENDBRANCH  22  23
ENDBRANCH  20  22
ENDBRANCH   1  20
TORSDOF 8
ENDMDL
MODEL 9
REMARK VINA RESULT:      -6.9     23.615     30.576
REMARK  Name = 
REMARK  8 active torsions:
REMARK  status: ('A' for Active; 'I' for Inactive)
REMARK    1  A    between atoms: C_2  and  C_3
REMARK    2  A    between atoms: C_2  and  C_11
REMARK    3  A    between atoms: C_3  and  O_4
REMARK    4  A    between atoms: O_4  and  C_5
REMARK    5  A    between atoms: C_11  and  N_12
REMARK    6  A    between atoms: C_15  and  C_16
REMARK    7  A    between atoms: C_19  and  O_20
REMARK    8  A    between atoms: O_20  and  C_21
REMARK                            x       y       z     vdW  Elec       q    Type
REMARK                         _______ _______ _______ _____ _____    ______ ____
ROOT
ATOM      1  N   UNL     1      43.279  -1.344  12.206  0.00  0.00    +0.000 NA
ATOM      2  C   UNL     1      42.863  -0.858  13.518  0.00  0.00    +0.000 C 
ATOM      3  C   UNL     1      42.397  -2.012  14.386  0.00  0.00    +0.000 C 
ATOM      4  C   UNL     1      41.309  -2.745  13.701  0.00  0.00    +0.000 C 
ATOM      5  C   UNL     1      41.453  -2.969  12.248  0.00  0.00    +0.000 C 
ATOM      6  C   UNL     1      42.143  -1.881  11.479  0.00  0.00    +0.000 C 
ENDROOT
BRANCH   4   7
ATOM      7  C   UNL     1      39.947  -2.372  14.157  0.00  0.00    +0.000 A 
ATOM      8  C   UNL     1      39.727  -1.649  15.309  0.00  0.00    +0.000 A 
ATOM      9  C   UNL     1      38.456  -1.312  15.724  0.00  0.00    +0.000 A 
ATOM     10  C   UNL     1      37.331  -1.677  15.015  0.00  0.00    +0.000 A 
ATOM     11  C   UNL     1      37.551  -2.399  13.862  0.00  0.00    +0.000 A 
ATOM     12  C   UNL     1      38.816  -2.740  13.440  0.00  0.00    +0.000 A 
BRANCH  10  13
ATOM     13  O   UNL     1      36.059  -1.327  15.452  0.00  0.00    +0.000 OA
BRANCH  13  14
ATOM     14  C   UNL     1      35.724   0.036  15.550  0.00  0.00    +0.000 A 
ATOM     15  C   UNL     1      35.991   0.887  14.489  0.00  0.00    +0.000 A 
ATOM     16  C   UNL     1      35.681   2.229  14.537  0.00  0.00    +0.000 A 
ATOM     17  C   UNL     1      35.080   2.768  15.674  0.00  0.00    +0.000 A 
ATOM     18  C   UNL     1      34.821   1.908  16.719  0.00  0.00    +0.000 A 
ATOM     19  C   UNL     1      35.138   0.561  16.661  0.00  0.00    +0.000 A 
ENDBRANCH  13  14
ENDBRANCH  10  13
ENDBRANCH   4   7
BRANCH   1  20
ATOM     20  C   UNL     1      44.253  -2.430  12.438  0.00  0.00    +0.000 C 
BRANCH  20  22
ATOM     21  O   UNL     1      46.171  -1.984  11.203  0.00  0.00    +0.000 OA
ATOM     22  C   UNL     1      45.626  -1.473  12.525  0.00  0.00    +0.000 C 
BRANCH  22  23
ATOM     23  C   UNL     1      46.443  -2.544  13.459  0.00  0.00    +0.000 C 
BRANCH  23  24
ATOM     24  O   UNL     1      45.888  -2.529  14.673  0.00  0.00    +0.000 OA
BRANCH  24  25
ATOM     25  C   UNL     1      45.895  -1.896  15.843  0.00  0.00    +0.000 A 
ATOM     26  C   UNL     1      46.256  -2.682  16.968  0.00  0.00    +0.000 A 
ATOM     27  C   UNL     1      46.306  -2.160  18.233  0.00  0.00    +0.000 A 
ATOM     28  C   UNL     1      46.000  -0.837  18.433  0.00  0.00    +0.000 A 
ATOM     29  C   UNL     1      45.642  -0.025  17.373  0.00  0.00    +0.000 A 
ATOM     30  C   UNL     1      45.603  -0.582  16.124  0.00  0.00    +0.000 A 
ENDBRANCH  24  25
ENDBRANCH  23  24
ENDBRANCH  22  23
ENDBRANCH  20  22
ENDBRANCH   1  20
TORSDOF 8
ENDMDL
MODEL 10
REMARK VINA RESULT:      -6.8     24.961     27.941
REMARK  Name = 
REMARK  8 active torsions:
REMARK  status: ('A' for Active; 'I' for Inactive)
REMARK    1  A    between atoms: C_2  and  C_3
REMARK    2  A    between atoms: C_2  and  C_11
REMARK    3  A    between atoms: C_3  and  O_4
REMARK    4  A    between atoms: O_4  and  C_5
REMARK    5  A    between atoms: C_11  and  N_12
REMARK    6  A    between atoms: C_15  and  C_16
REMARK    7  A    between atoms: C_19  and  O_20
REMARK    8  A    between atoms: O_20  and  C_21
REMARK                            x       y       z     vdW  Elec       q    Type
REMARK                         _______ _______ _______ _____ _____    ______ ____
ROOT
ATOM      1  N   UNL     1      39.973   0.015  12.722  0.00  0.00    +0.000 NA
ATOM      2  C   UNL     1      40.162   0.202  14.159  0.00  0.00    +0.000 C 
ATOM      3  C   UNL     1      38.867   0.651  14.807  0.00  0.00    +0.000 C 
ATOM      4  C   UNL     1      38.381   1.886  14.152  0.00  0.00    +0.000 C 
ATOM      5  C   UNL     1      38.496   1.962  12.681  0.00  0.00    +0.000 C 
ATOM      6  C   UNL     1      39.690   1.284  12.078  0.00  0.00    +0.000 C 
ENDROOT
BRANCH   4   7
ATOM      7  C   UNL     1      38.717   3.133  14.883  0.00  0.00    +0.000 A 
ATOM      8  C   UNL     1      39.673   4.017  14.432  0.00  0.00    +0.000 A 
ATOM      9  C   UNL     1      39.978   5.171  15.123  0.00  0.00    +0.000 A 
ATOM     10  C   UNL     1      39.350   5.509  16.303  0.00  0.00    +0.000 A 
ATOM     11  C   UNL     1      38.394   4.625  16.753  0.00  0.00    +0.000 A 
ATOM     12  C   UNL     1      38.083   3.471  16.070  0.00  0.00    +0.000 A 
BRANCH  10  13
ATOM     13  O   UNL     1      39.675   6.677  16.983  0.00  0.00    +0.000 OA
BRANCH  13  14
ATOM     14  C   UNL     1      40.618   6.617  18.025  0.00  0.00    +0.000 A 
ATOM     15  C   UNL     1      40.192   6.399  19.325  0.00  0.00    +0.000 A 
ATOM     16  C   UNL     1      41.076   6.332  20.379  0.00  0.00    +0.000 A 
ATOM     17  C   UNL     1      42.445   6.484  20.156  0.00  0.00    +0.000 A 
ATOM     18  C   UNL     1      42.851   6.700  18.857  0.00  0.00    +0.000 A 
ATOM     19  C   UNL     1      41.953   6.766  17.805  0.00  0.00    +0.000 A 
ENDBRANCH  13  14
ENDBRANCH  10  13
ENDBRANCH   4   7
BRANCH   1  20
ATOM     20  C   UNL     1      38.807  -0.876  12.554  0.00  0.00    +0.000 C 
BRANCH  20  22
ATOM     21  O   UNL     1      39.670  -2.756  11.496  0.00  0.00    +0.000 OA
ATOM     22  C   UNL     1      39.575  -2.313  12.946  0.00  0.00    +0.000 C 
BRANCH  22  23
ATOM     23  C   UNL     1      38.171  -3.100  13.261  0.00  0.00    +0.000 C 
BRANCH  23  24
ATOM     24  O   UNL     1      37.625  -2.537  14.341  0.00  0.00    +0.000 OA
BRANCH  24  25
ATOM     25  C   UNL     1      37.654  -2.525  15.670  0.00  0.00    +0.000 A 
ATOM     26  C   UNL     1      38.725  -3.239  16.269  0.00  0.00    +0.000 A 
ATOM     27  C   UNL     1      38.880  -3.310  17.629  0.00  0.00    +0.000 A 
ATOM     28  C   UNL     1      37.980  -2.675  18.447  0.00  0.00    +0.000 A 
ATOM     29  C   UNL     1      36.919  -1.966  17.917  0.00  0.00    +0.000 A 
ATOM     30  C   UNL     1      36.796  -1.918  16.555  0.00  0.00    +0.000 A 
ENDBRANCH  24  25
ENDBRANCH  23  24
ENDBRANCH  22  23
ENDBRANCH  20  22
ENDBRANCH   1  20
TORSDOF 8
ENDMDL
