MODEL 1
REMARK VINA RESULT:      -7.3      0.000      0.000
REMARK  Name = 
REMARK  3 active torsions:
REMARK  status: ('A' for Active; 'I' for Inactive)
REMARK    1  A    between atoms: C_2  and  C_4
REMARK    2  A    between atoms: C_5  and  N_6
REMARK    3  A    between atoms: C_7  and  C_8
REMARK                            x       y       z     vdW  Elec       q    Type
REMARK                         _______ _______ _______ _____ _____    ______ ____
ROOT
ATOM      1  C   UNL     1      15.162  12.013  33.127  0.00  0.00    +0.000 A 
ATOM      2  C   UNL     1      15.733  11.618  34.316  0.00  0.00    +0.000 A 
ATOM      3  S   UNL     1      14.974  12.689  35.445  0.00  0.00    +0.000 S 
ATOM      4  C   UNL     1      13.989  13.569  34.379  0.00  0.00    +0.000 A 
ATOM      5  C   UNL     1      14.272  13.009  33.167  0.00  0.00    +0.000 A 
ATOM      6  C   UNL     1      13.489  13.651  32.032  0.00  0.00    +0.000 C 
ATOM      7  C   UNL     1      13.700  15.138  32.198  0.00  0.00    +0.000 C 
ATOM      8  C   UNL     1      12.916  15.594  33.400  0.00  0.00    +0.000 C 
ATOM      9  C   UNL     1      13.020  14.683  34.571  0.00  0.00    +0.000 C 
ENDROOT
BRANCH   1  11
ATOM     10  N   UNL     1      16.319  11.976  30.874  0.00  0.00    +0.000 NA
ATOM     11  C   UNL     1      15.566  11.311  31.878  0.00  0.00    +0.000 C 
ATOM     12  O   UNL     1      15.272  10.118  31.644  0.00  0.00    +0.000 OA
ENDBRANCH   1  11
BRANCH   2  13
ATOM     13  N   UNL     1      16.691  10.603  34.552  0.00  0.00    +0.000 NA
ATOM     14  C   UNL     1      17.342  10.109  35.380  0.00  0.00    +0.000 C 
BRANCH  14  15
ATOM     15  C   UNL     1      17.813   9.962  36.691  0.00  0.00    +0.000 A 
ATOM     16  C   UNL     1      19.041   9.510  37.115  0.00  0.00    +0.000 A 
ATOM     17  C   UNL     1      19.411   9.401  38.436  0.00  0.00    +0.000 A 
ATOM     18  C   UNL     1      18.527   9.754  39.412  0.00  0.00    +0.000 A 
ATOM     19  C   UNL     1      17.286  10.213  39.061  0.00  0.00    +0.000 A 
ATOM     20  C   UNL     1      16.938  10.314  37.736  0.00  0.00    +0.000 A 
ENDBRANCH  14  15
ENDBRANCH   2  13
TORSDOF 3
ENDMDL
MODEL 2
REMARK VINA RESULT:      -6.7     28.342     30.646
REMARK  Name = 
REMARK  3 active torsions:
REMARK  status: ('A' for Active; 'I' for Inactive)
REMARK    1  A    between atoms: C_2  and  C_4
REMARK    2  A    between atoms: C_5  and  N_6
REMARK    3  A    between atoms: C_7  and  C_8
REMARK                            x       y       z     vdW  Elec       q    Type
REMARK                         _______ _______ _______ _____ _____    ______ ____
ROOT
ATOM      1  C   UNL     1      32.560  21.206   9.883  0.00  0.00    +0.000 A 
ATOM      2  C   UNL     1      31.464  21.053  10.703  0.00  0.00    +0.000 A 
ATOM      3  S   UNL     1      32.188  20.430  12.147  0.00  0.00    +0.000 S 
ATOM      4  C   UNL     1      33.812  20.392  11.653  0.00  0.00    +0.000 A 
ATOM      5  C   UNL     1      33.754  20.866  10.375  0.00  0.00    +0.000 A 
ATOM      6  C   UNL     1      35.123  20.923   9.714  0.00  0.00    +0.000 C 
ATOM      7  C   UNL     1      35.730  19.557   9.942  0.00  0.00    +0.000 C 
ATOM      8  C   UNL     1      36.103  19.445  11.397  0.00  0.00    +0.000 C 
ATOM      9  C   UNL     1      35.073  19.977  12.328  0.00  0.00    +0.000 C 
ENDROOT
BRANCH   1  11
ATOM     10  N   UNL     1      32.012  20.871   7.432  0.00  0.00    +0.000 NA
ATOM     11  C   UNL     1      32.349  21.735   8.508  0.00  0.00    +0.000 C 
ATOM     12  O   UNL     1      32.454  22.949   8.225  0.00  0.00    +0.000 OA
ENDBRANCH   1  11
BRANCH   2  13
ATOM     13  N   UNL     1      30.103  21.333  10.434  0.00  0.00    +0.000 NA
ATOM     14  C   UNL     1      29.159  21.866  10.857  0.00  0.00    +0.000 C 
BRANCH  14  15
ATOM     15  C   UNL     1      28.457  22.617  11.808  0.00  0.00    +0.000 A 
ATOM     16  C   UNL     1      27.118  22.931  11.835  0.00  0.00    +0.000 A 
ATOM     17  C   UNL     1      26.518  23.680  12.821  0.00  0.00    +0.000 A 
ATOM     18  C   UNL     1      27.272  24.160  13.851  0.00  0.00    +0.000 A 
ATOM     19  C   UNL     1      28.613  23.886  13.888  0.00  0.00    +0.000 A 
ATOM     20  C   UNL     1      29.190  23.134  12.893  0.00  0.00    +0.000 A 
ENDBRANCH  14  15
ENDBRANCH   2  13
TORSDOF 3
ENDMDL
MODEL 3
REMARK VINA RESULT:      -6.6     20.245     22.370
REMARK  Name = 
REMARK  3 active torsions:
REMARK  status: ('A' for Active; 'I' for Inactive)
REMARK    1  A    between atoms: C_2  and  C_4
REMARK    2  A    between atoms: C_5  and  N_6
REMARK    3  A    between atoms: C_7  and  C_8
REMARK                            x       y       z     vdW  Elec       q    Type
REMARK                         _______ _______ _______ _____ _____    ______ ____
ROOT
ATOM      1  C   UNL     1      28.118  23.444  24.063  0.00  0.00    +0.000 A 
ATOM      2  C   UNL     1      29.226  23.547  23.252  0.00  0.00    +0.000 A 
ATOM      3  S   UNL     1      30.478  22.949  24.287  0.00  0.00    +0.000 S 
ATOM      4  C   UNL     1      29.558  22.603  25.671  0.00  0.00    +0.000 A 
ATOM      5  C   UNL     1      28.296  22.961  25.296  0.00  0.00    +0.000 A 
ATOM      6  C   UNL     1      27.275  22.735  26.401  0.00  0.00    +0.000 C 
ATOM      7  C   UNL     1      27.868  23.391  27.627  0.00  0.00    +0.000 C 
ATOM      8  C   UNL     1      29.019  22.544  28.103  0.00  0.00    +0.000 C 
ATOM      9  C   UNL     1      29.900  22.052  27.011  0.00  0.00    +0.000 C 
ENDROOT
BRANCH   1  11
ATOM     10  N   UNL     1      25.992  22.982  22.766  0.00  0.00    +0.000 NA
ATOM     11  C   UNL     1      26.800  23.873  23.521  0.00  0.00    +0.000 C 
ATOM     12  O   UNL     1      26.336  25.021  23.696  0.00  0.00    +0.000 OA
ENDBRANCH   1  11
BRANCH   2  13
ATOM     13  N   UNL     1      29.317  24.020  21.921  0.00  0.00    +0.000 NA
ATOM     14  C   UNL     1      29.368  24.987  21.276  0.00  0.00    +0.000 C 
BRANCH  14  15
ATOM     15  C   UNL     1      29.393  26.374  21.085  0.00  0.00    +0.000 A 
ATOM     16  C   UNL     1      29.075  27.369  21.980  0.00  0.00    +0.000 A 
ATOM     17  C   UNL     1      29.133  28.714  21.695  0.00  0.00    +0.000 A 
ATOM     18  C   UNL     1      29.526  29.120  20.454  0.00  0.00    +0.000 A 
ATOM     19  C   UNL     1      29.857  28.183  19.513  0.00  0.00    +0.000 A 
ATOM     20  C   UNL     1      29.793  26.845  19.821  0.00  0.00    +0.000 A 
ENDBRANCH  14  15
ENDBRANCH   2  13
TORSDOF 3
ENDMDL
MODEL 4
REMARK VINA RESULT:      -6.3     20.045     21.229
REMARK  Name = 
REMARK  3 active torsions:
REMARK  status: ('A' for Active; 'I' for Inactive)
REMARK    1  A    between atoms: C_2  and  C_4
REMARK    2  A    between atoms: C_5  and  N_6
REMARK    3  A    between atoms: C_7  and  C_8
REMARK                            x       y       z     vdW  Elec       q    Type
REMARK                         _______ _______ _______ _____ _____    ______ ____
ROOT
ATOM      1  C   UNL     1      28.646  23.171  25.354  0.00  0.00    +0.000 A 
ATOM      2  C   UNL     1      29.941  22.787  25.622  0.00  0.00    +0.000 A 
ATOM      3  S   UNL     1      29.833  22.313  27.284  0.00  0.00    +0.000 S 
ATOM      4  C   UNL     1      28.185  22.617  27.556  0.00  0.00    +0.000 A 
ATOM      5  C   UNL     1      27.756  23.082  26.347  0.00  0.00    +0.000 A 
ATOM      6  C   UNL     1      26.275  23.428  26.349  0.00  0.00    +0.000 C 
ATOM      7  C   UNL     1      26.077  24.308  27.562  0.00  0.00    +0.000 C 
ATOM      8  C   UNL     1      26.186  23.445  28.792  0.00  0.00    +0.000 C 
ATOM      9  C   UNL     1      27.303  22.466  28.746  0.00  0.00    +0.000 C 
ENDROOT
BRANCH   1  11
ATOM     10  N   UNL     1      28.265  25.049  23.697  0.00  0.00    +0.000 NA
ATOM     11  C   UNL     1      28.319  23.659  23.987  0.00  0.00    +0.000 C 
ATOM     12  O   UNL     1      28.078  22.889  23.032  0.00  0.00    +0.000 OA
ENDBRANCH   1  11
BRANCH   2  13
ATOM     13  N   UNL     1      31.066  22.783  24.763  0.00  0.00    +0.000 NA
ATOM     14  C   UNL     1      32.052  23.350  24.514  0.00  0.00    +0.000 C 
BRANCH  14  15
ATOM     15  C   UNL     1      32.999  24.367  24.688  0.00  0.00    +0.000 A 
ATOM     16  C   UNL     1      34.358  24.316  24.491  0.00  0.00    +0.000 A 
ATOM     17  C   UNL     1      35.210  25.378  24.691  0.00  0.00    +0.000 A 
ATOM     18  C   UNL     1      34.705  26.572  25.114  0.00  0.00    +0.000 A 
ATOM     19  C   UNL     1      33.359  26.694  25.331  0.00  0.00    +0.000 A 
ATOM     20  C   UNL     1      32.528  25.620  25.123  0.00  0.00    +0.000 A 
ENDBRANCH  14  15
ENDBRANCH   2  13
TORSDOF 3
ENDMDL
MODEL 5
REMARK VINA RESULT:      -6.1     21.212     23.007
REMARK  Name = 
REMARK  3 active torsions:
REMARK  status: ('A' for Active; 'I' for Inactive)
REMARK    1  A    between atoms: C_2  and  C_4
REMARK    2  A    between atoms: C_5  and  N_6
REMARK    3  A    between atoms: C_7  and  C_8
REMARK                            x       y       z     vdW  Elec       q    Type
REMARK                         _______ _______ _______ _____ _____    ______ ____
ROOT
ATOM      1  C   UNL     1      18.985  -8.203  27.167  0.00  0.00    +0.000 A 
ATOM      2  C   UNL     1      20.180  -8.236  26.484  0.00  0.00    +0.000 A 
ATOM      3  S   UNL     1      20.858  -9.733  27.032  0.00  0.00    +0.000 S 
ATOM      4  C   UNL     1      19.621 -10.235  28.079  0.00  0.00    +0.000 A 
ATOM      5  C   UNL     1      18.707  -9.226  27.979  0.00  0.00    +0.000 A 
ATOM      6  C   UNL     1      17.483  -9.463  28.851  0.00  0.00    +0.000 C 
ATOM      7  C   UNL     1      18.030  -9.796  30.220  0.00  0.00    +0.000 C 
ATOM      8  C   UNL     1      18.630 -11.177  30.164  0.00  0.00    +0.000 C 
ATOM      9  C   UNL     1      19.441 -11.434  28.944  0.00  0.00    +0.000 C 
ENDROOT
BRANCH   1  11
ATOM     10  N   UNL     1      16.924  -7.142  26.146  0.00  0.00    +0.000 NA
ATOM     11  C   UNL     1      18.082  -7.038  26.961  0.00  0.00    +0.000 C 
ATOM     12  O   UNL     1      18.288  -5.920  27.484  0.00  0.00    +0.000 OA
ENDBRANCH   1  11
BRANCH   2  13
ATOM     13  N   UNL     1      20.714  -7.294  25.573  0.00  0.00    +0.000 NA
ATOM     14  C   UNL     1      21.658  -7.036  24.943  0.00  0.00    +0.000 C 
BRANCH  14  15
ATOM     15  C   UNL     1      22.960  -7.258  24.477  0.00  0.00    +0.000 A 
ATOM     16  C   UNL     1      23.906  -6.333  24.103  0.00  0.00    +0.000 A 
ATOM     17  C   UNL     1      25.167  -6.653  23.655  0.00  0.00    +0.000 A 
ATOM     18  C   UNL     1      25.534  -7.964  23.564  0.00  0.00    +0.000 A 
ATOM     19  C   UNL     1      24.641  -8.938  23.919  0.00  0.00    +0.000 A 
ATOM     20  C   UNL     1      23.387  -8.594  24.365  0.00  0.00    +0.000 A 
ENDBRANCH  14  15
ENDBRANCH   2  13
TORSDOF 3
ENDMDL
MODEL 6
REMARK VINA RESULT:      -6.0     17.363     19.508
REMARK  Name = 
REMARK  3 active torsions:
REMARK  status: ('A' for Active; 'I' for Inactive)
REMARK    1  A    between atoms: C_2  and  C_4
REMARK    2  A    between atoms: C_5  and  N_6
REMARK    3  A    between atoms: C_7  and  C_8
REMARK                            x       y       z     vdW  Elec       q    Type
REMARK                         _______ _______ _______ _____ _____    ______ ____
ROOT
ATOM      1  C   UNL     1      27.690  23.233  27.430  0.00  0.00    +0.000 A 
ATOM      2  C   UNL     1      26.633  23.965  26.938  0.00  0.00    +0.000 A 
ATOM      3  S   UNL     1      27.019  24.053  25.252  0.00  0.00    +0.000 S 
ATOM      4  C   UNL     1      28.472  23.177  25.250  0.00  0.00    +0.000 A 
ATOM      5  C   UNL     1      28.625  22.834  26.562  0.00  0.00    +0.000 A 
ATOM      6  C   UNL     1      29.889  22.025  26.809  0.00  0.00    +0.000 C 
ATOM      7  C   UNL     1      30.996  22.808  26.142  0.00  0.00    +0.000 C 
ATOM      8  C   UNL     1      30.838  22.672  24.651  0.00  0.00    +0.000 C 
ATOM      9  C   UNL     1      29.434  22.800  24.178  0.00  0.00    +0.000 C 
ENDROOT
BRANCH   1  11
ATOM     10  N   UNL     1      28.399  23.793  29.796  0.00  0.00    +0.000 NA
ATOM     11  C   UNL     1      27.728  22.933  28.887  0.00  0.00    +0.000 C 
ATOM     12  O   UNL     1      27.181  21.925  29.386  0.00  0.00    +0.000 OA
ENDBRANCH   1  11
BRANCH   2  13
ATOM     13  N   UNL     1      25.522  24.505  27.630  0.00  0.00    +0.000 NA
ATOM     14  C   UNL     1      24.554  25.135  27.492  0.00  0.00    +0.000 C 
BRANCH  14  15
ATOM     15  C   UNL     1      23.626  25.871  26.745  0.00  0.00    +0.000 A 
ATOM     16  C   UNL     1      23.794  26.472  25.520  0.00  0.00    +0.000 A 
ATOM     17  C   UNL     1      22.813  27.178  24.863  0.00  0.00    +0.000 A 
ATOM     18  C   UNL     1      21.584  27.312  25.438  0.00  0.00    +0.000 A 
ATOM     19  C   UNL     1      21.346  26.740  26.658  0.00  0.00    +0.000 A 
ATOM     20  C   UNL     1      22.341  26.038  27.295  0.00  0.00    +0.000 A 
ENDBRANCH  14  15
ENDBRANCH   2  13
TORSDOF 3
ENDMDL
MODEL 7
REMARK VINA RESULT:      -6.0     17.119     18.602
REMARK  Name = 
REMARK  3 active torsions:
REMARK  status: ('A' for Active; 'I' for Inactive)
REMARK    1  A    between atoms: C_2  and  C_4
REMARK    2  A    between atoms: C_5  and  N_6
REMARK    3  A    between atoms: C_7  and  C_8
REMARK                            x       y       z     vdW  Elec       q    Type
REMARK                         _______ _______ _______ _____ _____    ______ ____
ROOT
ATOM      1  C   UNL     1      25.890  24.378  29.086  0.00  0.00    +0.000 A 
ATOM      2  C   UNL     1      25.836  24.157  27.728  0.00  0.00    +0.000 A 
ATOM      3  S   UNL     1      24.993  25.565  27.176  0.00  0.00    +0.000 S 
ATOM      4  C   UNL     1      24.754  26.351  28.660  0.00  0.00    +0.000 A 
ATOM      5  C   UNL     1      25.336  25.500  29.554  0.00  0.00    +0.000 A 
ATOM      6  C   UNL     1      25.242  26.008  30.986  0.00  0.00    +0.000 C 
ATOM      7  C   UNL     1      23.787  26.365  31.184  0.00  0.00    +0.000 C 
ATOM      8  C   UNL     1      23.499  27.619  30.401  0.00  0.00    +0.000 C 
ATOM      9  C   UNL     1      24.100  27.634  29.042  0.00  0.00    +0.000 C 
ENDROOT
BRANCH   1  11
ATOM     10  N   UNL     1      27.974  23.286  30.025  0.00  0.00    +0.000 NA
ATOM     11  C   UNL     1      26.558  23.362  29.944  0.00  0.00    +0.000 C 
ATOM     12  O   UNL     1      25.923  22.531  30.631  0.00  0.00    +0.000 OA
ENDBRANCH   1  11
BRANCH   2  13
ATOM     13  N   UNL     1      26.337  23.065  26.981  0.00  0.00    +0.000 NA
ATOM     14  C   UNL     1      27.256  22.695  26.371  0.00  0.00    +0.000 C 
BRANCH  14  15
ATOM     15  C   UNL     1      28.538  22.825  25.821  0.00  0.00    +0.000 A 
ATOM     16  C   UNL     1      28.890  23.068  24.514  0.00  0.00    +0.000 A 
ATOM     17  C   UNL     1      30.187  23.180  24.070  0.00  0.00    +0.000 A 
ATOM     18  C   UNL     1      31.214  23.045  24.957  0.00  0.00    +0.000 A 
ATOM     19  C   UNL     1      30.937  22.802  26.275  0.00  0.00    +0.000 A 
ATOM     20  C   UNL     1      29.633  22.695  26.696  0.00  0.00    +0.000 A 
ENDBRANCH  14  15
ENDBRANCH   2  13
TORSDOF 3
ENDMDL
MODEL 8
REMARK VINA RESULT:      -6.0     17.654     19.402
REMARK  Name = 
REMARK  3 active torsions:
REMARK  status: ('A' for Active; 'I' for Inactive)
REMARK    1  A    between atoms: C_2  and  C_4
REMARK    2  A    between atoms: C_5  and  N_6
REMARK    3  A    between atoms: C_7  and  C_8
REMARK                            x       y       z     vdW  Elec       q    Type
REMARK                         _______ _______ _______ _____ _____    ______ ____
ROOT
ATOM      1  C   UNL     1      28.060  22.696  29.736  0.00  0.00    +0.000 A 
ATOM      2  C   UNL     1      28.151  22.845  28.370  0.00  0.00    +0.000 A 
ATOM      3  S   UNL     1      29.866  22.869  28.131  0.00  0.00    +0.000 S 
ATOM      4  C   UNL     1      30.376  22.693  29.740  0.00  0.00    +0.000 A 
ATOM      5  C   UNL     1      29.200  22.619  30.428  0.00  0.00    +0.000 A 
ATOM      6  C   UNL     1      29.412  22.456  31.926  0.00  0.00    +0.000 C 
ATOM      7  C   UNL     1      30.394  23.540  32.307  0.00  0.00    +0.000 C 
ATOM      8  C   UNL     1      31.748  23.158  31.769  0.00  0.00    +0.000 C 
ATOM      9  C   UNL     1      31.718  22.621  30.383  0.00  0.00    +0.000 C 
ENDROOT
BRANCH   1  11
ATOM     10  N   UNL     1      26.039  23.807  30.783  0.00  0.00    +0.000 NA
ATOM     11  C   UNL     1      26.708  22.630  30.354  0.00  0.00    +0.000 C 
ATOM     12  O   UNL     1      26.093  21.554  30.527  0.00  0.00    +0.000 OA
ENDBRANCH   1  11
BRANCH   2  13
ATOM     13  N   UNL     1      27.114  22.951  27.413  0.00  0.00    +0.000 NA
ATOM     14  C   UNL     1      26.904  23.093  26.277  0.00  0.00    +0.000 C 
BRANCH  14  15
ATOM     15  C   UNL     1      27.278  23.269  24.939  0.00  0.00    +0.000 A 
ATOM     16  C   UNL     1      28.535  23.206  24.384  0.00  0.00    +0.000 A 
ATOM     17  C   UNL     1      28.802  23.396  23.048  0.00  0.00    +0.000 A 
ATOM     18  C   UNL     1      27.776  23.667  22.191  0.00  0.00    +0.000 A 
ATOM     19  C   UNL     1      26.498  23.745  22.675  0.00  0.00    +0.000 A 
ATOM     20  C   UNL     1      26.255  23.551  24.014  0.00  0.00    +0.000 A 
ENDBRANCH  14  15
ENDBRANCH   2  13
TORSDOF 3
ENDMDL
MODEL 9
REMARK VINA RESULT:      -6.0     18.648     20.140
REMARK  Name = 
REMARK  3 active torsions:
REMARK  status: ('A' for Active; 'I' for Inactive)
REMARK    1  A    between atoms: C_2  and  C_4
REMARK    2  A    between atoms: C_5  and  N_6
REMARK    3  A    between atoms: C_7  and  C_8
REMARK                            x       y       z     vdW  Elec       q    Type
REMARK                         _______ _______ _______ _____ _____    ______ ____
ROOT
ATOM      1  C   UNL     1      26.768  25.105  23.329  0.00  0.00    +0.000 A 
ATOM      2  C   UNL     1      26.124  25.559  24.458  0.00  0.00    +0.000 A 
ATOM      3  S   UNL     1      26.383  27.268  24.349  0.00  0.00    +0.000 S 
ATOM      4  C   UNL     1      27.277  27.325  22.908  0.00  0.00    +0.000 A 
ATOM      5  C   UNL     1      27.354  26.013  22.543  0.00  0.00    +0.000 A 
ATOM      6  C   UNL     1      28.128  25.814  21.248  0.00  0.00    +0.000 C 
ATOM      7  C   UNL     1      29.418  26.578  21.438  0.00  0.00    +0.000 C 
ATOM      8  C   UNL     1      29.106  28.051  21.378  0.00  0.00    +0.000 C 
ATOM      9  C   UNL     1      27.882  28.440  22.127  0.00  0.00    +0.000 C 
ENDROOT
BRANCH   1  11
ATOM     10  N   UNL     1      25.658  23.007  22.443  0.00  0.00    +0.000 NA
ATOM     11  C   UNL     1      26.772  23.643  23.054  0.00  0.00    +0.000 C 
ATOM     12  O   UNL     1      27.739  22.902  23.339  0.00  0.00    +0.000 OA
ENDBRANCH   1  11
BRANCH   2  13
ATOM     13  N   UNL     1      25.433  24.821  25.448  0.00  0.00    +0.000 NA
ATOM     14  C   UNL     1      25.579  24.204  26.424  0.00  0.00    +0.000 C 
BRANCH  14  15
ATOM     15  C   UNL     1      26.341  23.633  27.450  0.00  0.00    +0.000 A 
ATOM     16  C   UNL     1      27.501  22.900  27.353  0.00  0.00    +0.000 A 
ATOM     17  C   UNL     1      28.180  22.379  28.430  0.00  0.00    +0.000 A 
ATOM     18  C   UNL     1      27.698  22.582  29.689  0.00  0.00    +0.000 A 
ATOM     19  C   UNL     1      26.547  23.302  29.861  0.00  0.00    +0.000 A 
ATOM     20  C   UNL     1      25.886  23.815  28.770  0.00  0.00    +0.000 A 
ENDBRANCH  14  15
ENDBRANCH   2  13
TORSDOF 3
ENDMDL
MODEL 10
REMARK VINA RESULT:      -5.9     17.679     19.260
REMARK  Name = 
REMARK  3 active torsions:
REMARK  status: ('A' for Active; 'I' for Inactive)
REMARK    1  A    between atoms: C_2  and  C_4
REMARK    2  A    between atoms: C_5  and  N_6
REMARK    3  A    between atoms: C_7  and  C_8
REMARK                            x       y       z     vdW  Elec       q    Type
REMARK                         _______ _______ _______ _____ _____    ______ ____
ROOT
ATOM      1  C   UNL     1      28.475  23.107  25.738  0.00  0.00    +0.000 A 
ATOM      2  C   UNL     1      27.258  23.066  26.381  0.00  0.00    +0.000 A 
ATOM      3  S   UNL     1      26.157  23.330  25.070  0.00  0.00    +0.000 S 
ATOM      4  C   UNL     1      27.268  23.477  23.795  0.00  0.00    +0.000 A 
ATOM      5  C   UNL     1      28.472  23.317  24.418  0.00  0.00    +0.000 A 
ATOM      6  C   UNL     1      29.643  23.412  23.453  0.00  0.00    +0.000 C 
ATOM      7  C   UNL     1      29.409  24.683  22.670  0.00  0.00    +0.000 C 
ATOM      8  C   UNL     1      28.259  24.448  21.725  0.00  0.00    +0.000 C 
ATOM      9  C   UNL     1      27.117  23.716  22.333  0.00  0.00    +0.000 C 
ENDROOT
BRANCH   1  11
ATOM     10  N   UNL     1      30.364  24.020  27.157  0.00  0.00    +0.000 NA
ATOM     11  C   UNL     1      29.710  22.917  26.545  0.00  0.00    +0.000 C 
ATOM     12  O   UNL     1      30.234  21.797  26.729  0.00  0.00    +0.000 OA
ENDBRANCH   1  11
BRANCH   2  13
ATOM     13  N   UNL     1      26.980  22.863  27.753  0.00  0.00    +0.000 NA
ATOM     14  C   UNL     1      26.504  23.359  28.692  0.00  0.00    +0.000 C 
BRANCH  14  15
ATOM     15  C   UNL     1      25.855  24.394  29.378  0.00  0.00    +0.000 A 
ATOM     16  C   UNL     1      25.906  24.700  30.717  0.00  0.00    +0.000 A 
ATOM     17  C   UNL     1      25.227  25.746  31.299  0.00  0.00    +0.000 A 
ATOM     18  C   UNL     1      24.443  26.549  30.525  0.00  0.00    +0.000 A 
ATOM     19  C   UNL     1      24.345  26.302  29.182  0.00  0.00    +0.000 A 
ATOM     20  C   UNL     1      25.033  25.252  28.623  0.00  0.00    +0.000 A 
ENDBRANCH  14  15
ENDBRANCH   2  13
TORSDOF 3
ENDMDL
