MODEL 1
REMARK VINA RESULT:      -6.7      0.000      0.000
REMARK  Name = 
REMARK  4 active torsions:
REMARK  status: ('A' for Active; 'I' for Inactive)
REMARK    1  A    between atoms: C_6  and  C_7
REMARK    2  A    between atoms: N_8  and  N_9
REMARK    3  A    between atoms: N_9  and  C_10
REMARK    4  A    between atoms: C_13  and  N_14
REMARK                            x       y       z     vdW  Elec       q    Type
REMARK                         _______ _______ _______ _____ _____    ______ ____
ROOT
ATOM      1  N   UNL     1      17.261   9.811  34.049  0.00  0.00    +0.000 NA
ENDROOT
BRANCH   1   2
ATOM      2  C   UNL     1      16.402  10.784  33.452  0.00  0.00    +0.000 A 
ATOM      3  C   UNL     1      16.287  10.924  32.059  0.00  0.00    +0.000 A 
ATOM      4  C   UNL     1      15.436  11.865  31.537  0.00  0.00    +0.000 A 
ATOM      5  C   UNL     1      14.691  12.679  32.296  0.00  0.00    +0.000 A 
ATOM      6  C   UNL     1      14.791  12.555  33.698  0.00  0.00    +0.000 A 
ATOM      7  C   UNL     1      15.640  11.617  34.215  0.00  0.00    +0.000 A 
BRANCH   5   8
ATOM      8  N   UNL     1      13.777  13.668  31.838  0.00  0.00    +0.000 N 
ATOM      9  O   UNL     1      13.299  13.631  30.679  0.00  0.00    +0.000 OA
ATOM     10  O   UNL     1      13.440  14.681  32.722  0.00  0.00    +0.000 OA
ENDBRANCH   5   8
ENDBRANCH   1   2
BRANCH   1  12
ATOM     11  C   UNL     1      18.342   9.944  36.111  0.00  0.00    +0.000 C 
ATOM     12  N   UNL     1      17.253   9.660  35.469  0.00  0.00    +0.000 NA
BRANCH  11  18
ATOM     13  C   UNL     1      17.028   9.483  40.869  0.00  0.00    +0.000 C 
ATOM     14  C   UNL     1      17.906   9.625  39.670  0.00  0.00    +0.000 A 
ATOM     15  C   UNL     1      19.291   9.693  39.621  0.00  0.00    +0.000 A 
ATOM     16  C   UNL     1      19.621   9.820  38.286  0.00  0.00    +0.000 A 
ATOM     17  C   UNL     1      20.959   9.930  37.653  0.00  0.00    +0.000 C 
ATOM     18  C   UNL     1      18.440   9.827  37.565  0.00  0.00    +0.000 A 
ATOM     19  N   UNL     1      17.403   9.708  38.411  0.00  0.00    +0.000 NA
ENDBRANCH  11  18
ENDBRANCH   1  12
TORSDOF 4
ENDMDL
MODEL 2
REMARK VINA RESULT:      -6.6      1.514      2.851
REMARK  Name = 
REMARK  4 active torsions:
REMARK  status: ('A' for Active; 'I' for Inactive)
REMARK    1  A    between atoms: C_6  and  C_7
REMARK    2  A    between atoms: N_8  and  N_9
REMARK    3  A    between atoms: N_9  and  C_10
REMARK    4  A    between atoms: C_13  and  N_14
REMARK                            x       y       z     vdW  Elec       q    Type
REMARK                         _______ _______ _______ _____ _____    ______ ____
ROOT
ATOM      1  N   UNL     1      17.147   9.506  34.991  0.00  0.00    +0.000 NA
ENDROOT
BRANCH   1   2
ATOM      2  C   UNL     1      16.478  10.428  34.128  0.00  0.00    +0.000 A 
ATOM      3  C   UNL     1      16.650  10.404  32.734  0.00  0.00    +0.000 A 
ATOM      4  C   UNL     1      15.973  11.302  31.950  0.00  0.00    +0.000 A 
ATOM      5  C   UNL     1      15.139  12.226  32.447  0.00  0.00    +0.000 A 
ATOM      6  C   UNL     1      14.952  12.266  33.844  0.00  0.00    +0.000 A 
ATOM      7  C   UNL     1      15.628  11.370  34.624  0.00  0.00    +0.000 A 
BRANCH   5   8
ATOM      8  N   UNL     1      14.390  13.181  31.706  0.00  0.00    +0.000 N 
ATOM      9  O   UNL     1      13.596  13.972  32.271  0.00  0.00    +0.000 OA
ATOM     10  O   UNL     1      14.565  13.200  30.331  0.00  0.00    +0.000 OA
ENDBRANCH   5   8
ENDBRANCH   1   2
BRANCH   1  12
ATOM     11  C   UNL     1      18.882   9.747  36.530  0.00  0.00    +0.000 C 
ATOM     12  N   UNL     1      18.529   9.711  35.284  0.00  0.00    +0.000 NA
BRANCH  11  18
ATOM     13  C   UNL     1      23.839   9.732  36.433  0.00  0.00    +0.000 C 
ATOM     14  C   UNL     1      22.453   9.960  36.937  0.00  0.00    +0.000 A 
ATOM     15  C   UNL     1      22.058  10.526  38.141  0.00  0.00    +0.000 A 
ATOM     16  C   UNL     1      20.676  10.514  38.134  0.00  0.00    +0.000 A 
ATOM     17  C   UNL     1      19.726  11.000  39.166  0.00  0.00    +0.000 C 
ATOM     18  C   UNL     1      20.272   9.947  36.938  0.00  0.00    +0.000 A 
ATOM     19  N   UNL     1      21.355   9.614  36.217  0.00  0.00    +0.000 NA
ENDBRANCH  11  18
ENDBRANCH   1  12
TORSDOF 4
ENDMDL
MODEL 3
REMARK VINA RESULT:      -6.4      1.003      2.244
REMARK  Name = 
REMARK  4 active torsions:
REMARK  status: ('A' for Active; 'I' for Inactive)
REMARK    1  A    between atoms: C_6  and  C_7
REMARK    2  A    between atoms: N_8  and  N_9
REMARK    3  A    between atoms: N_9  and  C_10
REMARK    4  A    between atoms: C_13  and  N_14
REMARK                            x       y       z     vdW  Elec       q    Type
REMARK                         _______ _______ _______ _____ _____    ______ ____
ROOT
ATOM      1  N   UNL     1      17.216   9.650  34.324  0.00  0.00    +0.000 NA
ENDROOT
BRANCH   1   2
ATOM      2  C   UNL     1      16.370  10.653  33.760  0.00  0.00    +0.000 A 
ATOM      3  C   UNL     1      15.585  11.503  34.557  0.00  0.00    +0.000 A 
ATOM      4  C   UNL     1      14.801  12.459  33.964  0.00  0.00    +0.000 A 
ATOM      5  C   UNL     1      14.736  12.635  32.638  0.00  0.00    +0.000 A 
ATOM      6  C   UNL     1      15.518  11.794  31.819  0.00  0.00    +0.000 A 
ATOM      7  C   UNL     1      16.298  10.840  32.412  0.00  0.00    +0.000 A 
BRANCH   5   8
ATOM      8  N   UNL     1      13.964  13.609  31.946  0.00  0.00    +0.000 N 
ATOM      9  O   UNL     1      13.749  13.518  30.713  0.00  0.00    +0.000 OA
ATOM     10  O   UNL     1      13.464  14.668  32.686  0.00  0.00    +0.000 OA
ENDBRANCH   5   8
ENDBRANCH   1   2
BRANCH   1  12
ATOM     11  C   UNL     1      18.081   9.465  36.481  0.00  0.00    +0.000 C 
ATOM     12  N   UNL     1      18.169  10.027  35.317  0.00  0.00    +0.000 NA
BRANCH  11  18
ATOM     13  C   UNL     1      22.276  10.556  38.887  0.00  0.00    +0.000 C 
ATOM     14  C   UNL     1      20.831  10.258  38.665  0.00  0.00    +0.000 A 
ATOM     15  C   UNL     1      19.812  10.191  39.606  0.00  0.00    +0.000 A 
ATOM     16  C   UNL     1      18.662   9.886  38.903  0.00  0.00    +0.000 A 
ATOM     17  C   UNL     1      17.276   9.698  39.402  0.00  0.00    +0.000 C 
ATOM     18  C   UNL     1      19.008   9.777  37.568  0.00  0.00    +0.000 A 
ATOM     19  N   UNL     1      20.325  10.004  37.431  0.00  0.00    +0.000 NA
ENDBRANCH  11  18
ENDBRANCH   1  12
TORSDOF 4
ENDMDL
MODEL 4
REMARK VINA RESULT:      -6.4      4.123      7.683
REMARK  Name = 
REMARK  4 active torsions:
REMARK  status: ('A' for Active; 'I' for Inactive)
REMARK    1  A    between atoms: C_6  and  C_7
REMARK    2  A    between atoms: N_8  and  N_9
REMARK    3  A    between atoms: N_9  and  C_10
REMARK    4  A    between atoms: C_13  and  N_14
REMARK                            x       y       z     vdW  Elec       q    Type
REMARK                         _______ _______ _______ _____ _____    ______ ____
ROOT
ATOM      1  N   UNL     1      16.991   9.995  35.739  0.00  0.00    +0.000 NA
ENDROOT
BRANCH   1   2
ATOM      2  C   UNL     1      18.169  10.291  36.490  0.00  0.00    +0.000 A 
ATOM      3  C   UNL     1      19.356   9.555  36.339  0.00  0.00    +0.000 A 
ATOM      4  C   UNL     1      20.463   9.891  37.074  0.00  0.00    +0.000 A 
ATOM      5  C   UNL     1      20.480  10.903  37.952  0.00  0.00    +0.000 A 
ATOM      6  C   UNL     1      19.299  11.656  38.118  0.00  0.00    +0.000 A 
ATOM      7  C   UNL     1      18.196  11.318  37.384  0.00  0.00    +0.000 A 
BRANCH   5   8
ATOM      8  N   UNL     1      21.585  11.326  38.741  0.00  0.00    +0.000 N 
ATOM      9  O   UNL     1      21.619  11.128  39.980  0.00  0.00    +0.000 OA
ATOM     10  O   UNL     1      22.621  11.975  38.089  0.00  0.00    +0.000 OA
ENDBRANCH   5   8
ENDBRANCH   1   2
BRANCH   1  12
ATOM     11  C   UNL     1      15.911  11.354  34.182  0.00  0.00    +0.000 C 
ATOM     12  N   UNL     1      16.083  11.052  35.430  0.00  0.00    +0.000 NA
BRANCH  11  18
ATOM     13  C   UNL     1      12.834  15.237  34.373  0.00  0.00    +0.000 C 
ATOM     14  C   UNL     1      13.644  14.124  33.796  0.00  0.00    +0.000 A 
ATOM     15  C   UNL     1      13.764  13.748  32.465  0.00  0.00    +0.000 A 
ATOM     16  C   UNL     1      14.625  12.667  32.449  0.00  0.00    +0.000 A 
ATOM     17  C   UNL     1      15.112  11.869  31.296  0.00  0.00    +0.000 C 
ATOM     18  C   UNL     1      15.002  12.417  33.757  0.00  0.00    +0.000 A 
ATOM     19  N   UNL     1      14.404  13.305  34.568  0.00  0.00    +0.000 NA
ENDBRANCH  11  18
ENDBRANCH   1  12
TORSDOF 4
ENDMDL
MODEL 5
REMARK VINA RESULT:      -6.3      2.734      4.016
REMARK  Name = 
REMARK  4 active torsions:
REMARK  status: ('A' for Active; 'I' for Inactive)
REMARK    1  A    between atoms: C_6  and  C_7
REMARK    2  A    between atoms: N_8  and  N_9
REMARK    3  A    between atoms: N_9  and  C_10
REMARK    4  A    between atoms: C_13  and  N_14
REMARK                            x       y       z     vdW  Elec       q    Type
REMARK                         _______ _______ _______ _____ _____    ______ ____
ROOT
ATOM      1  N   UNL     1      18.329  10.204  37.747  0.00  0.00    +0.000 NA
ENDROOT
BRANCH   1   2
ATOM      2  C   UNL     1      17.773  10.460  36.456  0.00  0.00    +0.000 A 
ATOM      3  C   UNL     1      18.135   9.712  35.324  0.00  0.00    +0.000 A 
ATOM      4  C   UNL     1      17.559   9.990  34.111  0.00  0.00    +0.000 A 
ATOM      5  C   UNL     1      16.651  10.960  33.937  0.00  0.00    +0.000 A 
ATOM      6  C   UNL     1      16.272  11.723  35.061  0.00  0.00    +0.000 A 
ATOM      7  C   UNL     1      16.848  11.444  36.269  0.00  0.00    +0.000 A 
BRANCH   5   8
ATOM      8  N   UNL     1      15.997  11.304  32.722  0.00  0.00    +0.000 N 
ATOM      9  O   UNL     1      16.288  10.739  31.639  0.00  0.00    +0.000 OA
ATOM     10  O   UNL     1      15.030  12.295  32.778  0.00  0.00    +0.000 OA
ENDBRANCH   5   8
ENDBRANCH   1   2
BRANCH   1  12
ATOM     11  C   UNL     1      18.222   8.768  39.581  0.00  0.00    +0.000 C 
ATOM     12  N   UNL     1      18.236   8.887  38.291  0.00  0.00    +0.000 NA
BRANCH  11  18
ATOM     13  C   UNL     1      19.330   4.154  41.017  0.00  0.00    +0.000 C 
ATOM     14  C   UNL     1      18.575   5.436  40.897  0.00  0.00    +0.000 A 
ATOM     15  C   UNL     1      17.370   5.783  41.492  0.00  0.00    +0.000 A 
ATOM     16  C   UNL     1      17.092   7.070  41.071  0.00  0.00    +0.000 A 
ATOM     17  C   UNL     1      15.935   7.939  41.401  0.00  0.00    +0.000 C 
ATOM     18  C   UNL     1      18.125   7.467  40.241  0.00  0.00    +0.000 A 
ATOM     19  N   UNL     1      19.021   6.471  40.139  0.00  0.00    +0.000 NA
ENDBRANCH  11  18
ENDBRANCH   1  12
TORSDOF 4
ENDMDL
MODEL 6
REMARK VINA RESULT:      -6.1     19.971     22.422
REMARK  Name = 
REMARK  4 active torsions:
REMARK  status: ('A' for Active; 'I' for Inactive)
REMARK    1  A    between atoms: C_6  and  C_7
REMARK    2  A    between atoms: N_8  and  N_9
REMARK    3  A    between atoms: N_9  and  C_10
REMARK    4  A    between atoms: C_13  and  N_14
REMARK                            x       y       z     vdW  Elec       q    Type
REMARK                         _______ _______ _______ _____ _____    ______ ____
ROOT
ATOM      1  N   UNL     1      33.307  -2.365  34.272  0.00  0.00    +0.000 NA
ENDROOT
BRANCH   1   2
ATOM      2  C   UNL     1      33.428  -0.945  34.365  0.00  0.00    +0.000 A 
ATOM      3  C   UNL     1      33.493  -0.280  35.601  0.00  0.00    +0.000 A 
ATOM      4  C   UNL     1      33.624   1.085  35.634  0.00  0.00    +0.000 A 
ATOM      5  C   UNL     1      33.693   1.840  34.530  0.00  0.00    +0.000 A 
ATOM      6  C   UNL     1      33.631   1.193  33.278  0.00  0.00    +0.000 A 
ATOM      7  C   UNL     1      33.500  -0.168  33.249  0.00  0.00    +0.000 A 
BRANCH   5   8
ATOM      8  N   UNL     1      33.843   3.254  34.475  0.00  0.00    +0.000 N 
ATOM      9  O   UNL     1      34.387   3.891  35.409  0.00  0.00    +0.000 OA
ATOM     10  O   UNL     1      33.355   3.902  33.351  0.00  0.00    +0.000 OA
ENDBRANCH   5   8
ENDBRANCH   1   2
BRANCH   1  12
ATOM     11  C   UNL     1      33.667  -4.303  33.027  0.00  0.00    +0.000 C 
ATOM     12  N   UNL     1      33.633  -3.008  33.040  0.00  0.00    +0.000 NA
BRANCH  11  18
ATOM     13  C   UNL     1      33.438  -6.019  28.381  0.00  0.00    +0.000 C 
ATOM     14  C   UNL     1      33.922  -5.841  29.781  0.00  0.00    +0.000 A 
ATOM     15  C   UNL     1      34.996  -6.460  30.406  0.00  0.00    +0.000 A 
ATOM     16  C   UNL     1      35.030  -5.960  31.693  0.00  0.00    +0.000 A 
ATOM     17  C   UNL     1      35.973  -6.269  32.798  0.00  0.00    +0.000 C 
ATOM     18  C   UNL     1      33.987  -5.060  31.817  0.00  0.00    +0.000 A 
ATOM     19  N   UNL     1      33.319  -4.992  30.654  0.00  0.00    +0.000 NA
ENDBRANCH  11  18
ENDBRANCH   1  12
TORSDOF 4
ENDMDL
MODEL 7
REMARK VINA RESULT:      -6.0     21.522     22.883
REMARK  Name = 
REMARK  4 active torsions:
REMARK  status: ('A' for Active; 'I' for Inactive)
REMARK    1  A    between atoms: C_6  and  C_7
REMARK    2  A    between atoms: N_8  and  N_9
REMARK    3  A    between atoms: N_9  and  C_10
REMARK    4  A    between atoms: C_13  and  N_14
REMARK                            x       y       z     vdW  Elec       q    Type
REMARK                         _______ _______ _______ _____ _____    ______ ____
ROOT
ATOM      1  N   UNL     1      22.094  -9.639  25.771  0.00  0.00    +0.000 NA
ENDROOT
BRANCH   1   2
ATOM      2  C   UNL     1      21.116  -8.623  25.999  0.00  0.00    +0.000 A 
ATOM      3  C   UNL     1      21.215  -7.347  25.420  0.00  0.00    +0.000 A 
ATOM      4  C   UNL     1      20.240  -6.413  25.660  0.00  0.00    +0.000 A 
ATOM      5  C   UNL     1      19.173  -6.651  26.435  0.00  0.00    +0.000 A 
ATOM      6  C   UNL     1      19.054  -7.926  27.026  0.00  0.00    +0.000 A 
ATOM      7  C   UNL     1      20.028  -8.855  26.786  0.00  0.00    +0.000 A 
BRANCH   5   8
ATOM      8  N   UNL     1      18.113  -5.747  26.723  0.00  0.00    +0.000 N 
ATOM      9  O   UNL     1      18.239  -4.512  26.543  0.00  0.00    +0.000 OA
ATOM     10  O   UNL     1      16.937  -6.285  27.221  0.00  0.00    +0.000 OA
ENDBRANCH   5   8
ENDBRANCH   1   2
BRANCH   1  12
ATOM     11  C   UNL     1      23.658  -9.292  24.077  0.00  0.00    +0.000 C 
ATOM     12  N   UNL     1      23.402  -9.256  25.347  0.00  0.00    +0.000 NA
BRANCH  11  18
ATOM     13  C   UNL     1      28.196  -9.669  22.116  0.00  0.00    +0.000 C 
ATOM     14  C   UNL     1      26.964  -9.038  22.673  0.00  0.00    +0.000 A 
ATOM     15  C   UNL     1      26.693  -7.688  22.850  0.00  0.00    +0.000 A 
ATOM     16  C   UNL     1      25.426  -7.620  23.396  0.00  0.00    +0.000 A 
ATOM     17  C   UNL     1      24.631  -6.428  23.785  0.00  0.00    +0.000 C 
ATOM     18  C   UNL     1      24.963  -8.917  23.536  0.00  0.00    +0.000 A 
ATOM     19  N   UNL     1      25.902  -9.772  23.095  0.00  0.00    +0.000 NA
ENDBRANCH  11  18
ENDBRANCH   1  12
TORSDOF 4
ENDMDL
MODEL 8
REMARK VINA RESULT:      -5.8     18.423     19.945
REMARK  Name = 
REMARK  4 active torsions:
REMARK  status: ('A' for Active; 'I' for Inactive)
REMARK    1  A    between atoms: C_6  and  C_7
REMARK    2  A    between atoms: N_8  and  N_9
REMARK    3  A    between atoms: N_9  and  C_10
REMARK    4  A    between atoms: C_13  and  N_14
REMARK                            x       y       z     vdW  Elec       q    Type
REMARK                         _______ _______ _______ _____ _____    ______ ____
ROOT
ATOM      1  N   UNL     1      33.628   3.029  32.778  0.00  0.00    +0.000 NA
ENDROOT
BRANCH   1   2
ATOM      2  C   UNL     1      33.556   1.642  33.114  0.00  0.00    +0.000 A 
ATOM      3  C   UNL     1      34.397   0.685  32.522  0.00  0.00    +0.000 A 
ATOM      4  C   UNL     1      34.296  -0.631  32.891  0.00  0.00    +0.000 A 
ATOM      5  C   UNL     1      33.419  -1.071  33.803  0.00  0.00    +0.000 A 
ATOM      6  C   UNL     1      32.565  -0.127  34.411  0.00  0.00    +0.000 A 
ATOM      7  C   UNL     1      32.668   1.185  34.040  0.00  0.00    +0.000 A 
BRANCH   5   8
ATOM      8  N   UNL     1      33.259  -2.411  34.252  0.00  0.00    +0.000 N 
ATOM      9  O   UNL     1      33.032  -2.676  35.457  0.00  0.00    +0.000 OA
ATOM     10  O   UNL     1      33.372  -3.417  33.305  0.00  0.00    +0.000 OA
ENDBRANCH   5   8
ENDBRANCH   1   2
BRANCH   1  12
ATOM     11  C   UNL     1      34.424   4.165  34.652  0.00  0.00    +0.000 C 
ATOM     12  N   UNL     1      33.453   4.000  33.810  0.00  0.00    +0.000 NA
BRANCH  11  18
ATOM     13  C   UNL     1      32.976   6.410  38.828  0.00  0.00    +0.000 C 
ATOM     14  C   UNL     1      33.744   6.155  37.574  0.00  0.00    +0.000 A 
ATOM     15  C   UNL     1      34.772   6.909  37.026  0.00  0.00    +0.000 A 
ATOM     16  C   UNL     1      35.149   6.257  35.868  0.00  0.00    +0.000 A 
ATOM     17  C   UNL     1      36.204   6.616  34.887  0.00  0.00    +0.000 C 
ATOM     18  C   UNL     1      34.350   5.134  35.744  0.00  0.00    +0.000 A 
ATOM     19  N   UNL     1      33.499   5.079  36.782  0.00  0.00    +0.000 NA
ENDBRANCH  11  18
ENDBRANCH   1  12
TORSDOF 4
ENDMDL
MODEL 9
REMARK VINA RESULT:      -5.8     20.723     23.075
REMARK  Name = 
REMARK  4 active torsions:
REMARK  status: ('A' for Active; 'I' for Inactive)
REMARK    1  A    between atoms: C_6  and  C_7
REMARK    2  A    between atoms: N_8  and  N_9
REMARK    3  A    between atoms: N_9  and  C_10
REMARK    4  A    between atoms: C_13  and  N_14
REMARK                            x       y       z     vdW  Elec       q    Type
REMARK                         _______ _______ _______ _____ _____    ______ ____
ROOT
ATOM      1  N   UNL     1      33.815  -4.476  33.866  0.00  0.00    +0.000 NA
ENDROOT
BRANCH   1   2
ATOM      2  C   UNL     1      33.921  -5.013  32.547  0.00  0.00    +0.000 A 
ATOM      3  C   UNL     1      35.131  -5.518  32.041  0.00  0.00    +0.000 A 
ATOM      4  C   UNL     1      35.174  -6.036  30.772  0.00  0.00    +0.000 A 
ATOM      5  C   UNL     1      34.106  -6.088  29.965  0.00  0.00    +0.000 A 
ATOM      6  C   UNL     1      32.881  -5.587  30.453  0.00  0.00    +0.000 A 
ATOM      7  C   UNL     1      32.841  -5.071  31.718  0.00  0.00    +0.000 A 
BRANCH   5   8
ATOM      8  N   UNL     1      34.061  -6.620  28.646  0.00  0.00    +0.000 N 
ATOM      9  O   UNL     1      33.243  -6.194  27.796  0.00  0.00    +0.000 OA
ATOM     10  O   UNL     1      34.954  -7.634  28.339  0.00  0.00    +0.000 OA
ENDBRANCH   5   8
ENDBRANCH   1   2
BRANCH   1  12
ATOM     11  C   UNL     1      33.132  -2.247  33.883  0.00  0.00    +0.000 C 
ATOM     12  N   UNL     1      34.096  -3.092  34.073  0.00  0.00    +0.000 NA
BRANCH  11  18
ATOM     13  C   UNL     1      33.926   2.543  32.877  0.00  0.00    +0.000 C 
ATOM     14  C   UNL     1      33.657   1.309  33.672  0.00  0.00    +0.000 A 
ATOM     15  C   UNL     1      33.473   1.192  35.043  0.00  0.00    +0.000 A 
ATOM     16  C   UNL     1      33.255  -0.150  35.287  0.00  0.00    +0.000 A 
ATOM     17  C   UNL     1      32.996  -0.843  36.574  0.00  0.00    +0.000 C 
ATOM     18  C   UNL     1      33.312  -0.808  34.071  0.00  0.00    +0.000 A 
ATOM     19  N   UNL     1      33.555   0.083  33.096  0.00  0.00    +0.000 NA
ENDBRANCH  11  18
ENDBRANCH   1  12
TORSDOF 4
ENDMDL
MODEL 10
REMARK VINA RESULT:      -5.7      6.215      7.528
REMARK  Name = 
REMARK  4 active torsions:
REMARK  status: ('A' for Active; 'I' for Inactive)
REMARK    1  A    between atoms: C_6  and  C_7
REMARK    2  A    between atoms: N_8  and  N_9
REMARK    3  A    between atoms: N_9  and  C_10
REMARK    4  A    between atoms: C_13  and  N_14
REMARK                            x       y       z     vdW  Elec       q    Type
REMARK                         _______ _______ _______ _____ _____    ______ ____
ROOT
ATOM      1  N   UNL     1      18.837  10.147  37.874  0.00  0.00    +0.000 NA
ENDROOT
BRANCH   1   2
ATOM      2  C   UNL     1      20.211  10.443  37.617  0.00  0.00    +0.000 A 
ATOM      3  C   UNL     1      20.890  11.473  38.288  0.00  0.00    +0.000 A 
ATOM      4  C   UNL     1      22.214  11.706  38.015  0.00  0.00    +0.000 A 
ATOM      5  C   UNL     1      22.914  10.994  37.122  0.00  0.00    +0.000 A 
ATOM      6  C   UNL     1      22.250   9.954  36.437  0.00  0.00    +0.000 A 
ATOM      7  C   UNL     1      20.931   9.724  36.711  0.00  0.00    +0.000 A 
BRANCH   5   8
ATOM      8  N   UNL     1      24.287  11.159  36.790  0.00  0.00    +0.000 N 
ATOM      9  O   UNL     1      24.984  12.059  37.317  0.00  0.00    +0.000 OA
ATOM     10  O   UNL     1      24.823  10.291  35.852  0.00  0.00    +0.000 OA
ENDBRANCH   5   8
ENDBRANCH   1   2
BRANCH   1  12
ATOM     11  C   UNL     1      18.798   8.622  39.637  0.00  0.00    +0.000 C 
ATOM     12  N   UNL     1      18.492   8.866  38.401  0.00  0.00    +0.000 NA
BRANCH  11  18
ATOM     13  C   UNL     1      19.228   3.925  41.163  0.00  0.00    +0.000 C 
ATOM     14  C   UNL     1      18.636   5.281  40.968  0.00  0.00    +0.000 A 
ATOM     15  C   UNL     1      17.419   5.763  41.430  0.00  0.00    +0.000 A 
ATOM     16  C   UNL     1      17.333   7.069  40.987  0.00  0.00    +0.000 A 
ATOM     17  C   UNL     1      16.249   8.062  41.193  0.00  0.00    +0.000 C 
ATOM     18  C   UNL     1      18.487   7.344  40.276  0.00  0.00    +0.000 A 
ATOM     19  N   UNL     1      19.274   6.255  40.268  0.00  0.00    +0.000 NA
ENDBRANCH  11  18
ENDBRANCH   1  12
TORSDOF 4
ENDMDL
