MODEL 1
REMARK VINA RESULT:      -7.6      0.000      0.000
REMARK  Name = 
REMARK  6 active torsions:
REMARK  status: ('A' for Active; 'I' for Inactive)
REMARK    1  A    between atoms: C_2  and  C_19
REMARK    2  A    between atoms: N_3  and  C_4
REMARK    3  A    between atoms: C_7  and  C_8
REMARK    4  A    between atoms: N_25  and  C_26
REMARK    5  A    between atoms: C_26  and  C_27
REMARK    6  A    between atoms: C_27  and  N_28
REMARK                            x       y       z     vdW  Elec       q    Type
REMARK                         _______ _______ _______ _____ _____    ______ ____
ROOT
ATOM      1  O   UNL     1      37.510   0.394  13.292  0.00  0.00    +0.000 OA
ATOM      2  C   UNL     1      37.547   1.083  14.339  0.00  0.00    +0.000 C 
ATOM      3  N   UNL     1      38.746   1.014  15.112  0.00  0.00    +0.000 NA
ENDROOT
BRANCH   2   4
ATOM      4  C   UNL     1      36.414   1.897  14.719  0.00  0.00    +0.000 A 
ATOM      5  C   UNL     1      36.193   3.154  14.201  0.00  0.00    +0.000 A 
ATOM      6  C   UNL     1      35.094   3.879  14.602  0.00  0.00    +0.000 A 
ATOM      7  C   UNL     1      34.208   3.364  15.517  0.00  0.00    +0.000 A 
ATOM      8  N   UNL     1      34.428   2.145  16.016  0.00  0.00    +0.000 NA
ATOM      9  C   UNL     1      35.504   1.417  15.633  0.00  0.00    +0.000 A 
ATOM     10  N   UNL     1      35.737   0.122  16.165  0.00  0.00    +0.000 NA
BRANCH  10  11
ATOM     11  C   UNL     1      34.790  -0.397  17.129  0.00  0.00    +0.000 C 
BRANCH  11  12
ATOM     12  C   UNL     1      35.562  -1.249  18.114  0.00  0.00    +0.000 C 
BRANCH  12  13
ATOM     13  N   UNL     1      36.734  -1.805  17.499  0.00  0.00    +0.000 NA
ATOM     14  C   UNL     1      37.893  -1.854  18.336  0.00  0.00    +0.000 C 
ATOM     15  C   UNL     1      38.678  -3.088  17.939  0.00  0.00    +0.000 C 
ATOM     16  C   UNL     1      37.774  -3.881  17.023  0.00  0.00    +0.000 C 
ATOM     17  C   UNL     1      36.453  -3.151  17.058  0.00  0.00    +0.000 C 
ENDBRANCH  12  13
ENDBRANCH  11  12
ENDBRANCH  10  11
ENDBRANCH   2   4
BRANCH   3  18
ATOM     18  C   UNL     1      39.831   0.180  14.666  0.00  0.00    +0.000 A 
ATOM     19  C   UNL     1      39.848  -1.149  15.021  0.00  0.00    +0.000 A 
ATOM     20  C   UNL     1      40.886  -1.995  14.609  0.00  0.00    +0.000 A 
ATOM     21  C   UNL     1      41.902  -1.481  13.838  0.00  0.00    +0.000 A 
ATOM     22  C   UNL     1      41.884  -0.150  13.485  0.00  0.00    +0.000 A 
ATOM     23  C   UNL     1      40.850   0.689  13.895  0.00  0.00    +0.000 A 
BRANCH  21  24
ATOM     24  C   UNL     1      43.022  -2.319  13.371  0.00  0.00    +0.000 A 
ATOM     25  C   UNL     1      44.245  -2.488  13.938  0.00  0.00    +0.000 A 
ATOM     26  C   UNL     1      45.118  -3.307  13.339  0.00  0.00    +0.000 A 
ATOM     27  C   UNL     1      46.425  -3.599  13.783  0.00  0.00    +0.000 A 
ATOM     28  C   UNL     1      47.188  -4.455  13.059  0.00  0.00    +0.000 A 
ATOM     29  C   UNL     1      46.822  -5.085  11.913  0.00  0.00    +0.000 A 
ATOM     30  C   UNL     1      45.527  -4.804  11.460  0.00  0.00    +0.000 A 
ATOM     31  C   UNL     1      44.710  -3.921  12.186  0.00  0.00    +0.000 A 
ATOM     32  S   UNL     1      43.114  -3.319  11.996  0.00  0.00    +0.000 S 
ENDBRANCH  21  24
ENDBRANCH   3  18
TORSDOF 6
ENDMDL
MODEL 2
REMARK VINA RESULT:      -7.4      6.158      9.548
REMARK  Name = 
REMARK  6 active torsions:
REMARK  status: ('A' for Active; 'I' for Inactive)
REMARK    1  A    between atoms: C_2  and  C_19
REMARK    2  A    between atoms: N_3  and  C_4
REMARK    3  A    between atoms: C_7  and  C_8
REMARK    4  A    between atoms: N_25  and  C_26
REMARK    5  A    between atoms: C_26  and  C_27
REMARK    6  A    between atoms: C_27  and  N_28
REMARK                            x       y       z     vdW  Elec       q    Type
REMARK                         _______ _______ _______ _____ _____    ______ ____
ROOT
ATOM      1  O   UNL     1      36.486   0.193  11.800  0.00  0.00    +0.000 OA
ATOM      2  C   UNL     1      37.655   0.485  12.148  0.00  0.00    +0.000 C 
ATOM      3  N   UNL     1      38.343   1.447  11.346  0.00  0.00    +0.000 NA
ENDROOT
BRANCH   2   4
ATOM      4  C   UNL     1      38.251  -0.141  13.306  0.00  0.00    +0.000 A 
ATOM      5  C   UNL     1      39.137  -1.191  13.212  0.00  0.00    +0.000 A 
ATOM      6  C   UNL     1      39.673  -1.744  14.353  0.00  0.00    +0.000 A 
ATOM      7  C   UNL     1      39.333  -1.260  15.594  0.00  0.00    +0.000 A 
ATOM      8  N   UNL     1      38.473  -0.242  15.679  0.00  0.00    +0.000 NA
ATOM      9  C   UNL     1      37.936   0.314  14.567  0.00  0.00    +0.000 A 
ATOM     10  N   UNL     1      37.020   1.395  14.658  0.00  0.00    +0.000 NA
BRANCH  10  11
ATOM     11  C   UNL     1      36.678   1.885  15.977  0.00  0.00    +0.000 C 
BRANCH  11  12
ATOM     12  C   UNL     1      35.199   1.642  16.183  0.00  0.00    +0.000 C 
BRANCH  12  13
ATOM     13  N   UNL     1      34.981   0.628  17.176  0.00  0.00    +0.000 NA
ATOM     14  C   UNL     1      34.977  -0.714  16.682  0.00  0.00    +0.000 C 
ATOM     15  C   UNL     1      35.551  -1.593  17.774  0.00  0.00    +0.000 C 
ATOM     16  C   UNL     1      36.130  -0.652  18.806  0.00  0.00    +0.000 C 
ATOM     17  C   UNL     1      36.005   0.720  18.190  0.00  0.00    +0.000 C 
ENDBRANCH  12  13
ENDBRANCH  11  12
ENDBRANCH  10  11
ENDBRANCH   2   4
BRANCH   3  18
ATOM     18  C   UNL     1      37.680   2.027  10.208  0.00  0.00    +0.000 A 
ATOM     19  C   UNL     1      37.626   1.320   9.029  0.00  0.00    +0.000 A 
ATOM     20  C   UNL     1      36.991   1.847   7.897  0.00  0.00    +0.000 A 
ATOM     21  C   UNL     1      36.416   3.094   7.972  0.00  0.00    +0.000 A 
ATOM     22  C   UNL     1      36.472   3.802   9.153  0.00  0.00    +0.000 A 
ATOM     23  C   UNL     1      37.103   3.273  10.278  0.00  0.00    +0.000 A 
BRANCH  21  24
ATOM     24  C   UNL     1      35.733   3.705   6.817  0.00  0.00    +0.000 A 
ATOM     25  C   UNL     1      35.467   3.156   5.604  0.00  0.00    +0.000 A 
ATOM     26  C   UNL     1      34.826   3.899   4.693  0.00  0.00    +0.000 A 
ATOM     27  C   UNL     1      34.470   3.493   3.390  0.00  0.00    +0.000 A 
ATOM     28  C   UNL     1      33.820   4.370   2.585  0.00  0.00    +0.000 A 
ATOM     29  C   UNL     1      33.460   5.641   2.905  0.00  0.00    +0.000 A 
ATOM     30  C   UNL     1      33.808   6.056   4.195  0.00  0.00    +0.000 A 
ATOM     31  C   UNL     1      34.483   5.173   5.055  0.00  0.00    +0.000 A 
ATOM     32  S   UNL     1      35.077   5.269   6.663  0.00  0.00    +0.000 S 
ENDBRANCH  21  24
ENDBRANCH   3  18
TORSDOF 6
ENDMDL
MODEL 3
REMARK VINA RESULT:      -7.2      3.817      9.703
REMARK  Name = 
REMARK  6 active torsions:
REMARK  status: ('A' for Active; 'I' for Inactive)
REMARK    1  A    between atoms: C_2  and  C_19
REMARK    2  A    between atoms: N_3  and  C_4
REMARK    3  A    between atoms: C_7  and  C_8
REMARK    4  A    between atoms: N_25  and  C_26
REMARK    5  A    between atoms: C_26  and  C_27
REMARK    6  A    between atoms: C_27  and  N_28
REMARK                            x       y       z     vdW  Elec       q    Type
REMARK                         _______ _______ _______ _____ _____    ______ ____
ROOT
ATOM      1  O   UNL     1      39.450   1.639  15.069  0.00  0.00    +0.000 OA
ATOM      2  C   UNL     1      38.884   0.619  14.607  0.00  0.00    +0.000 C 
ATOM      3  N   UNL     1      37.668   0.830  13.887  0.00  0.00    +0.000 NA
ENDROOT
BRANCH   2   4
ATOM      4  C   UNL     1      39.457  -0.692  14.813  0.00  0.00    +0.000 A 
ATOM      5  C   UNL     1      40.435  -1.213  13.996  0.00  0.00    +0.000 A 
ATOM      6  C   UNL     1      40.943  -2.468  14.245  0.00  0.00    +0.000 A 
ATOM      7  C   UNL     1      40.484  -3.213  15.304  0.00  0.00    +0.000 A 
ATOM      8  N   UNL     1      39.535  -2.703  16.093  0.00  0.00    +0.000 NA
ATOM      9  C   UNL     1      39.025  -1.470  15.863  0.00  0.00    +0.000 A 
ATOM     10  N   UNL     1      38.014  -0.929  16.701  0.00  0.00    +0.000 NA
BRANCH  10  11
ATOM     11  C   UNL     1      37.548  -1.735  17.809  0.00  0.00    +0.000 C 
BRANCH  11  12
ATOM     12  C   UNL     1      36.091  -2.059  17.555  0.00  0.00    +0.000 C 
BRANCH  12  13
ATOM     13  N   UNL     1      35.946  -2.878  16.385  0.00  0.00    +0.000 NA
ATOM     14  C   UNL     1      36.354  -4.240  16.544  0.00  0.00    +0.000 C 
ATOM     15  C   UNL     1      35.453  -5.080  15.663  0.00  0.00    +0.000 C 
ATOM     16  C   UNL     1      34.343  -4.163  15.204  0.00  0.00    +0.000 C 
ATOM     17  C   UNL     1      34.564  -2.879  15.967  0.00  0.00    +0.000 C 
ENDBRANCH  12  13
ENDBRANCH  11  12
ENDBRANCH  10  11
ENDBRANCH   2   4
BRANCH   3  18
ATOM     18  C   UNL     1      37.162   2.167  13.725  0.00  0.00    +0.000 A 
ATOM     19  C   UNL     1      36.268   2.665  14.645  0.00  0.00    +0.000 A 
ATOM     20  C   UNL     1      35.750   3.961  14.524  0.00  0.00    +0.000 A 
ATOM     21  C   UNL     1      36.146   4.743  13.464  0.00  0.00    +0.000 A 
ATOM     22  C   UNL     1      37.039   4.243  12.543  0.00  0.00    +0.000 A 
ATOM     23  C   UNL     1      37.554   2.953  12.666  0.00  0.00    +0.000 A 
BRANCH  21  24
ATOM     24  C   UNL     1      35.638   6.115  13.280  0.00  0.00    +0.000 A 
ATOM     25  C   UNL     1      35.232   7.001  14.226  0.00  0.00    +0.000 A 
ATOM     26  C   UNL     1      34.805   8.207  13.830  0.00  0.00    +0.000 A 
ATOM     27  C   UNL     1      34.350   9.245  14.669  0.00  0.00    +0.000 A 
ATOM     28  C   UNL     1      33.950  10.413  14.110  0.00  0.00    +0.000 A 
ATOM     29  C   UNL     1      33.939  10.707  12.783  0.00  0.00    +0.000 A 
ATOM     30  C   UNL     1      34.389   9.686  11.939  0.00  0.00    +0.000 A 
ATOM     31  C   UNL     1      34.810   8.461  12.485  0.00  0.00    +0.000 A 
ATOM     32  S   UNL     1      35.415   6.992  11.837  0.00  0.00    +0.000 S 
ENDBRANCH  21  24
ENDBRANCH   3  18
TORSDOF 6
ENDMDL
MODEL 4
REMARK VINA RESULT:      -7.2      5.388      9.387
REMARK  Name = 
REMARK  6 active torsions:
REMARK  status: ('A' for Active; 'I' for Inactive)
REMARK    1  A    between atoms: C_2  and  C_19
REMARK    2  A    between atoms: N_3  and  C_4
REMARK    3  A    between atoms: C_7  and  C_8
REMARK    4  A    between atoms: N_25  and  C_26
REMARK    5  A    between atoms: C_26  and  C_27
REMARK    6  A    between atoms: C_27  and  N_28
REMARK                            x       y       z     vdW  Elec       q    Type
REMARK                         _______ _______ _______ _____ _____    ______ ____
ROOT
ATOM      1  O   UNL     1      36.593   6.614  14.606  0.00  0.00    +0.000 OA
ATOM      2  C   UNL     1      35.462   6.746  14.080  0.00  0.00    +0.000 C 
ATOM      3  N   UNL     1      34.706   5.551  13.873  0.00  0.00    +0.000 NA
ENDROOT
BRANCH   2   4
ATOM      4  C   UNL     1      34.975   8.056  13.711  0.00  0.00    +0.000 A 
ATOM      5  C   UNL     1      34.493   8.958  14.632  0.00  0.00    +0.000 A 
ATOM      6  C   UNL     1      34.045  10.192  14.217  0.00  0.00    +0.000 A 
ATOM      7  C   UNL     1      34.073  10.538  12.887  0.00  0.00    +0.000 A 
ATOM      8  N   UNL     1      34.541   9.659  11.998  0.00  0.00    +0.000 NA
ATOM      9  C   UNL     1      34.986   8.441  12.388  0.00  0.00    +0.000 A 
ATOM     10  N   UNL     1      35.482   7.505  11.443  0.00  0.00    +0.000 NA
BRANCH  10  11
ATOM     11  C   UNL     1      35.498   7.894  10.048  0.00  0.00    +0.000 C 
BRANCH  11  12
ATOM     12  C   UNL     1      34.600   6.935   9.298  0.00  0.00    +0.000 C 
BRANCH  12  13
ATOM     13  N   UNL     1      33.786   7.636   8.345  0.00  0.00    +0.000 NA
ATOM     14  C   UNL     1      34.399   8.785   7.753  0.00  0.00    +0.000 C 
ATOM     15  C   UNL     1      33.874   8.889   6.336  0.00  0.00    +0.000 C 
ATOM     16  C   UNL     1      33.143   7.594   6.065  0.00  0.00    +0.000 C 
ATOM     17  C   UNL     1      33.413   6.737   7.278  0.00  0.00    +0.000 C 
ENDBRANCH  12  13
ENDBRANCH  11  12
ENDBRANCH  10  11
ENDBRANCH   2   4
BRANCH   3  18
ATOM     18  C   UNL     1      35.260   4.283  14.270  0.00  0.00    +0.000 A 
ATOM     19  C   UNL     1      36.391   3.817  13.640  0.00  0.00    +0.000 A 
ATOM     20  C   UNL     1      36.962   2.587  13.994  0.00  0.00    +0.000 A 
ATOM     21  C   UNL     1      36.376   1.840  14.989  0.00  0.00    +0.000 A 
ATOM     22  C   UNL     1      35.243   2.307  15.617  0.00  0.00    +0.000 A 
ATOM     23  C   UNL     1      34.678   3.531  15.263  0.00  0.00    +0.000 A 
BRANCH  21  24
ATOM     24  C   UNL     1      36.928   0.538  15.409  0.00  0.00    +0.000 A 
ATOM     25  C   UNL     1      38.121  -0.022  15.077  0.00  0.00    +0.000 A 
ATOM     26  C   UNL     1      38.423  -1.225  15.580  0.00  0.00    +0.000 A 
ATOM     27  C   UNL     1      39.608  -1.952  15.344  0.00  0.00    +0.000 A 
ATOM     28  C   UNL     1      39.763  -3.164  15.932  0.00  0.00    +0.000 A 
ATOM     29  C   UNL     1      38.871  -3.779  16.753  0.00  0.00    +0.000 A 
ATOM     30  C   UNL     1      37.690  -3.069  16.995  0.00  0.00    +0.000 A 
ATOM     31  C   UNL     1      37.497  -1.810  16.401  0.00  0.00    +0.000 A 
ATOM     32  S   UNL     1      36.242  -0.639  16.430  0.00  0.00    +0.000 S 
ENDBRANCH  21  24
ENDBRANCH   3  18
TORSDOF 6
ENDMDL
MODEL 5
REMARK VINA RESULT:      -7.1     26.068     29.547
REMARK  Name = 
REMARK  6 active torsions:
REMARK  status: ('A' for Active; 'I' for Inactive)
REMARK    1  A    between atoms: C_2  and  C_19
REMARK    2  A    between atoms: N_3  and  C_4
REMARK    3  A    between atoms: C_7  and  C_8
REMARK    4  A    between atoms: N_25  and  C_26
REMARK    5  A    between atoms: C_26  and  C_27
REMARK    6  A    between atoms: C_27  and  N_28
REMARK                            x       y       z     vdW  Elec       q    Type
REMARK                         _______ _______ _______ _____ _____    ______ ____
ROOT
ATOM      1  O   UNL     1      11.652   3.771   9.483  0.00  0.00    +0.000 OA
ATOM      2  C   UNL     1      10.456   3.765   9.108  0.00  0.00    +0.000 C 
ATOM      3  N   UNL     1       9.979   2.563   8.499  0.00  0.00    +0.000 NA
ENDROOT
BRANCH   2   4
ATOM      4  C   UNL     1       9.625   4.933   9.293  0.00  0.00    +0.000 A 
ATOM      5  C   UNL     1       9.661   6.015   8.444  0.00  0.00    +0.000 A 
ATOM      6  C   UNL     1       8.843   7.098   8.673  0.00  0.00    +0.000 A 
ATOM      7  C   UNL     1       7.984   7.114   9.746  0.00  0.00    +0.000 A 
ATOM      8  N   UNL     1       7.954   6.061  10.567  0.00  0.00    +0.000 NA
ATOM      9  C   UNL     1       8.751   4.988  10.357  0.00  0.00    +0.000 A 
ATOM     10  N   UNL     1       8.720   3.870  11.231  0.00  0.00    +0.000 NA
BRANCH  10  11
ATOM     11  C   UNL     1       7.808   3.913  12.354  0.00  0.00    +0.000 C 
BRANCH  11  12
ATOM     12  C   UNL     1       8.343   2.972  13.412  0.00  0.00    +0.000 C 
BRANCH  12  13
ATOM     13  N   UNL     1       7.364   1.980  13.756  0.00  0.00    +0.000 NA
ATOM     14  C   UNL     1       6.168   2.490  14.353  0.00  0.00    +0.000 C 
ATOM     15  C   UNL     1       5.031   1.594  13.908  0.00  0.00    +0.000 C 
ATOM     16  C   UNL     1       5.595   0.712  12.817  0.00  0.00    +0.000 C 
ATOM     17  C   UNL     1       6.985   1.246  12.570  0.00  0.00    +0.000 C 
ENDBRANCH  12  13
ENDBRANCH  11  12
ENDBRANCH  10  11
ENDBRANCH   2   4
BRANCH   3  18
ATOM     18  C   UNL     1      10.869   1.442   8.351  0.00  0.00    +0.000 A 
ATOM     19  C   UNL     1      11.635   1.337   7.213  0.00  0.00    +0.000 A 
ATOM     20  C   UNL     1      12.513   0.261   7.027  0.00  0.00    +0.000 A 
ATOM     21  C   UNL     1      12.605  -0.703   8.004  0.00  0.00    +0.000 A 
ATOM     22  C   UNL     1      11.836  -0.599   9.141  0.00  0.00    +0.000 A 
ATOM     23  C   UNL     1      10.964   0.474   9.323  0.00  0.00    +0.000 A 
BRANCH  21  24
ATOM     24  C   UNL     1      13.510  -1.860   7.870  0.00  0.00    +0.000 A 
ATOM     25  C   UNL     1      13.813  -2.809   8.793  0.00  0.00    +0.000 A 
ATOM     26  C   UNL     1      14.668  -3.781   8.453  0.00  0.00    +0.000 A 
ATOM     27  C   UNL     1      15.094  -4.842   9.279  0.00  0.00    +0.000 A 
ATOM     28  C   UNL     1      15.968  -5.751   8.782  0.00  0.00    +0.000 A 
ATOM     29  C   UNL     1      16.499  -5.755   7.531  0.00  0.00    +0.000 A 
ATOM     30  C   UNL     1      16.085  -4.708   6.700  0.00  0.00    +0.000 A 
ATOM     31  C   UNL     1      15.180  -3.747   7.184  0.00  0.00    +0.000 A 
ATOM     32  S   UNL     1      14.435  -2.348   6.526  0.00  0.00    +0.000 S 
ENDBRANCH  21  24
ENDBRANCH   3  18
TORSDOF 6
ENDMDL
MODEL 6
REMARK VINA RESULT:      -7.0     19.322     25.229
REMARK  Name = 
REMARK  6 active torsions:
REMARK  status: ('A' for Active; 'I' for Inactive)
REMARK    1  A    between atoms: C_2  and  C_19
REMARK    2  A    between atoms: N_3  and  C_4
REMARK    3  A    between atoms: C_7  and  C_8
REMARK    4  A    between atoms: N_25  and  C_26
REMARK    5  A    between atoms: C_26  and  C_27
REMARK    6  A    between atoms: C_27  and  N_28
REMARK                            x       y       z     vdW  Elec       q    Type
REMARK                         _______ _______ _______ _____ _____    ______ ____
ROOT
ATOM      1  O   UNL     1      28.126  16.501  20.082  0.00  0.00    +0.000 OA
ATOM      2  C   UNL     1      28.657  17.435  20.729  0.00  0.00    +0.000 C 
ATOM      3  N   UNL     1      27.874  18.616  20.913  0.00  0.00    +0.000 NA
ENDROOT
BRANCH   2   4
ATOM      4  C   UNL     1      29.998  17.293  21.250  0.00  0.00    +0.000 A 
ATOM      5  C   UNL     1      30.274  17.271  22.599  0.00  0.00    +0.000 A 
ATOM      6  C   UNL     1      31.574  17.131  23.033  0.00  0.00    +0.000 A 
ATOM      7  C   UNL     1      32.605  17.013  22.133  0.00  0.00    +0.000 A 
ATOM      8  N   UNL     1      32.331  17.036  20.826  0.00  0.00    +0.000 NA
ATOM      9  C   UNL     1      31.059  17.172  20.381  0.00  0.00    +0.000 A 
ATOM     10  N   UNL     1      30.769  17.198  18.992  0.00  0.00    +0.000 NA
BRANCH  10  11
ATOM     11  C   UNL     1      31.874  17.073  18.065  0.00  0.00    +0.000 C 
BRANCH  11  12
ATOM     12  C   UNL     1      31.356  17.426  16.688  0.00  0.00    +0.000 C 
BRANCH  12  13
ATOM     13  N   UNL     1      31.259  16.255  15.863  0.00  0.00    +0.000 NA
ATOM     14  C   UNL     1      30.257  16.313  14.844  0.00  0.00    +0.000 C 
ATOM     15  C   UNL     1      30.779  15.523  13.661  0.00  0.00    +0.000 C 
ATOM     16  C   UNL     1      32.235  15.242  13.956  0.00  0.00    +0.000 C 
ATOM     17  C   UNL     1      32.529  16.016  15.218  0.00  0.00    +0.000 C 
ENDBRANCH  12  13
ENDBRANCH  11  12
ENDBRANCH  10  11
ENDBRANCH   2   4
BRANCH   3  18
ATOM     18  C   UNL     1      26.546  18.679  20.365  0.00  0.00    +0.000 A 
ATOM     19  C   UNL     1      26.336  19.359  19.187  0.00  0.00    +0.000 A 
ATOM     20  C   UNL     1      25.058  19.447  18.618  0.00  0.00    +0.000 A 
ATOM     21  C   UNL     1      24.001  18.841  19.255  0.00  0.00    +0.000 A 
ATOM     22  C   UNL     1      24.211  18.162  20.435  0.00  0.00    +0.000 A 
ATOM     23  C   UNL     1      25.484  18.076  20.997  0.00  0.00    +0.000 A 
BRANCH  21  24
ATOM     24  C   UNL     1      22.632  18.895  18.709  0.00  0.00    +0.000 A 
ATOM     25  C   UNL     1      21.480  18.439  19.266  0.00  0.00    +0.000 A 
ATOM     26  C   UNL     1      20.337  18.596  18.587  0.00  0.00    +0.000 A 
ATOM     27  C   UNL     1      19.055  18.186  19.010  0.00  0.00    +0.000 A 
ATOM     28  C   UNL     1      17.992  18.422  18.202  0.00  0.00    +0.000 A 
ATOM     29  C   UNL     1      18.024  19.030  16.988  0.00  0.00    +0.000 A 
ATOM     30  C   UNL     1      19.290  19.442  16.556  0.00  0.00    +0.000 A 
ATOM     31  C   UNL     1      20.413  19.213  17.368  0.00  0.00    +0.000 A 
ATOM     32  S   UNL     1      22.092  19.544  17.230  0.00  0.00    +0.000 S 
ENDBRANCH  21  24
ENDBRANCH   3  18
TORSDOF 6
ENDMDL
MODEL 7
REMARK VINA RESULT:      -6.9      7.486      9.265
REMARK  Name = 
REMARK  6 active torsions:
REMARK  status: ('A' for Active; 'I' for Inactive)
REMARK    1  A    between atoms: C_2  and  C_19
REMARK    2  A    between atoms: N_3  and  C_4
REMARK    3  A    between atoms: C_7  and  C_8
REMARK    4  A    between atoms: N_25  and  C_26
REMARK    5  A    between atoms: C_26  and  C_27
REMARK    6  A    between atoms: C_27  and  N_28
REMARK                            x       y       z     vdW  Elec       q    Type
REMARK                         _______ _______ _______ _____ _____    ______ ____
ROOT
ATOM      1  O   UNL     1      37.985   7.353  16.709  0.00  0.00    +0.000 OA
ATOM      2  C   UNL     1      38.219   6.409  15.916  0.00  0.00    +0.000 C 
ATOM      3  N   UNL     1      39.384   5.625  16.177  0.00  0.00    +0.000 NA
ENDROOT
BRANCH   2   4
ATOM      4  C   UNL     1      37.335   6.154  14.802  0.00  0.00    +0.000 A 
ATOM      5  C   UNL     1      37.115   7.073  13.800  0.00  0.00    +0.000 A 
ATOM      6  C   UNL     1      36.262   6.769  12.763  0.00  0.00    +0.000 A 
ATOM      7  C   UNL     1      35.623   5.554  12.712  0.00  0.00    +0.000 A 
ATOM      8  N   UNL     1      35.840   4.667  13.687  0.00  0.00    +0.000 NA
ATOM      9  C   UNL     1      36.675   4.948  14.714  0.00  0.00    +0.000 A 
ATOM     10  N   UNL     1      36.904   4.005  15.751  0.00  0.00    +0.000 NA
BRANCH  10  11
ATOM     11  C   UNL     1      36.217   2.734  15.675  0.00  0.00    +0.000 C 
BRANCH  11  12
ATOM     12  C   UNL     1      36.117   2.185  17.081  0.00  0.00    +0.000 C 
BRANCH  12  13
ATOM     13  N   UNL     1      36.307   0.762  17.090  0.00  0.00    +0.000 NA
ATOM     14  C   UNL     1      35.416   0.037  17.942  0.00  0.00    +0.000 C 
ATOM     15  C   UNL     1      35.158  -1.302  17.281  0.00  0.00    +0.000 C 
ATOM     16  C   UNL     1      35.730  -1.195  15.885  0.00  0.00    +0.000 C 
ATOM     17  C   UNL     1      36.149   0.248  15.749  0.00  0.00    +0.000 C 
ENDBRANCH  12  13
ENDBRANCH  11  12
ENDBRANCH  10  11
ENDBRANCH   2   4
BRANCH   3  18
ATOM     18  C   UNL     1      40.214   5.942  17.310  0.00  0.00    +0.000 A 
ATOM     19  C   UNL     1      41.493   6.403  17.098  0.00  0.00    +0.000 A 
ATOM     20  C   UNL     1      42.335   6.722  18.172  0.00  0.00    +0.000 A 
ATOM     21  C   UNL     1      41.868   6.568  19.456  0.00  0.00    +0.000 A 
ATOM     22  C   UNL     1      40.588   6.105  19.667  0.00  0.00    +0.000 A 
ATOM     23  C   UNL     1      39.753   5.789  18.596  0.00  0.00    +0.000 A 
BRANCH  21  24
ATOM     24  C   UNL     1      42.703   6.887  20.629  0.00  0.00    +0.000 A 
ATOM     25  C   UNL     1      43.221   6.038  21.555  0.00  0.00    +0.000 A 
ATOM     26  C   UNL     1      43.960   6.550  22.546  0.00  0.00    +0.000 A 
ATOM     27  C   UNL     1      44.573   5.822  23.588  0.00  0.00    +0.000 A 
ATOM     28  C   UNL     1      45.294   6.492  24.520  0.00  0.00    +0.000 A 
ATOM     29  C   UNL     1      45.500   7.834  24.565  0.00  0.00    +0.000 A 
ATOM     30  C   UNL     1      44.898   8.569  23.537  0.00  0.00    +0.000 A 
ATOM     31  C   UNL     1      44.143   7.906  22.555  0.00  0.00    +0.000 A 
ATOM     32  S   UNL     1      43.265   8.402  21.166  0.00  0.00    +0.000 S 
ENDBRANCH  21  24
ENDBRANCH   3  18
TORSDOF 6
ENDMDL
MODEL 8
REMARK VINA RESULT:      -6.8      6.756     10.265
REMARK  Name = 
REMARK  6 active torsions:
REMARK  status: ('A' for Active; 'I' for Inactive)
REMARK    1  A    between atoms: C_2  and  C_19
REMARK    2  A    between atoms: N_3  and  C_4
REMARK    3  A    between atoms: C_7  and  C_8
REMARK    4  A    between atoms: N_25  and  C_26
REMARK    5  A    between atoms: C_26  and  C_27
REMARK    6  A    between atoms: C_27  and  N_28
REMARK                            x       y       z     vdW  Elec       q    Type
REMARK                         _______ _______ _______ _____ _____    ______ ____
ROOT
ATOM      1  O   UNL     1      36.540   0.492  11.573  0.00  0.00    +0.000 OA
ATOM      2  C   UNL     1      37.782   0.584  11.728  0.00  0.00    +0.000 C 
ATOM      3  N   UNL     1      38.505   1.290  10.717  0.00  0.00    +0.000 NA
ENDROOT
BRANCH   2   4
ATOM      4  C   UNL     1      38.421  -0.007  12.881  0.00  0.00    +0.000 A 
ATOM      5  C   UNL     1      38.918  -1.290  12.881  0.00  0.00    +0.000 A 
ATOM      6  C   UNL     1      39.518  -1.796  14.012  0.00  0.00    +0.000 A 
ATOM      7  C   UNL     1      39.629  -1.032  15.149  0.00  0.00    +0.000 A 
ATOM      8  N   UNL     1      39.144   0.212  15.144  0.00  0.00    +0.000 NA
ATOM      9  C   UNL     1      38.551   0.726  14.040  0.00  0.00    +0.000 A 
ATOM     10  N   UNL     1      38.034   2.048  14.036  0.00  0.00    +0.000 NA
BRANCH  10  11
ATOM     11  C   UNL     1      38.161   2.830  15.247  0.00  0.00    +0.000 C 
BRANCH  11  12
ATOM     12  C   UNL     1      38.220   4.288  14.844  0.00  0.00    +0.000 C 
BRANCH  12  13
ATOM     13  N   UNL     1      38.395   5.129  15.994  0.00  0.00    +0.000 NA
ATOM     14  C   UNL     1      38.057   4.525  17.245  0.00  0.00    +0.000 C 
ATOM     15  C   UNL     1      38.991   5.104  18.287  0.00  0.00    +0.000 C 
ATOM     16  C   UNL     1      40.051   5.864  17.522  0.00  0.00    +0.000 C 
ATOM     17  C   UNL     1      39.773   5.557  16.070  0.00  0.00    +0.000 C 
ENDBRANCH  12  13
ENDBRANCH  11  12
ENDBRANCH  10  11
ENDBRANCH   2   4
BRANCH   3  18
ATOM     18  C   UNL     1      37.795   1.852   9.598  0.00  0.00    +0.000 A 
ATOM     19  C   UNL     1      37.804   1.186   8.394  0.00  0.00    +0.000 A 
ATOM     20  C   UNL     1      37.128   1.698   7.278  0.00  0.00    +0.000 A 
ATOM     21  C   UNL     1      36.447   2.887   7.397  0.00  0.00    +0.000 A 
ATOM     22  C   UNL     1      36.440   3.553   8.603  0.00  0.00    +0.000 A 
ATOM     23  C   UNL     1      37.113   3.040   9.711  0.00  0.00    +0.000 A 
BRANCH  21  24
ATOM     24  C   UNL     1      35.714   3.479   6.262  0.00  0.00    +0.000 A 
ATOM     25  C   UNL     1      35.373   2.900   5.082  0.00  0.00    +0.000 A 
ATOM     26  C   UNL     1      34.699   3.630   4.184  0.00  0.00    +0.000 A 
ATOM     27  C   UNL     1      34.265   3.195   2.915  0.00  0.00    +0.000 A 
ATOM     28  C   UNL     1      33.590   4.061   2.120  0.00  0.00    +0.000 A 
ATOM     29  C   UNL     1      33.273   5.348   2.420  0.00  0.00    +0.000 A 
ATOM     30  C   UNL     1      33.698   5.793   3.677  0.00  0.00    +0.000 A 
ATOM     31  C   UNL     1      34.401   4.921   4.526  0.00  0.00    +0.000 A 
ATOM     32  S   UNL     1      35.082   5.051   6.096  0.00  0.00    +0.000 S 
ENDBRANCH  21  24
ENDBRANCH   3  18
TORSDOF 6
ENDMDL
MODEL 9
REMARK VINA RESULT:      -6.8     24.263     28.152
REMARK  Name = 
REMARK  6 active torsions:
REMARK  status: ('A' for Active; 'I' for Inactive)
REMARK    1  A    between atoms: C_2  and  C_19
REMARK    2  A    between atoms: N_3  and  C_4
REMARK    3  A    between atoms: C_7  and  C_8
REMARK    4  A    between atoms: N_25  and  C_26
REMARK    5  A    between atoms: C_26  and  C_27
REMARK    6  A    between atoms: C_27  and  N_28
REMARK                            x       y       z     vdW  Elec       q    Type
REMARK                         _______ _______ _______ _____ _____    ______ ____
ROOT
ATOM      1  O   UNL     1      12.667  -0.403   9.402  0.00  0.00    +0.000 OA
ATOM      2  C   UNL     1      11.525  -0.459   8.885  0.00  0.00    +0.000 C 
ATOM      3  N   UNL     1      11.470  -0.627   7.467  0.00  0.00    +0.000 NA
ENDROOT
BRANCH   2   4
ATOM      4  C   UNL     1      10.343  -0.356   9.710  0.00  0.00    +0.000 A 
ATOM      5  C   UNL     1       9.633  -1.456  10.134  0.00  0.00    +0.000 A 
ATOM      6  C   UNL     1       8.514  -1.292  10.921  0.00  0.00    +0.000 A 
ATOM      7  C   UNL     1       8.094  -0.037  11.290  0.00  0.00    +0.000 A 
ATOM      8  N   UNL     1       8.787   1.027  10.874  0.00  0.00    +0.000 NA
ATOM      9  C   UNL     1       9.889   0.884  10.101  0.00  0.00    +0.000 A 
ATOM     10  N   UNL     1      10.623   2.015   9.658  0.00  0.00    +0.000 NA
BRANCH  10  11
ATOM     11  C   UNL     1      10.159   3.326  10.059  0.00  0.00    +0.000 C 
BRANCH  11  12
ATOM     12  C   UNL     1      10.629   4.315   9.015  0.00  0.00    +0.000 C 
BRANCH  12  13
ATOM     13  N   UNL     1      10.110   5.627   9.284  0.00  0.00    +0.000 NA
ATOM     14  C   UNL     1       9.643   6.340   8.135  0.00  0.00    +0.000 C 
ATOM     15  C   UNL     1       8.478   7.197   8.587  0.00  0.00    +0.000 C 
ATOM     16  C   UNL     1       8.136   6.735   9.985  0.00  0.00    +0.000 C 
ATOM     17  C   UNL     1       9.012   5.527  10.217  0.00  0.00    +0.000 C 
ENDBRANCH  12  13
ENDBRANCH  11  12
ENDBRANCH  10  11
ENDBRANCH   2   4
BRANCH   3  18
ATOM     18  C   UNL     1      12.693  -0.723   6.716  0.00  0.00    +0.000 A 
ATOM     19  C   UNL     1      13.726  -1.489   7.207  0.00  0.00    +0.000 A 
ATOM     20  C   UNL     1      14.935  -1.609   6.508  0.00  0.00    +0.000 A 
ATOM     21  C   UNL     1      15.084  -0.946   5.312  0.00  0.00    +0.000 A 
ATOM     22  C   UNL     1      14.051  -0.180   4.823  0.00  0.00    +0.000 A 
ATOM     23  C   UNL     1      12.849  -0.063   5.520  0.00  0.00    +0.000 A 
BRANCH  21  24
ATOM     24  C   UNL     1      16.330  -1.032   4.528  0.00  0.00    +0.000 A 
ATOM     25  C   UNL     1      17.328  -0.117   4.423  0.00  0.00    +0.000 A 
ATOM     26  C   UNL     1      18.381  -0.407   3.648  0.00  0.00    +0.000 A 
ATOM     27  C   UNL     1      19.501   0.420   3.423  0.00  0.00    +0.000 A 
ATOM     28  C   UNL     1      20.490  -0.022   2.607  0.00  0.00    +0.000 A 
ATOM     29  C   UNL     1      20.523  -1.215   1.958  0.00  0.00    +0.000 A 
ATOM     30  C   UNL     1      19.417  -2.046   2.172  0.00  0.00    +0.000 A 
ATOM     31  C   UNL     1      18.374  -1.618   3.011  0.00  0.00    +0.000 A 
ATOM     32  S   UNL     1      16.886  -2.297   3.532  0.00  0.00    +0.000 S 
ENDBRANCH  21  24
ENDBRANCH   3  18
TORSDOF 6
ENDMDL
MODEL 10
REMARK VINA RESULT:      -6.7      6.047      9.341
REMARK  Name = 
REMARK  6 active torsions:
REMARK  status: ('A' for Active; 'I' for Inactive)
REMARK    1  A    between atoms: C_2  and  C_19
REMARK    2  A    between atoms: N_3  and  C_4
REMARK    3  A    between atoms: C_7  and  C_8
REMARK    4  A    between atoms: N_25  and  C_26
REMARK    5  A    between atoms: C_26  and  C_27
REMARK    6  A    between atoms: C_27  and  N_28
REMARK                            x       y       z     vdW  Elec       q    Type
REMARK                         _______ _______ _______ _____ _____    ______ ____
ROOT
ATOM      1  O   UNL     1      39.646  -0.864  10.378  0.00  0.00    +0.000 OA
ATOM      2  C   UNL     1      39.836  -0.200  11.425  0.00  0.00    +0.000 C 
ATOM      3  N   UNL     1      39.268   1.110  11.467  0.00  0.00    +0.000 NA
ENDROOT
BRANCH   2   4
ATOM      4  C   UNL     1      40.599  -0.760  12.517  0.00  0.00    +0.000 A 
ATOM      5  C   UNL     1      41.975  -0.736  12.554  0.00  0.00    +0.000 A 
ATOM      6  C   UNL     1      42.644  -1.285  13.625  0.00  0.00    +0.000 A 
ATOM      7  C   UNL     1      41.954  -1.860  14.664  0.00  0.00    +0.000 A 
ATOM      8  N   UNL     1      40.619  -1.881  14.623  0.00  0.00    +0.000 NA
ATOM      9  C   UNL     1      39.945  -1.346  13.578  0.00  0.00    +0.000 A 
ATOM     10  N   UNL     1      38.526  -1.370  13.534  0.00  0.00    +0.000 NA
BRANCH  10  11
ATOM     11  C   UNL     1      37.823  -1.984  14.641  0.00  0.00    +0.000 C 
BRANCH  11  12
ATOM     12  C   UNL     1      37.004  -0.904  15.315  0.00  0.00    +0.000 C 
BRANCH  12  13
ATOM     13  N   UNL     1      37.436  -0.706  16.669  0.00  0.00    +0.000 NA
ATOM     14  C   UNL     1      36.406  -0.318  17.583  0.00  0.00    +0.000 C 
ATOM     15  C   UNL     1      36.753  -0.925  18.928  0.00  0.00    +0.000 C 
ATOM     16  C   UNL     1      37.883  -1.896  18.669  0.00  0.00    +0.000 C 
ATOM     17  C   UNL     1      38.031  -1.924  17.167  0.00  0.00    +0.000 C 
ENDBRANCH  12  13
ENDBRANCH  11  12
ENDBRANCH  10  11
ENDBRANCH   2   4
BRANCH   3  18
ATOM     18  C   UNL     1      38.520   1.596  10.338  0.00  0.00    +0.000 A 
ATOM     19  C   UNL     1      37.154   1.428  10.313  0.00  0.00    +0.000 A 
ATOM     20  C   UNL     1      36.388   1.884   9.233  0.00  0.00    +0.000 A 
ATOM     21  C   UNL     1      37.019   2.509   8.182  0.00  0.00    +0.000 A 
ATOM     22  C   UNL     1      38.385   2.674   8.207  0.00  0.00    +0.000 A 
ATOM     23  C   UNL     1      39.145   2.220   9.284  0.00  0.00    +0.000 A 
BRANCH  21  24
ATOM     24  C   UNL     1      36.270   3.012   7.016  0.00  0.00    +0.000 A 
ATOM     25  C   UNL     1      35.987   2.373   5.851  0.00  0.00    +0.000 A 
ATOM     26  C   UNL     1      35.283   3.027   4.919  0.00  0.00    +0.000 A 
ATOM     27  C   UNL     1      34.901   2.522   3.658  0.00  0.00    +0.000 A 
ATOM     28  C   UNL     1      34.185   3.314   2.824  0.00  0.00    +0.000 A 
ATOM     29  C   UNL     1      33.780   4.587   3.074  0.00  0.00    +0.000 A 
ATOM     30  C   UNL     1      34.152   5.101   4.321  0.00  0.00    +0.000 A 
ATOM     31  C   UNL     1      34.895   4.307   5.211  0.00  0.00    +0.000 A 
ATOM     32  S   UNL     1      35.538   4.533   6.786  0.00  0.00    +0.000 S 
ENDBRANCH  21  24
ENDBRANCH   3  18
TORSDOF 6
ENDMDL
