MODEL 1
REMARK VINA RESULT:      -8.0      0.000      0.000
REMARK  Name = 
REMARK  1 active torsions:
REMARK  status: ('A' for Active; 'I' for Inactive)
REMARK    1  A    between atoms: C_4  and  N_5
REMARK                            x       y       z     vdW  Elec       q    Type
REMARK                         _______ _______ _______ _____ _____    ______ ____
ROOT
ATOM      1  N   UNL     1      14.941  11.858  35.883  0.00  0.00    +0.000 N 
ATOM      2  C   UNL     1      14.100  11.520  36.878  0.00  0.00    +0.000 A 
ATOM      3  C   UNL     1      12.630  11.710  36.873  0.00  0.00    +0.000 C 
ATOM      4  C   UNL     1      14.814  10.959  37.924  0.00  0.00    +0.000 A 
ATOM      5  C   UNL     1      14.450  10.451  39.156  0.00  0.00    +0.000 A 
ATOM      6  C   UNL     1      13.019  10.450  39.568  0.00  0.00    +0.000 C 
ATOM      7  N   UNL     1      15.409   9.964  39.970  0.00  0.00    +0.000 NA
ATOM      8  N   UNL     1      16.675   9.972  39.591  0.00  0.00    +0.000 NA
ATOM      9  C   UNL     1      17.104  10.445  38.415  0.00  0.00    +0.000 A 
ATOM     10  C   UNL     1      18.528  10.447  38.004  0.00  0.00    +0.000 C 
ATOM     11  C   UNL     1      16.132  10.955  37.556  0.00  0.00    +0.000 A 
ATOM     12  C   UNL     1      16.178  11.520  36.284  0.00  0.00    +0.000 A 
ATOM     13  C   UNL     1      17.458  11.689  35.543  0.00  0.00    +0.000 C 
ENDROOT
BRANCH   1  17
ATOM     14  C   UNL     1      14.956  11.774  30.930  0.00  0.00    +0.000 C 
ATOM     15  C   UNL     1      14.611  12.430  32.218  0.00  0.00    +0.000 A 
ATOM     16  C   UNL     1      14.930  11.850  33.438  0.00  0.00    +0.000 A 
ATOM     17  C   UNL     1      14.610  12.463  34.630  0.00  0.00    +0.000 A 
ATOM     18  C   UNL     1      13.958  13.676  34.560  0.00  0.00    +0.000 A 
ATOM     19  C   UNL     1      13.641  14.254  33.336  0.00  0.00    +0.000 A 
ATOM     20  C   UNL     1      13.960  13.645  32.143  0.00  0.00    +0.000 A 
ATOM     21  N   UNL     1      13.643  14.220  30.881  0.00  0.00    +0.000 NA
ENDBRANCH   1  17
TORSDOF 1
ENDMDL
MODEL 2
REMARK VINA RESULT:      -7.5      1.823      6.791
REMARK  Name = 
REMARK  1 active torsions:
REMARK  status: ('A' for Active; 'I' for Inactive)
REMARK    1  A    between atoms: C_4  and  N_5
REMARK                            x       y       z     vdW  Elec       q    Type
REMARK                         _______ _______ _______ _____ _____    ______ ____
ROOT
ATOM      1  N   UNL     1      16.036  11.491  34.836  0.00  0.00    +0.000 N 
ATOM      2  C   UNL     1      16.010  11.268  33.508  0.00  0.00    +0.000 A 
ATOM      3  C   UNL     1      16.795  10.239  32.786  0.00  0.00    +0.000 C 
ATOM      4  C   UNL     1      15.129  12.149  32.903  0.00  0.00    +0.000 A 
ATOM      5  C   UNL     1      14.733  12.345  31.594  0.00  0.00    +0.000 A 
ATOM      6  C   UNL     1      15.300  11.497  30.509  0.00  0.00    +0.000 C 
ATOM      7  N   UNL     1      13.834  13.313  31.323  0.00  0.00    +0.000 NA
ATOM      8  N   UNL     1      13.340  14.059  32.296  0.00  0.00    +0.000 NA
ATOM      9  C   UNL     1      13.673  13.928  33.586  0.00  0.00    +0.000 A 
ATOM     10  C   UNL     1      13.111  14.771  34.666  0.00  0.00    +0.000 C 
ATOM     11  C   UNL     1      14.602  12.935  33.892  0.00  0.00    +0.000 A 
ATOM     12  C   UNL     1      15.185  12.502  35.080  0.00  0.00    +0.000 A 
ATOM     13  C   UNL     1      14.858  13.124  36.392  0.00  0.00    +0.000 C 
ENDROOT
BRANCH   1  17
ATOM     14  C   UNL     1      16.674   9.940  39.497  0.00  0.00    +0.000 C 
ATOM     15  C   UNL     1      17.130  10.041  38.086  0.00  0.00    +0.000 A 
ATOM     16  C   UNL     1      16.384  10.709  37.126  0.00  0.00    +0.000 A 
ATOM     17  C   UNL     1      16.812  10.800  35.819  0.00  0.00    +0.000 A 
ATOM     18  C   UNL     1      18.013  10.199  35.506  0.00  0.00    +0.000 A 
ATOM     19  C   UNL     1      18.758   9.531  36.470  0.00  0.00    +0.000 A 
ATOM     20  C   UNL     1      18.333   9.438  37.777  0.00  0.00    +0.000 A 
ATOM     21  N   UNL     1      19.081   8.758  38.779  0.00  0.00    +0.000 NA
ENDBRANCH   1  17
TORSDOF 1
ENDMDL
MODEL 3
REMARK VINA RESULT:      -7.4      1.812      6.482
REMARK  Name = 
REMARK  1 active torsions:
REMARK  status: ('A' for Active; 'I' for Inactive)
REMARK    1  A    between atoms: C_4  and  N_5
REMARK                            x       y       z     vdW  Elec       q    Type
REMARK                         _______ _______ _______ _____ _____    ______ ____
ROOT
ATOM      1  N   UNL     1      16.020  11.505  34.940  0.00  0.00    +0.000 N 
ATOM      2  C   UNL     1      15.150  12.509  35.160  0.00  0.00    +0.000 A 
ATOM      3  C   UNL     1      14.815  13.093  36.481  0.00  0.00    +0.000 C 
ATOM      4  C   UNL     1      14.606  12.928  33.957  0.00  0.00    +0.000 A 
ATOM      5  C   UNL     1      13.686  13.902  33.621  0.00  0.00    +0.000 A 
ATOM      6  C   UNL     1      13.076  14.749  34.683  0.00  0.00    +0.000 C 
ATOM      7  N   UNL     1      13.354  14.066  32.324  0.00  0.00    +0.000 NA
ATOM      8  N   UNL     1      13.904  13.306  31.392  0.00  0.00    +0.000 NA
ATOM      9  C   UNL     1      14.801  12.345  31.640  0.00  0.00    +0.000 A 
ATOM     10  C   UNL     1      15.408  11.500  30.584  0.00  0.00    +0.000 C 
ATOM     11  C   UNL     1      15.159  12.155  32.973  0.00  0.00    +0.000 A 
ATOM     12  C   UNL     1      16.033  11.281  33.615  0.00  0.00    +0.000 A 
ATOM     13  C   UNL     1      16.831  10.272  32.867  0.00  0.00    +0.000 C 
ENDROOT
BRANCH   1  17
ATOM     14  C   UNL     1      16.693   9.938  39.591  0.00  0.00    +0.000 C 
ATOM     15  C   UNL     1      17.129  10.027  38.173  0.00  0.00    +0.000 A 
ATOM     16  C   UNL     1      16.385  10.715  37.225  0.00  0.00    +0.000 A 
ATOM     17  C   UNL     1      16.794  10.795  35.912  0.00  0.00    +0.000 A 
ATOM     18  C   UNL     1      17.974  10.164  35.579  0.00  0.00    +0.000 A 
ATOM     19  C   UNL     1      18.717   9.477  36.531  0.00  0.00    +0.000 A 
ATOM     20  C   UNL     1      18.311   9.395  37.845  0.00  0.00    +0.000 A 
ATOM     21  N   UNL     1      19.058   8.696  38.835  0.00  0.00    +0.000 NA
ENDBRANCH   1  17
TORSDOF 1
ENDMDL
MODEL 4
REMARK VINA RESULT:      -7.3      2.379      6.184
REMARK  Name = 
REMARK  1 active torsions:
REMARK  status: ('A' for Active; 'I' for Inactive)
REMARK    1  A    between atoms: C_4  and  N_5
REMARK                            x       y       z     vdW  Elec       q    Type
REMARK                         _______ _______ _______ _____ _____    ______ ____
ROOT
ATOM      1  N   UNL     1      17.105  11.253  37.470  0.00  0.00    +0.000 N 
ATOM      2  C   UNL     1      16.408  11.943  36.548  0.00  0.00    +0.000 A 
ATOM      3  C   UNL     1      16.982  12.660  35.383  0.00  0.00    +0.000 C 
ATOM      4  C   UNL     1      15.056  11.887  36.844  0.00  0.00    +0.000 A 
ATOM      5  C   UNL     1      13.930  12.409  36.238  0.00  0.00    +0.000 A 
ATOM      6  C   UNL     1      14.061  13.223  34.998  0.00  0.00    +0.000 C 
ATOM      7  N   UNL     1      12.722  12.169  36.789  0.00  0.00    +0.000 NA
ATOM      8  N   UNL     1      12.622  11.444  37.890  0.00  0.00    +0.000 NA
ATOM      9  C   UNL     1      13.665  10.906  38.533  0.00  0.00    +0.000 A 
ATOM     10  C   UNL     1      13.537  10.096  39.767  0.00  0.00    +0.000 C 
ATOM     11  C   UNL     1      14.924  11.140  37.983  0.00  0.00    +0.000 A 
ATOM     12  C   UNL     1      16.214  10.762  38.347  0.00  0.00    +0.000 A 
ATOM     13  C   UNL     1      16.481   9.930  39.552  0.00  0.00    +0.000 C 
ENDROOT
BRANCH   1  17
ATOM     14  C   UNL     1      21.592  12.797  38.892  0.00  0.00    +0.000 C 
ATOM     15  C   UNL     1      20.710  11.808  38.218  0.00  0.00    +0.000 A 
ATOM     16  C   UNL     1      19.335  11.984  38.156  0.00  0.00    +0.000 A 
ATOM     17  C   UNL     1      18.522  11.065  37.529  0.00  0.00    +0.000 A 
ATOM     18  C   UNL     1      19.132   9.963  36.967  0.00  0.00    +0.000 A 
ATOM     19  C   UNL     1      20.509   9.791  37.031  0.00  0.00    +0.000 A 
ATOM     20  C   UNL     1      21.325  10.708  37.657  0.00  0.00    +0.000 A 
ATOM     21  N   UNL     1      22.737  10.549  37.733  0.00  0.00    +0.000 NA
ENDBRANCH   1  17
TORSDOF 1
ENDMDL
MODEL 5
REMARK VINA RESULT:      -7.2      3.308      6.367
REMARK  Name = 
REMARK  1 active torsions:
REMARK  status: ('A' for Active; 'I' for Inactive)
REMARK    1  A    between atoms: C_4  and  N_5
REMARK                            x       y       z     vdW  Elec       q    Type
REMARK                         _______ _______ _______ _____ _____    ______ ____
ROOT
ATOM      1  N   UNL     1      18.234  10.638  38.157  0.00  0.00    +0.000 N 
ATOM      2  C   UNL     1      17.205  11.227  37.521  0.00  0.00    +0.000 A 
ATOM      3  C   UNL     1      17.301  12.045  36.288  0.00  0.00    +0.000 C 
ATOM      4  C   UNL     1      16.023  10.954  38.190  0.00  0.00    +0.000 A 
ATOM      5  C   UNL     1      14.705  11.305  37.969  0.00  0.00    +0.000 A 
ATOM      6  C   UNL     1      14.346  12.153  36.798  0.00  0.00    +0.000 C 
ATOM      7  N   UNL     1      13.762  10.869  38.828  0.00  0.00    +0.000 NA
ATOM      8  N   UNL     1      14.095  10.118  39.863  0.00  0.00    +0.000 NA
ATOM      9  C   UNL     1      15.348   9.737  40.142  0.00  0.00    +0.000 A 
ATOM     10  C   UNL     1      15.707   8.895  41.307  0.00  0.00    +0.000 C 
ATOM     11  C   UNL     1      16.342  10.176  39.269  0.00  0.00    +0.000 A 
ATOM     12  C   UNL     1      17.722   9.997  39.221  0.00  0.00    +0.000 A 
ATOM     13  C   UNL     1      18.449   9.195  40.243  0.00  0.00    +0.000 C 
ENDROOT
BRANCH   1  17
ATOM     14  C   UNL     1      22.728  12.690  38.526  0.00  0.00    +0.000 C 
ATOM     15  C   UNL     1      21.809  11.664  37.967  0.00  0.00    +0.000 A 
ATOM     16  C   UNL     1      20.465  11.624  38.314  0.00  0.00    +0.000 A 
ATOM     17  C   UNL     1      19.617  10.672  37.793  0.00  0.00    +0.000 A 
ATOM     18  C   UNL     1      20.159   9.759  36.912  0.00  0.00    +0.000 A 
ATOM     19  C   UNL     1      21.504   9.803  36.566  0.00  0.00    +0.000 A 
ATOM     20  C   UNL     1      22.355  10.754  37.086  0.00  0.00    +0.000 A 
ATOM     21  N   UNL     1      23.735  10.814  36.744  0.00  0.00    +0.000 NA
ENDBRANCH   1  17
TORSDOF 1
ENDMDL
MODEL 6
REMARK VINA RESULT:      -7.2     18.110     20.127
REMARK  Name = 
REMARK  1 active torsions:
REMARK  status: ('A' for Active; 'I' for Inactive)
REMARK    1  A    between atoms: C_4  and  N_5
REMARK                            x       y       z     vdW  Elec       q    Type
REMARK                         _______ _______ _______ _____ _____    ______ ____
ROOT
ATOM      1  N   UNL     1      27.376  24.339  26.517  0.00  0.00    +0.000 N 
ATOM      2  C   UNL     1      27.425  23.351  27.429  0.00  0.00    +0.000 A 
ATOM      3  C   UNL     1      28.088  22.037  27.250  0.00  0.00    +0.000 C 
ATOM      4  C   UNL     1      26.760  23.743  28.579  0.00  0.00    +0.000 A 
ATOM      5  C   UNL     1      26.518  23.126  29.791  0.00  0.00    +0.000 A 
ATOM      6  C   UNL     1      27.025  21.748  30.041  0.00  0.00    +0.000 C 
ATOM      7  N   UNL     1      25.818  23.791  30.733  0.00  0.00    +0.000 NA
ATOM      8  N   UNL     1      25.374  25.014  30.498  0.00  0.00    +0.000 NA
ATOM      9  C   UNL     1      25.569  25.675  29.351  0.00  0.00    +0.000 A 
ATOM     10  C   UNL     1      25.065  27.046  29.101  0.00  0.00    +0.000 C 
ATOM     11  C   UNL     1      26.289  25.009  28.361  0.00  0.00    +0.000 A 
ATOM     12  C   UNL     1      26.688  25.351  27.072  0.00  0.00    +0.000 A 
ATOM     13  C   UNL     1      26.357  26.671  26.468  0.00  0.00    +0.000 C 
ENDROOT
BRANCH   1  17
ATOM     14  C   UNL     1      26.845  23.871  21.614  0.00  0.00    +0.000 C 
ATOM     15  C   UNL     1      27.689  24.113  22.813  0.00  0.00    +0.000 A 
ATOM     16  C   UNL     1      27.152  24.114  24.093  0.00  0.00    +0.000 A 
ATOM     17  C   UNL     1      27.938  24.338  25.201  0.00  0.00    +0.000 A 
ATOM     18  C   UNL     1      29.282  24.561  24.986  0.00  0.00    +0.000 A 
ATOM     19  C   UNL     1      29.817  24.558  23.704  0.00  0.00    +0.000 A 
ATOM     20  C   UNL     1      29.034  24.335  22.593  0.00  0.00    +0.000 A 
ATOM     21  N   UNL     1      29.562  24.328  21.272  0.00  0.00    +0.000 NA
ENDBRANCH   1  17
TORSDOF 1
ENDMDL
MODEL 7
REMARK VINA RESULT:      -7.1     18.128     20.093
REMARK  Name = 
REMARK  1 active torsions:
REMARK  status: ('A' for Active; 'I' for Inactive)
REMARK    1  A    between atoms: C_4  and  N_5
REMARK                            x       y       z     vdW  Elec       q    Type
REMARK                         _______ _______ _______ _____ _____    ______ ____
ROOT
ATOM      1  N   UNL     1      27.354  24.421  26.515  0.00  0.00    +0.000 N 
ATOM      2  C   UNL     1      26.667  25.423  27.094  0.00  0.00    +0.000 A 
ATOM      3  C   UNL     1      26.356  26.734  26.473  0.00  0.00    +0.000 C 
ATOM      4  C   UNL     1      26.283  25.051  28.371  0.00  0.00    +0.000 A 
ATOM      5  C   UNL     1      25.574  25.687  29.372  0.00  0.00    +0.000 A 
ATOM      6  C   UNL     1      25.059  27.068  29.158  0.00  0.00    +0.000 C 
ATOM      7  N   UNL     1      25.362  25.038  30.535  0.00  0.00    +0.000 NA
ATOM      8  N   UNL     1      25.825  23.813  30.711  0.00  0.00    +0.000 NA
ATOM      9  C   UNL     1      26.518  23.132  29.790  0.00  0.00    +0.000 A 
ATOM     10  C   UNL     1      27.032  21.759  30.002  0.00  0.00    +0.000 C 
ATOM     11  C   UNL     1      26.751  23.782  28.579  0.00  0.00    +0.000 A 
ATOM     12  C   UNL     1      27.412  23.419  27.409  0.00  0.00    +0.000 A 
ATOM     13  C   UNL     1      28.064  22.090  27.251  0.00  0.00    +0.000 C 
ENDROOT
BRANCH   1  17
ATOM     14  C   UNL     1      26.856  23.869  21.617  0.00  0.00    +0.000 C 
ATOM     15  C   UNL     1      27.692  24.133  22.818  0.00  0.00    +0.000 A 
ATOM     16  C   UNL     1      27.146  24.155  24.094  0.00  0.00    +0.000 A 
ATOM     17  C   UNL     1      27.924  24.400  25.204  0.00  0.00    +0.000 A 
ATOM     18  C   UNL     1      29.269  24.623  24.994  0.00  0.00    +0.000 A 
ATOM     19  C   UNL     1      29.812  24.600  23.715  0.00  0.00    +0.000 A 
ATOM     20  C   UNL     1      29.036  24.356  22.603  0.00  0.00    +0.000 A 
ATOM     21  N   UNL     1      29.574  24.329  21.285  0.00  0.00    +0.000 NA
ENDBRANCH   1  17
TORSDOF 1
ENDMDL
MODEL 8
REMARK VINA RESULT:      -6.6     18.221     19.858
REMARK  Name = 
REMARK  1 active torsions:
REMARK  status: ('A' for Active; 'I' for Inactive)
REMARK    1  A    between atoms: C_4  and  N_5
REMARK                            x       y       z     vdW  Elec       q    Type
REMARK                         _______ _______ _______ _____ _____    ______ ____
ROOT
ATOM      1  N   UNL     1      27.985  23.206  26.781  0.00  0.00    +0.000 N 
ATOM      2  C   UNL     1      29.207  22.788  27.161  0.00  0.00    +0.000 A 
ATOM      3  C   UNL     1      30.273  22.290  26.258  0.00  0.00    +0.000 C 
ATOM      4  C   UNL     1      29.331  22.892  28.536  0.00  0.00    +0.000 A 
ATOM      5  C   UNL     1      30.352  22.605  29.421  0.00  0.00    +0.000 A 
ATOM      6  C   UNL     1      31.645  22.065  28.916  0.00  0.00    +0.000 C 
ATOM      7  N   UNL     1      30.155  22.822  30.738  0.00  0.00    +0.000 NA
ATOM      8  N   UNL     1      29.002  23.302  31.171  0.00  0.00    +0.000 NA
ATOM      9  C   UNL     1      27.968  23.604  30.376  0.00  0.00    +0.000 A 
ATOM     10  C   UNL     1      26.681  24.141  30.877  0.00  0.00    +0.000 C 
ATOM     11  C   UNL     1      28.147  23.388  29.011  0.00  0.00    +0.000 A 
ATOM     12  C   UNL     1      27.332  23.572  27.897  0.00  0.00    +0.000 A 
ATOM     13  C   UNL     1      25.947  24.104  28.013  0.00  0.00    +0.000 C 
ENDROOT
BRANCH   1  17
ATOM     14  C   UNL     1      28.594  24.082  21.943  0.00  0.00    +0.000 C 
ATOM     15  C   UNL     1      27.744  23.683  23.096  0.00  0.00    +0.000 A 
ATOM     16  C   UNL     1      28.249  23.629  24.388  0.00  0.00    +0.000 A 
ATOM     17  C   UNL     1      27.457  23.260  25.453  0.00  0.00    +0.000 A 
ATOM     18  C   UNL     1      26.142  22.945  25.182  0.00  0.00    +0.000 A 
ATOM     19  C   UNL     1      25.640  23.001  23.887  0.00  0.00    +0.000 A 
ATOM     20  C   UNL     1      26.429  23.370  22.820  0.00  0.00    +0.000 A 
ATOM     21  N   UNL     1      25.933  23.432  21.487  0.00  0.00    +0.000 NA
ENDBRANCH   1  17
TORSDOF 1
ENDMDL
MODEL 9
REMARK VINA RESULT:      -6.6     23.319     26.131
REMARK  Name = 
REMARK  1 active torsions:
REMARK  status: ('A' for Active; 'I' for Inactive)
REMARK    1  A    between atoms: C_4  and  N_5
REMARK                            x       y       z     vdW  Elec       q    Type
REMARK                         _______ _______ _______ _____ _____    ______ ____
ROOT
ATOM      1  N   UNL     1      33.075  -5.898  32.126  0.00  0.00    +0.000 N 
ATOM      2  C   UNL     1      33.813  -6.319  31.082  0.00  0.00    +0.000 A 
ATOM      3  C   UNL     1      35.220  -5.940  30.806  0.00  0.00    +0.000 C 
ATOM      4  C   UNL     1      33.062  -7.171  30.291  0.00  0.00    +0.000 A 
ATOM      5  C   UNL     1      33.329  -7.868  29.128  0.00  0.00    +0.000 A 
ATOM      6  C   UNL     1      34.670  -7.765  28.489  0.00  0.00    +0.000 C 
ATOM      7  N   UNL     1      32.358  -8.633  28.588  0.00  0.00    +0.000 NA
ATOM      8  N   UNL     1      31.172  -8.715  29.166  0.00  0.00    +0.000 NA
ATOM      9  C   UNL     1      30.839  -8.072  30.292  0.00  0.00    +0.000 A 
ATOM     10  C   UNL     1      29.505  -8.173  30.928  0.00  0.00    +0.000 C 
ATOM     11  C   UNL     1      31.826  -7.273  30.868  0.00  0.00    +0.000 A 
ATOM     12  C   UNL     1      31.865  -6.471  32.006  0.00  0.00    +0.000 A 
ATOM     13  C   UNL     1      30.690  -6.323  32.908  0.00  0.00    +0.000 C 
ENDROOT
BRANCH   1  17
ATOM     14  C   UNL     1      33.669  -1.303  33.878  0.00  0.00    +0.000 C 
ATOM     15  C   UNL     1      33.767  -2.777  34.036  0.00  0.00    +0.000 A 
ATOM     16  C   UNL     1      33.381  -3.645  33.023  0.00  0.00    +0.000 A 
ATOM     17  C   UNL     1      33.475  -5.011  33.174  0.00  0.00    +0.000 A 
ATOM     18  C   UNL     1      33.967  -5.481  34.374  0.00  0.00    +0.000 A 
ATOM     19  C   UNL     1      34.353  -4.609  35.385  0.00  0.00    +0.000 A 
ATOM     20  C   UNL     1      34.260  -3.242  35.238  0.00  0.00    +0.000 A 
ATOM     21  N   UNL     1      34.649  -2.334  36.261  0.00  0.00    +0.000 NA
ENDBRANCH   1  17
TORSDOF 1
ENDMDL
MODEL 10
REMARK VINA RESULT:      -6.6      4.433      7.454
REMARK  Name = 
REMARK  1 active torsions:
REMARK  status: ('A' for Active; 'I' for Inactive)
REMARK    1  A    between atoms: C_4  and  N_5
REMARK                            x       y       z     vdW  Elec       q    Type
REMARK                         _______ _______ _______ _____ _____    ______ ____
ROOT
ATOM      1  N   UNL     1      20.519  11.517  37.957  0.00  0.00    +0.000 N 
ATOM      2  C   UNL     1      21.428  10.766  37.307  0.00  0.00    +0.000 A 
ATOM      3  C   UNL     1      21.132   9.594  36.449  0.00  0.00    +0.000 C 
ATOM      4  C   UNL     1      22.701  11.253  37.556  0.00  0.00    +0.000 A 
ATOM      5  C   UNL     1      23.962  10.866  37.146  0.00  0.00    +0.000 A 
ATOM      6  C   UNL     1      24.124   9.691  36.244  0.00  0.00    +0.000 C 
ATOM      7  N   UNL     1      25.031  11.566  37.577  0.00  0.00    +0.000 NA
ATOM      8  N   UNL     1      24.872  12.606  38.376  0.00  0.00    +0.000 NA
ATOM      9  C   UNL     1      23.685  13.041  38.815  0.00  0.00    +0.000 A 
ATOM     10  C   UNL     1      23.522  14.209  39.712  0.00  0.00    +0.000 C 
ATOM     11  C   UNL     1      22.564  12.334  38.385  0.00  0.00    +0.000 A 
ATOM     12  C   UNL     1      21.198  12.471  38.616  0.00  0.00    +0.000 A 
ATOM     13  C   UNL     1      20.649  13.550  39.482  0.00  0.00    +0.000 C 
ENDROOT
BRANCH   1  17
ATOM     14  C   UNL     1      16.026  12.854  36.354  0.00  0.00    +0.000 C 
ATOM     15  C   UNL     1      16.907  11.995  37.188  0.00  0.00    +0.000 A 
ATOM     16  C   UNL     1      18.286  12.149  37.188  0.00  0.00    +0.000 A 
ATOM     17  C   UNL     1      19.098  11.351  37.964  0.00  0.00    +0.000 A 
ATOM     18  C   UNL     1      18.483  10.392  38.740  0.00  0.00    +0.000 A 
ATOM     19  C   UNL     1      17.101  10.241  38.738  0.00  0.00    +0.000 A 
ATOM     20  C   UNL     1      16.287  11.037  37.964  0.00  0.00    +0.000 A 
ATOM     21  N   UNL     1      14.871  10.897  37.948  0.00  0.00    +0.000 NA
ENDBRANCH   1  17
TORSDOF 1
ENDMDL
