MODEL 1
REMARK VINA RESULT:      -7.0      0.000      0.000
REMARK  Name = 
REMARK  3 active torsions:
REMARK  status: ('A' for Active; 'I' for Inactive)
REMARK    1  A    between atoms: C_2  and  O_3
REMARK    2  A    between atoms: O_3  and  C_4
REMARK    3  A    between atoms: C_4  and  C_6
REMARK                            x       y       z     vdW  Elec       q    Type
REMARK                         _______ _______ _______ _____ _____    ______ ____
ROOT
ATOM      1  C   UNL     1      14.867  11.708  36.287  0.00  0.00    +0.000 A 
ATOM      2  C   UNL     1      13.838  11.577  37.182  0.00  0.00    +0.000 A 
ATOM      3  C   UNL     1      12.444  12.036  36.923  0.00  0.00    +0.000 C 
ATOM      4  N   UNL     1      14.331  10.972  38.289  0.00  0.00    +0.000 N 
ATOM      5  C   UNL     1      13.510  10.684  39.425  0.00  0.00    +0.000 C 
ATOM      6  C   UNL     1      15.646  10.727  38.103  0.00  0.00    +0.000 A 
ATOM      7  C   UNL     1      16.023  11.175  36.853  0.00  0.00    +0.000 A 
ATOM      8  C   UNL     1      17.324  11.061  36.371  0.00  0.00    +0.000 A 
ATOM      9  C   UNL     1      18.275  10.475  37.176  0.00  0.00    +0.000 A 
ATOM     10  O   UNL     1      19.594  10.323  36.771  0.00  0.00    +0.000 OA
ATOM     11  C   UNL     1      17.905  10.019  38.436  0.00  0.00    +0.000 A 
ATOM     12  O   UNL     1      18.587   9.432  39.399  0.00  0.00    +0.000 OA
ATOM     13  C   UNL     1      17.856   9.167  40.427  0.00  0.00    +0.000 A 
ATOM     14  C   UNL     1      16.557   9.608  40.158  0.00  0.00    +0.000 A 
ATOM     15  C   UNL     1      15.400   9.486  41.102  0.00  0.00    +0.000 C 
ATOM     16  C   UNL     1      16.611  10.137  38.907  0.00  0.00    +0.000 A 
ENDROOT
BRANCH   1  17
ATOM     17  C   UNL     1      14.858  12.296  34.940  0.00  0.00    +0.000 C 
ATOM     18  O   UNL     1      15.108  11.644  33.908  0.00  0.00    +0.000 OA
BRANCH  17  19
ATOM     19  O   UNL     1      14.557  13.633  34.806  0.00  0.00    +0.000 OA
BRANCH  19  21
ATOM     20  C   UNL     1      12.787  15.181  34.640  0.00  0.00    +0.000 C 
ATOM     21  C   UNL     1      13.627  14.153  33.877  0.00  0.00    +0.000 C 
ENDBRANCH  19  21
ENDBRANCH  17  19
ENDBRANCH   1  17
TORSDOF 3
ENDMDL
MODEL 2
REMARK VINA RESULT:      -6.4     18.386     20.392
REMARK  Name = 
REMARK  3 active torsions:
REMARK  status: ('A' for Active; 'I' for Inactive)
REMARK    1  A    between atoms: C_2  and  O_3
REMARK    2  A    between atoms: O_3  and  C_4
REMARK    3  A    between atoms: C_4  and  C_6
REMARK                            x       y       z     vdW  Elec       q    Type
REMARK                         _______ _______ _______ _____ _____    ______ ____
ROOT
ATOM      1  C   UNL     1      27.479  22.959  29.156  0.00  0.00    +0.000 A 
ATOM      2  C   UNL     1      28.808  22.794  29.441  0.00  0.00    +0.000 A 
ATOM      3  C   UNL     1      29.352  22.634  30.820  0.00  0.00    +0.000 C 
ATOM      4  N   UNL     1      29.485  22.806  28.267  0.00  0.00    +0.000 N 
ATOM      5  C   UNL     1      30.906  22.656  28.210  0.00  0.00    +0.000 C 
ATOM      6  C   UNL     1      28.604  22.976  27.258  0.00  0.00    +0.000 A 
ATOM      7  C   UNL     1      27.328  23.076  27.776  0.00  0.00    +0.000 A 
ATOM      8  C   UNL     1      26.203  23.257  26.978  0.00  0.00    +0.000 A 
ATOM      9  C   UNL     1      26.369  23.339  25.614  0.00  0.00    +0.000 A 
ATOM     10  O   UNL     1      25.298  23.519  24.748  0.00  0.00    +0.000 OA
ATOM     11  C   UNL     1      27.649  23.238  25.082  0.00  0.00    +0.000 A 
ATOM     12  O   UNL     1      28.098  23.280  23.844  0.00  0.00    +0.000 OA
ATOM     13  C   UNL     1      29.379  23.145  23.781  0.00  0.00    +0.000 A 
ATOM     14  C   UNL     1      29.861  22.998  25.085  0.00  0.00    +0.000 A 
ATOM     15  C   UNL     1      31.303  22.814  25.447  0.00  0.00    +0.000 C 
ATOM     16  C   UNL     1      28.762  23.059  25.882  0.00  0.00    +0.000 A 
ENDROOT
BRANCH   1  17
ATOM     17  C   UNL     1      26.332  23.017  30.074  0.00  0.00    +0.000 C 
ATOM     18  O   UNL     1      25.896  22.023  30.686  0.00  0.00    +0.000 OA
BRANCH  17  19
ATOM     19  O   UNL     1      25.706  24.228  30.269  0.00  0.00    +0.000 OA
BRANCH  19  21
ATOM     20  C   UNL     1      26.824  25.304  32.044  0.00  0.00    +0.000 C 
ATOM     21  C   UNL     1      26.376  25.431  30.584  0.00  0.00    +0.000 C 
ENDBRANCH  19  21
ENDBRANCH  17  19
ENDBRANCH   1  17
TORSDOF 3
ENDMDL
MODEL 3
REMARK VINA RESULT:      -6.2     21.188     22.810
REMARK  Name = 
REMARK  3 active torsions:
REMARK  status: ('A' for Active; 'I' for Inactive)
REMARK    1  A    between atoms: C_2  and  O_3
REMARK    2  A    between atoms: O_3  and  C_4
REMARK    3  A    between atoms: C_4  and  C_6
REMARK                            x       y       z     vdW  Elec       q    Type
REMARK                         _______ _______ _______ _____ _____    ______ ____
ROOT
ATOM      1  C   UNL     1      29.041  24.256  23.100  0.00  0.00    +0.000 A 
ATOM      2  C   UNL     1      27.822  23.785  23.512  0.00  0.00    +0.000 A 
ATOM      3  C   UNL     1      26.583  23.845  22.686  0.00  0.00    +0.000 C 
ATOM      4  N   UNL     1      27.977  23.281  24.759  0.00  0.00    +0.000 N 
ATOM      5  C   UNL     1      26.887  22.704  25.484  0.00  0.00    +0.000 C 
ATOM      6  C   UNL     1      29.265  23.429  25.133  0.00  0.00    +0.000 A 
ATOM      7  C   UNL     1      29.970  24.040  24.115  0.00  0.00    +0.000 A 
ATOM      8  C   UNL     1      31.328  24.328  24.205  0.00  0.00    +0.000 A 
ATOM      9  C   UNL     1      31.998  23.989  25.359  0.00  0.00    +0.000 A 
ATOM     10  O   UNL     1      33.354  24.241  25.528  0.00  0.00    +0.000 OA
ATOM     11  C   UNL     1      31.299  23.373  26.389  0.00  0.00    +0.000 A 
ATOM     12  O   UNL     1      31.671  22.947  27.579  0.00  0.00    +0.000 OA
ATOM     13  C   UNL     1      30.696  22.425  28.242  0.00  0.00    +0.000 A 
ATOM     14  C   UNL     1      29.548  22.494  27.446  0.00  0.00    +0.000 A 
ATOM     15  C   UNL     1      28.196  21.993  27.851  0.00  0.00    +0.000 C 
ATOM     16  C   UNL     1      29.950  23.090  26.292  0.00  0.00    +0.000 A 
ENDROOT
BRANCH   1  17
ATOM     17  C   UNL     1      29.408  24.896  21.829  0.00  0.00    +0.000 C 
ATOM     18  O   UNL     1      29.679  24.256  20.794  0.00  0.00    +0.000 OA
BRANCH  17  19
ATOM     19  O   UNL     1      29.456  26.271  21.773  0.00  0.00    +0.000 OA
BRANCH  19  21
ATOM     20  C   UNL     1      29.459  27.872  23.504  0.00  0.00    +0.000 C 
ATOM     21  C   UNL     1      28.588  27.129  22.486  0.00  0.00    +0.000 C 
ENDBRANCH  19  21
ENDBRANCH  17  19
ENDBRANCH   1  17
TORSDOF 3
ENDMDL
MODEL 4
REMARK VINA RESULT:      -6.2     18.981     20.882
REMARK  Name = 
REMARK  3 active torsions:
REMARK  status: ('A' for Active; 'I' for Inactive)
REMARK    1  A    between atoms: C_2  and  O_3
REMARK    2  A    between atoms: O_3  and  C_4
REMARK    3  A    between atoms: C_4  and  C_6
REMARK                            x       y       z     vdW  Elec       q    Type
REMARK                         _______ _______ _______ _____ _____    ______ ____
ROOT
ATOM      1  C   UNL     1      27.928  23.542  24.859  0.00  0.00    +0.000 A 
ATOM      2  C   UNL     1      29.042  22.929  25.368  0.00  0.00    +0.000 A 
ATOM      3  C   UNL     1      30.186  22.456  24.539  0.00  0.00    +0.000 C 
ATOM      4  N   UNL     1      28.889  22.850  26.712  0.00  0.00    +0.000 N 
ATOM      5  C   UNL     1      29.882  22.258  27.554  0.00  0.00    +0.000 C 
ATOM      6  C   UNL     1      27.703  23.400  27.049  0.00  0.00    +0.000 A 
ATOM      7  C   UNL     1      27.066  23.849  25.909  0.00  0.00    +0.000 A 
ATOM      8  C   UNL     1      25.819  24.466  25.936  0.00  0.00    +0.000 A 
ATOM      9  C   UNL     1      25.194  24.636  27.151  0.00  0.00    +0.000 A 
ATOM     10  O   UNL     1      23.949  25.241  27.263  0.00  0.00    +0.000 OA
ATOM     11  C   UNL     1      25.827  24.188  28.304  0.00  0.00    +0.000 A 
ATOM     12  O   UNL     1      25.475  24.215  29.574  0.00  0.00    +0.000 OA
ATOM     13  C   UNL     1      26.363  23.685  30.342  0.00  0.00    +0.000 A 
ATOM     14  C   UNL     1      27.423  23.251  29.539  0.00  0.00    +0.000 A 
ATOM     15  C   UNL     1      28.660  22.576  30.049  0.00  0.00    +0.000 C 
ATOM     16  C   UNL     1      27.065  23.576  28.269  0.00  0.00    +0.000 A 
ENDROOT
BRANCH   1  17
ATOM     17  C   UNL     1      27.602  23.866  23.462  0.00  0.00    +0.000 C 
ATOM     18  O   UNL     1      27.039  23.067  22.689  0.00  0.00    +0.000 OA
BRANCH  17  19
ATOM     19  O   UNL     1      27.933  25.112  22.980  0.00  0.00    +0.000 OA
BRANCH  19  21
ATOM     20  C   UNL     1      29.312  25.230  21.071  0.00  0.00    +0.000 C 
ATOM     21  C   UNL     1      29.234  25.493  22.578  0.00  0.00    +0.000 C 
ENDBRANCH  19  21
ENDBRANCH  17  19
ENDBRANCH   1  17
TORSDOF 3
ENDMDL
MODEL 5
REMARK VINA RESULT:      -6.0     18.540     20.212
REMARK  Name = 
REMARK  3 active torsions:
REMARK  status: ('A' for Active; 'I' for Inactive)
REMARK    1  A    between atoms: C_2  and  O_3
REMARK    2  A    between atoms: O_3  and  C_4
REMARK    3  A    between atoms: C_4  and  C_6
REMARK                            x       y       z     vdW  Elec       q    Type
REMARK                         _______ _______ _______ _____ _____    ______ ____
ROOT
ATOM      1  C   UNL     1      27.392  23.277  26.029  0.00  0.00    +0.000 A 
ATOM      2  C   UNL     1      28.640  23.057  25.508  0.00  0.00    +0.000 A 
ATOM      3  C   UNL     1      28.947  23.064  24.050  0.00  0.00    +0.000 C 
ATOM      4  N   UNL     1      29.486  22.845  26.544  0.00  0.00    +0.000 N 
ATOM      5  C   UNL     1      30.878  22.582  26.344  0.00  0.00    +0.000 C 
ATOM      6  C   UNL     1      28.792  22.927  27.699  0.00  0.00    +0.000 A 
ATOM      7  C   UNL     1      27.467  23.198  27.418  0.00  0.00    +0.000 A 
ATOM      8  C   UNL     1      26.501  23.341  28.409  0.00  0.00    +0.000 A 
ATOM      9  C   UNL     1      26.881  23.207  29.725  0.00  0.00    +0.000 A 
ATOM     10  O   UNL     1      25.978  23.334  30.773  0.00  0.00    +0.000 OA
ATOM     11  C   UNL     1      28.212  22.934  30.018  0.00  0.00    +0.000 A 
ATOM     12  O   UNL     1      28.848  22.757  31.159  0.00  0.00    +0.000 OA
ATOM     13  C   UNL     1      30.103  22.521  30.990  0.00  0.00    +0.000 A 
ATOM     14  C   UNL     1      30.363  22.533  29.616  0.00  0.00    +0.000 A 
ATOM     15  C   UNL     1      31.708  22.299  28.999  0.00  0.00    +0.000 C 
ATOM     16  C   UNL     1      29.166  22.793  29.029  0.00  0.00    +0.000 A 
ENDROOT
BRANCH   1  17
ATOM     17  C   UNL     1      26.129  23.555  25.331  0.00  0.00    +0.000 C 
ATOM     18  O   UNL     1      25.484  22.685  24.713  0.00  0.00    +0.000 OA
BRANCH  17  19
ATOM     19  O   UNL     1      25.629  24.837  25.358  0.00  0.00    +0.000 OA
BRANCH  19  21
ATOM     20  C   UNL     1      26.767  26.158  23.770  0.00  0.00    +0.000 C 
ATOM     21  C   UNL     1      26.420  26.004  25.255  0.00  0.00    +0.000 C 
ENDBRANCH  19  21
ENDBRANCH  17  19
ENDBRANCH   1  17
TORSDOF 3
ENDMDL
MODEL 6
REMARK VINA RESULT:      -6.0     21.885     23.322
REMARK  Name = 
REMARK  3 active torsions:
REMARK  status: ('A' for Active; 'I' for Inactive)
REMARK    1  A    between atoms: C_2  and  O_3
REMARK    2  A    between atoms: O_3  and  C_4
REMARK    3  A    between atoms: C_4  and  C_6
REMARK                            x       y       z     vdW  Elec       q    Type
REMARK                         _______ _______ _______ _____ _____    ______ ____
ROOT
ATOM      1  C   UNL     1      18.613  -9.886  28.092  0.00  0.00    +0.000 A 
ATOM      2  C   UNL     1      19.627 -10.756  27.791  0.00  0.00    +0.000 A 
ATOM      3  C   UNL     1      19.708 -12.152  28.309  0.00  0.00    +0.000 C 
ATOM      4  N   UNL     1      20.490 -10.114  26.968  0.00  0.00    +0.000 N 
ATOM      5  C   UNL     1      21.669 -10.746  26.464  0.00  0.00    +0.000 C 
ATOM      6  C   UNL     1      20.035  -8.861  26.751  0.00  0.00    +0.000 A 
ATOM      7  C   UNL     1      18.853  -8.678  27.442  0.00  0.00    +0.000 A 
ATOM      8  C   UNL     1      18.142  -7.482  27.414  0.00  0.00    +0.000 A 
ATOM      9  C   UNL     1      18.637  -6.438  26.666  0.00  0.00    +0.000 A 
ATOM     10  O   UNL     1      17.988  -5.212  26.585  0.00  0.00    +0.000 OA
ATOM     11  C   UNL     1      19.825  -6.612  25.967  0.00  0.00    +0.000 A 
ATOM     12  O   UNL     1      20.520  -5.808  25.188  0.00  0.00    +0.000 OA
ATOM     13  C   UNL     1      21.585  -6.368  24.727  0.00  0.00    +0.000 A 
ATOM     14  C   UNL     1      21.637  -7.673  25.227  0.00  0.00    +0.000 A 
ATOM     15  C   UNL     1      22.723  -8.660  24.928  0.00  0.00    +0.000 C 
ATOM     16  C   UNL     1      20.526  -7.803  26.000  0.00  0.00    +0.000 A 
ENDROOT
BRANCH   1  17
ATOM     17  C   UNL     1      17.431 -10.093  28.942  0.00  0.00    +0.000 C 
ATOM     18  O   UNL     1      16.392 -10.652  28.543  0.00  0.00    +0.000 OA
BRANCH  17  19
ATOM     19  O   UNL     1      17.472  -9.649  30.245  0.00  0.00    +0.000 OA
BRANCH  19  21
ATOM     20  C   UNL     1      18.614 -11.056  31.752  0.00  0.00    +0.000 C 
ATOM     21  C   UNL     1      18.622  -9.687  31.065  0.00  0.00    +0.000 C 
ENDBRANCH  19  21
ENDBRANCH  17  19
ENDBRANCH   1  17
TORSDOF 3
ENDMDL
MODEL 7
REMARK VINA RESULT:      -5.8     19.281     21.399
REMARK  Name = 
REMARK  3 active torsions:
REMARK  status: ('A' for Active; 'I' for Inactive)
REMARK    1  A    between atoms: C_2  and  O_3
REMARK    2  A    between atoms: O_3  and  C_4
REMARK    3  A    between atoms: C_4  and  C_6
REMARK                            x       y       z     vdW  Elec       q    Type
REMARK                         _______ _______ _______ _____ _____    ______ ____
ROOT
ATOM      1  C   UNL     1      30.091  22.892  28.851  0.00  0.00    +0.000 A 
ATOM      2  C   UNL     1      28.794  23.000  29.277  0.00  0.00    +0.000 A 
ATOM      3  C   UNL     1      28.386  23.020  30.710  0.00  0.00    +0.000 C 
ATOM      4  N   UNL     1      28.006  23.081  28.178  0.00  0.00    +0.000 N 
ATOM      5  C   UNL     1      26.584  23.204  28.272  0.00  0.00    +0.000 C 
ATOM      6  C   UNL     1      28.785  23.024  27.077  0.00  0.00    +0.000 A 
ATOM      7  C   UNL     1      30.107  22.905  27.458  0.00  0.00    +0.000 A 
ATOM      8  C   UNL     1      31.152  22.823  26.542  0.00  0.00    +0.000 A 
ATOM      9  C   UNL     1      30.854  22.863  25.198  0.00  0.00    +0.000 A 
ATOM     10  O   UNL     1      31.838  22.787  24.220  0.00  0.00    +0.000 OA
ATOM     11  C   UNL     1      29.527  22.984  24.804  0.00  0.00    +0.000 A 
ATOM     12  O   UNL     1      28.959  23.046  23.617  0.00  0.00    +0.000 OA
ATOM     13  C   UNL     1      27.677  23.157  23.690  0.00  0.00    +0.000 A 
ATOM     14  C   UNL     1      27.323  23.173  25.042  0.00  0.00    +0.000 A 
ATOM     15  C   UNL     1      25.920  23.290  25.556  0.00  0.00    +0.000 C 
ATOM     16  C   UNL     1      28.495  23.064  25.720  0.00  0.00    +0.000 A 
ENDROOT
BRANCH   1  17
ATOM     17  C   UNL     1      31.323  22.775  29.644  0.00  0.00    +0.000 C 
ATOM     18  O   UNL     1      32.026  23.754  29.964  0.00  0.00    +0.000 OA
BRANCH  17  19
ATOM     19  O   UNL     1      31.724  21.525  30.058  0.00  0.00    +0.000 OA
BRANCH  19  21
ATOM     20  C   UNL     1      33.651  20.979  31.303  0.00  0.00    +0.000 C 
ATOM     21  C   UNL     1      32.139  21.215  31.373  0.00  0.00    +0.000 C 
ENDBRANCH  19  21
ENDBRANCH  17  19
ENDBRANCH   1  17
TORSDOF 3
ENDMDL
MODEL 8
REMARK VINA RESULT:      -5.7     22.528     23.850
REMARK  Name = 
REMARK  3 active torsions:
REMARK  status: ('A' for Active; 'I' for Inactive)
REMARK    1  A    between atoms: C_2  and  O_3
REMARK    2  A    between atoms: O_3  and  C_4
REMARK    3  A    between atoms: C_4  and  C_6
REMARK                            x       y       z     vdW  Elec       q    Type
REMARK                         _______ _______ _______ _____ _____    ______ ____
ROOT
ATOM      1  C   UNL     1      22.092  -8.511  25.432  0.00  0.00    +0.000 A 
ATOM      2  C   UNL     1      22.522  -9.687  25.987  0.00  0.00    +0.000 A 
ATOM      3  C   UNL     1      23.815 -10.345  25.647  0.00  0.00    +0.000 C 
ATOM      4  N   UNL     1      21.574 -10.100  26.862  0.00  0.00    +0.000 N 
ATOM      5  C   UNL     1      21.714 -11.306  27.617  0.00  0.00    +0.000 C 
ATOM      6  C   UNL     1      20.563  -9.206  26.862  0.00  0.00    +0.000 A 
ATOM      7  C   UNL     1      20.850  -8.188  25.974  0.00  0.00    +0.000 A 
ATOM      8  C   UNL     1      19.993  -7.114  25.755  0.00  0.00    +0.000 A 
ATOM      9  C   UNL     1      18.807  -7.064  26.453  0.00  0.00    +0.000 A 
ATOM     10  O   UNL     1      17.898  -6.027  26.291  0.00  0.00    +0.000 OA
ATOM     11  C   UNL     1      18.509  -8.082  27.349  0.00  0.00    +0.000 A 
ATOM     12  O   UNL     1      17.473  -8.293  28.136  0.00  0.00    +0.000 OA
ATOM     13  C   UNL     1      17.588  -9.378  28.822  0.00  0.00    +0.000 A 
ATOM     14  C   UNL     1      18.807  -9.973  28.484  0.00  0.00    +0.000 A 
ATOM     15  C   UNL     1      19.320 -11.257  29.063  0.00  0.00    +0.000 C 
ATOM     16  C   UNL     1      19.365  -9.146  27.562  0.00  0.00    +0.000 A 
ENDROOT
BRANCH   1  17
ATOM     17  C   UNL     1      22.751  -7.660  24.430  0.00  0.00    +0.000 C 
ATOM     18  O   UNL     1      23.542  -6.743  24.726  0.00  0.00    +0.000 OA
BRANCH  17  19
ATOM     19  O   UNL     1      22.485  -7.884  23.098  0.00  0.00    +0.000 OA
BRANCH  19  21
ATOM     20  C   UNL     1      24.200  -9.154  22.095  0.00  0.00    +0.000 C 
ATOM     21  C   UNL     1      23.451  -7.818  22.069  0.00  0.00    +0.000 C 
ENDBRANCH  19  21
ENDBRANCH  17  19
ENDBRANCH   1  17
TORSDOF 3
ENDMDL
MODEL 9
REMARK VINA RESULT:      -5.7     19.396     21.153
REMARK  Name = 
REMARK  3 active torsions:
REMARK  status: ('A' for Active; 'I' for Inactive)
REMARK    1  A    between atoms: C_2  and  O_3
REMARK    2  A    between atoms: O_3  and  C_4
REMARK    3  A    between atoms: C_4  and  C_6
REMARK                            x       y       z     vdW  Elec       q    Type
REMARK                         _______ _______ _______ _____ _____    ______ ____
ROOT
ATOM      1  C   UNL     1      33.969   3.797  36.465  0.00  0.00    +0.000 A 
ATOM      2  C   UNL     1      33.875   4.008  35.115  0.00  0.00    +0.000 A 
ATOM      3  C   UNL     1      33.802   5.357  34.485  0.00  0.00    +0.000 C 
ATOM      4  N   UNL     1      33.864   2.796  34.510  0.00  0.00    +0.000 N 
ATOM      5  C   UNL     1      33.774   2.660  33.089  0.00  0.00    +0.000 C 
ATOM      6  C   UNL     1      33.948   1.836  35.455  0.00  0.00    +0.000 A 
ATOM      7  C   UNL     1      34.016   2.425  36.702  0.00  0.00    +0.000 A 
ATOM      8  C   UNL     1      34.110   1.690  37.879  0.00  0.00    +0.000 A 
ATOM      9  C   UNL     1      34.137   0.316  37.797  0.00  0.00    +0.000 A 
ATOM     10  O   UNL     1      34.230  -0.491  38.924  0.00  0.00    +0.000 OA
ATOM     11  C   UNL     1      34.070  -0.287  36.547  0.00  0.00    +0.000 A 
ATOM     12  O   UNL     1      34.075  -1.551  36.173  0.00  0.00    +0.000 OA
ATOM     13  C   UNL     1      33.995  -1.686  34.894  0.00  0.00    +0.000 A 
ATOM     14  C   UNL     1      33.928  -0.408  34.330  0.00  0.00    +0.000 A 
ATOM     15  C   UNL     1      33.825  -0.127  32.862  0.00  0.00    +0.000 C 
ATOM     16  C   UNL     1      33.976   0.450  35.382  0.00  0.00    +0.000 A 
ENDROOT
BRANCH   1  17
ATOM     17  C   UNL     1      34.016   4.779  37.558  0.00  0.00    +0.000 C 
ATOM     18  O   UNL     1      33.066   4.979  38.340  0.00  0.00    +0.000 OA
BRANCH  17  19
ATOM     19  O   UNL     1      35.166   5.517  37.731  0.00  0.00    +0.000 OA
BRANCH  19  21
ATOM     20  C   UNL     1      37.281   5.184  36.744  0.00  0.00    +0.000 C 
ATOM     21  C   UNL     1      36.437   4.962  38.003  0.00  0.00    +0.000 C 
ENDBRANCH  19  21
ENDBRANCH  17  19
ENDBRANCH   1  17
TORSDOF 3
ENDMDL
MODEL 10
REMARK VINA RESULT:      -5.6     16.250     18.151
REMARK  Name = 
REMARK  3 active torsions:
REMARK  status: ('A' for Active; 'I' for Inactive)
REMARK    1  A    between atoms: C_2  and  O_3
REMARK    2  A    between atoms: O_3  and  C_4
REMARK    3  A    between atoms: C_4  and  C_6
REMARK                            x       y       z     vdW  Elec       q    Type
REMARK                         _______ _______ _______ _____ _____    ______ ____
ROOT
ATOM      1  C   UNL     1      -1.721   7.072  43.595  0.00  0.00    +0.000 A 
ATOM      2  C   UNL     1      -2.366   5.960  44.069  0.00  0.00    +0.000 A 
ATOM      3  C   UNL     1      -3.849   5.805  44.096  0.00  0.00    +0.000 C 
ATOM      4  N   UNL     1      -1.422   5.081  44.482  0.00  0.00    +0.000 N 
ATOM      5  C   UNL     1      -1.762   3.807  45.036  0.00  0.00    +0.000 C 
ATOM      6  C   UNL     1      -0.203   5.623  44.277  0.00  0.00    +0.000 A 
ATOM      7  C   UNL     1      -0.348   6.878  43.718  0.00  0.00    +0.000 A 
ATOM      8  C   UNL     1       0.736   7.688  43.391  0.00  0.00    +0.000 A 
ATOM      9  C   UNL     1       2.007   7.217  43.634  0.00  0.00    +0.000 A 
ATOM     10  O   UNL     1       3.141   7.962  43.336  0.00  0.00    +0.000 OA
ATOM     11  C   UNL     1       2.164   5.955  44.194  0.00  0.00    +0.000 A 
ATOM     12  O   UNL     1       3.234   5.263  44.530  0.00  0.00    +0.000 OA
ATOM     13  C   UNL     1       2.938   4.112  45.030  0.00  0.00    +0.000 A 
ATOM     14  C   UNL     1       1.545   3.993  45.044  0.00  0.00    +0.000 A 
ATOM     15  C   UNL     1       0.795   2.800  45.551  0.00  0.00    +0.000 C 
ATOM     16  C   UNL     1       1.082   5.157  44.517  0.00  0.00    +0.000 A 
ENDROOT
BRANCH   1  17
ATOM     17  C   UNL     1      -2.288   8.307  43.034  0.00  0.00    +0.000 C 
ATOM     18  O   UNL     1      -2.371   9.373  43.675  0.00  0.00    +0.000 OA
BRANCH  17  19
ATOM     19  O   UNL     1      -2.750   8.290  41.738  0.00  0.00    +0.000 OA
BRANCH  19  21
ATOM     20  C   UNL     1      -4.120   8.834  39.898  0.00  0.00    +0.000 C 
ATOM     21  C   UNL     1      -4.109   8.424  41.373  0.00  0.00    +0.000 C 
ENDBRANCH  19  21
ENDBRANCH  17  19
ENDBRANCH   1  17
TORSDOF 3
ENDMDL
