MODEL 1
REMARK VINA RESULT:      -7.5      0.000      0.000
REMARK  Name = 
REMARK  4 active torsions:
REMARK  status: ('A' for Active; 'I' for Inactive)
REMARK    1  A    between atoms: C_2  and  C_5
REMARK    2  A    between atoms: C_8  and  O_9
REMARK    3  A    between atoms: O_9  and  C_10
REMARK    4  A    between atoms: C_10  and  C_12
REMARK                            x       y       z     vdW  Elec       q    Type
REMARK                         _______ _______ _______ _____ _____    ______ ____
ROOT
ATOM      1  C   UNL     1      15.519  11.969  32.462  0.00  0.00    +0.000 A 
ATOM      2  C   UNL     1      15.067  12.204  33.732  0.00  0.00    +0.000 A 
ATOM      3  C   UNL     1      15.558  11.469  34.814  0.00  0.00    +0.000 A 
ATOM      4  C   UNL     1      16.518  10.477  34.635  0.00  0.00    +0.000 A 
ATOM      5  C   UNL     1      16.960  10.245  33.353  0.00  0.00    +0.000 A 
ATOM      6  C   UNL     1      16.469  10.977  32.277  0.00  0.00    +0.000 A 
ENDROOT
BRANCH   1   8
ATOM      7  C   UNL     1      14.357  11.830  30.283  0.00  0.00    +0.000 C 
ATOM      8  C   UNL     1      15.015  12.783  31.302  0.00  0.00    +0.000 C 
ATOM      9  C   UNL     1      14.081  13.827  31.790  0.00  0.00    +0.000 C 
ATOM     10  C   UNL     1      16.169  13.373  30.548  0.00  0.00    +0.000 C 
ENDBRANCH   1   8
BRANCH   4  11
ATOM     11  O   UNL     1      17.021   9.754  35.713  0.00  0.00    +0.000 OA
BRANCH  11  12
ATOM     12  C   UNL     1      17.378  10.350  36.907  0.00  0.00    +0.000 C 
ATOM     13  O   UNL     1      16.482  10.589  37.719  0.00  0.00    +0.000 OA
BRANCH  12  14
ATOM     14  C   UNL     1      18.750  10.717  37.246  0.00  0.00    +0.000 A 
ATOM     15  C   UNL     1      19.014  11.857  37.974  0.00  0.00    +0.000 A 
ATOM     16  C   UNL     1      20.305  12.226  38.351  0.00  0.00    +0.000 A 
ATOM     17  C   UNL     1      21.360  11.422  37.976  0.00  0.00    +0.000 A 
ATOM     18  C   UNL     1      21.126  10.285  37.251  0.00  0.00    +0.000 A 
ATOM     19  N   UNL     1      22.247   9.512  36.898  0.00  0.00    +0.000 NA
ATOM     20  C   UNL     1      19.816   9.932  36.886  0.00  0.00    +0.000 A 
ENDBRANCH  12  14
ENDBRANCH  11  12
ENDBRANCH   4  11
TORSDOF 4
ENDMDL
MODEL 2
REMARK VINA RESULT:      -7.2      1.978      2.448
REMARK  Name = 
REMARK  4 active torsions:
REMARK  status: ('A' for Active; 'I' for Inactive)
REMARK    1  A    between atoms: C_2  and  C_5
REMARK    2  A    between atoms: C_8  and  O_9
REMARK    3  A    between atoms: O_9  and  C_10
REMARK    4  A    between atoms: C_10  and  C_12
REMARK                            x       y       z     vdW  Elec       q    Type
REMARK                         _______ _______ _______ _____ _____    ______ ____
ROOT
ATOM      1  C   UNL     1      14.889  12.491  32.511  0.00  0.00    +0.000 A 
ATOM      2  C   UNL     1      14.273  13.197  33.508  0.00  0.00    +0.000 A 
ATOM      3  C   UNL     1      14.462  12.855  34.850  0.00  0.00    +0.000 A 
ATOM      4  C   UNL     1      15.278  11.787  35.213  0.00  0.00    +0.000 A 
ATOM      5  C   UNL     1      15.887  11.080  34.202  0.00  0.00    +0.000 A 
ATOM      6  C   UNL     1      15.696  11.422  32.867  0.00  0.00    +0.000 A 
ENDROOT
BRANCH   1   8
ATOM      7  C   UNL     1      14.517  11.597  30.235  0.00  0.00    +0.000 C 
ATOM      8  C   UNL     1      14.714  12.880  31.068  0.00  0.00    +0.000 C 
ATOM      9  C   UNL     1      13.575  13.822  30.939  0.00  0.00    +0.000 C 
ATOM     10  C   UNL     1      15.986  13.464  30.535  0.00  0.00    +0.000 C 
ENDBRANCH   1   8
BRANCH   4  11
ATOM     11  O   UNL     1      15.480  11.454  36.549  0.00  0.00    +0.000 OA
BRANCH  11  12
ATOM     12  C   UNL     1      16.652  11.745  37.219  0.00  0.00    +0.000 C 
ATOM     13  O   UNL     1      16.999  12.926  37.283  0.00  0.00    +0.000 OA
BRANCH  12  14
ATOM     14  C   UNL     1      17.498  10.730  37.842  0.00  0.00    +0.000 A 
ATOM     15  C   UNL     1      18.755  10.461  37.347  0.00  0.00    +0.000 A 
ATOM     16  C   UNL     1      19.610   9.527  37.933  0.00  0.00    +0.000 A 
ATOM     17  C   UNL     1      19.177   8.840  39.046  0.00  0.00    +0.000 A 
ATOM     18  C   UNL     1      17.932   9.086  39.558  0.00  0.00    +0.000 A 
ATOM     19  N   UNL     1      17.551   8.349  40.693  0.00  0.00    +0.000 NA
ATOM     20  C   UNL     1      17.090  10.035  38.953  0.00  0.00    +0.000 A 
ENDBRANCH  12  14
ENDBRANCH  11  12
ENDBRANCH   4  11
TORSDOF 4
ENDMDL
MODEL 3
REMARK VINA RESULT:      -7.1      2.895      7.401
REMARK  Name = 
REMARK  4 active torsions:
REMARK  status: ('A' for Active; 'I' for Inactive)
REMARK    1  A    between atoms: C_2  and  C_5
REMARK    2  A    between atoms: C_8  and  O_9
REMARK    3  A    between atoms: O_9  and  C_10
REMARK    4  A    between atoms: C_10  and  C_12
REMARK                            x       y       z     vdW  Elec       q    Type
REMARK                         _______ _______ _______ _____ _____    ______ ____
ROOT
ATOM      1  C   UNL     1      19.388  11.815  38.202  0.00  0.00    +0.000 A 
ATOM      2  C   UNL     1      18.765  12.860  37.574  0.00  0.00    +0.000 A 
ATOM      3  C   UNL     1      17.553  12.672  36.904  0.00  0.00    +0.000 A 
ATOM      4  C   UNL     1      16.944  11.421  36.852  0.00  0.00    +0.000 A 
ATOM      5  C   UNL     1      17.582  10.377  37.482  0.00  0.00    +0.000 A 
ATOM      6  C   UNL     1      18.789  10.566  38.147  0.00  0.00    +0.000 A 
ENDROOT
BRANCH   1   8
ATOM      7  C   UNL     1      20.637  11.168  40.235  0.00  0.00    +0.000 C 
ATOM      8  C   UNL     1      20.674  12.024  38.953  0.00  0.00    +0.000 C 
ATOM      9  C   UNL     1      21.824  11.687  38.078  0.00  0.00    +0.000 C 
ATOM     10  C   UNL     1      20.751  13.431  39.461  0.00  0.00    +0.000 C 
ENDBRANCH   1   8
BRANCH   4  11
ATOM     11  O   UNL     1      15.729  11.235  36.199  0.00  0.00    +0.000 OA
BRANCH  11  12
ATOM     12  C   UNL     1      15.599  11.336  34.828  0.00  0.00    +0.000 C 
ATOM     13  O   UNL     1      16.163  10.488  34.135  0.00  0.00    +0.000 OA
BRANCH  12  14
ATOM     14  C   UNL     1      14.839  12.393  34.165  0.00  0.00    +0.000 A 
ATOM     15  C   UNL     1      14.165  13.342  34.902  0.00  0.00    +0.000 A 
ATOM     16  C   UNL     1      13.458  14.389  34.312  0.00  0.00    +0.000 A 
ATOM     17  C   UNL     1      13.426  14.475  32.936  0.00  0.00    +0.000 A 
ATOM     18  C   UNL     1      14.086  13.544  32.180  0.00  0.00    +0.000 A 
ATOM     19  N   UNL     1      14.011  13.687  30.783  0.00  0.00    +0.000 NA
ATOM     20  C   UNL     1      14.795  12.499  32.798  0.00  0.00    +0.000 A 
ENDBRANCH  12  14
ENDBRANCH  11  12
ENDBRANCH   4  11
TORSDOF 4
ENDMDL
MODEL 4
REMARK VINA RESULT:      -6.9      2.589      7.204
REMARK  Name = 
REMARK  4 active torsions:
REMARK  status: ('A' for Active; 'I' for Inactive)
REMARK    1  A    between atoms: C_2  and  C_5
REMARK    2  A    between atoms: C_8  and  O_9
REMARK    3  A    between atoms: O_9  and  C_10
REMARK    4  A    between atoms: C_10  and  C_12
REMARK                            x       y       z     vdW  Elec       q    Type
REMARK                         _______ _______ _______ _____ _____    ______ ____
ROOT
ATOM      1  C   UNL     1      20.739  10.530  37.443  0.00  0.00    +0.000 A 
ATOM      2  C   UNL     1      20.260   9.669  36.492  0.00  0.00    +0.000 A 
ATOM      3  C   UNL     1      18.894   9.612  36.202  0.00  0.00    +0.000 A 
ATOM      4  C   UNL     1      17.980  10.424  36.869  0.00  0.00    +0.000 A 
ATOM      5  C   UNL     1      18.472  11.280  37.827  0.00  0.00    +0.000 A 
ATOM      6  C   UNL     1      19.832  11.334  38.115  0.00  0.00    +0.000 A 
ENDROOT
BRANCH   1   8
ATOM      7  C   UNL     1      22.520  12.022  38.289  0.00  0.00    +0.000 C 
ATOM      8  C   UNL     1      22.212  10.617  37.732  0.00  0.00    +0.000 C 
ATOM      9  C   UNL     1      22.603   9.536  38.669  0.00  0.00    +0.000 C 
ATOM     10  C   UNL     1      22.992  10.557  36.453  0.00  0.00    +0.000 C 
ENDBRANCH   1   8
BRANCH   4  11
ATOM     11  O   UNL     1      16.622  10.380  36.571  0.00  0.00    +0.000 OA
BRANCH  11  12
ATOM     12  C   UNL     1      15.976  11.394  35.890  0.00  0.00    +0.000 C 
ATOM     13  O   UNL     1      15.468  12.298  36.556  0.00  0.00    +0.000 OA
BRANCH  12  14
ATOM     14  C   UNL     1      15.859  11.442  34.435  0.00  0.00    +0.000 A 
ATOM     15  C   UNL     1      16.569  10.566  33.643  0.00  0.00    +0.000 A 
ATOM     16  C   UNL     1      16.461  10.553  32.252  0.00  0.00    +0.000 A 
ATOM     17  C   UNL     1      15.614  11.456  31.646  0.00  0.00    +0.000 A 
ATOM     18  C   UNL     1      14.899  12.339  32.408  0.00  0.00    +0.000 A 
ATOM     19  N   UNL     1      14.057  13.235  31.727  0.00  0.00    +0.000 NA
ATOM     20  C   UNL     1      15.023  12.330  33.809  0.00  0.00    +0.000 A 
ENDBRANCH  12  14
ENDBRANCH  11  12
ENDBRANCH   4  11
TORSDOF 4
ENDMDL
MODEL 5
REMARK VINA RESULT:      -6.7     17.529     19.590
REMARK  Name = 
REMARK  4 active torsions:
REMARK  status: ('A' for Active; 'I' for Inactive)
REMARK    1  A    between atoms: C_2  and  C_5
REMARK    2  A    between atoms: C_8  and  O_9
REMARK    3  A    between atoms: O_9  and  C_10
REMARK    4  A    between atoms: C_10  and  C_12
REMARK                            x       y       z     vdW  Elec       q    Type
REMARK                         _______ _______ _______ _____ _____    ______ ____
ROOT
ATOM      1  C   UNL     1      33.556  -0.633  34.090  0.00  0.00    +0.000 A 
ATOM      2  C   UNL     1      33.938  -0.279  32.825  0.00  0.00    +0.000 A 
ATOM      3  C   UNL     1      34.082   1.065  32.471  0.00  0.00    +0.000 A 
ATOM      4  C   UNL     1      33.841   2.083  33.389  0.00  0.00    +0.000 A 
ATOM      5  C   UNL     1      33.451   1.715  34.657  0.00  0.00    +0.000 A 
ATOM      6  C   UNL     1      33.307   0.376  35.007  0.00  0.00    +0.000 A 
ENDROOT
BRANCH   1   8
ATOM      7  C   UNL     1      34.647  -2.454  35.360  0.00  0.00    +0.000 C 
ATOM      8  C   UNL     1      33.434  -2.081  34.482  0.00  0.00    +0.000 C 
ATOM      9  C   UNL     1      32.142  -2.305  35.174  0.00  0.00    +0.000 C 
ATOM     10  C   UNL     1      33.582  -2.955  33.274  0.00  0.00    +0.000 C 
ENDBRANCH   1   8
BRANCH   4  11
ATOM     11  O   UNL     1      33.999   3.421  33.043  0.00  0.00    +0.000 OA
BRANCH  11  12
ATOM     12  C   UNL     1      33.478   4.452  33.801  0.00  0.00    +0.000 C 
ATOM     13  O   UNL     1      32.285   4.724  33.656  0.00  0.00    +0.000 OA
BRANCH  12  14
ATOM     14  C   UNL     1      34.267   5.235  34.749  0.00  0.00    +0.000 A 
ATOM     15  C   UNL     1      33.790   6.429  35.243  0.00  0.00    +0.000 A 
ATOM     16  C   UNL     1      34.494   7.191  36.177  0.00  0.00    +0.000 A 
ATOM     17  C   UNL     1      35.717   6.734  36.617  0.00  0.00    +0.000 A 
ATOM     18  C   UNL     1      36.215   5.552  36.140  0.00  0.00    +0.000 A 
ATOM     19  N   UNL     1      37.471   5.145  36.628  0.00  0.00    +0.000 NA
ATOM     20  C   UNL     1      35.487   4.800  35.203  0.00  0.00    +0.000 A 
ENDBRANCH  12  14
ENDBRANCH  11  12
ENDBRANCH   4  11
TORSDOF 4
ENDMDL
MODEL 6
REMARK VINA RESULT:      -6.7     21.265     23.036
REMARK  Name = 
REMARK  4 active torsions:
REMARK  status: ('A' for Active; 'I' for Inactive)
REMARK    1  A    between atoms: C_2  and  C_5
REMARK    2  A    between atoms: C_8  and  O_9
REMARK    3  A    between atoms: O_9  and  C_10
REMARK    4  A    between atoms: C_10  and  C_12
REMARK                            x       y       z     vdW  Elec       q    Type
REMARK                         _______ _______ _______ _____ _____    ______ ____
ROOT
ATOM      1  C   UNL     1      25.934  -8.057  22.608  0.00  0.00    +0.000 A 
ATOM      2  C   UNL     1      24.839  -8.818  22.298  0.00  0.00    +0.000 A 
ATOM      3  C   UNL     1      23.570  -8.471  22.769  0.00  0.00    +0.000 A 
ATOM      4  C   UNL     1      23.380  -7.346  23.567  0.00  0.00    +0.000 A 
ATOM      5  C   UNL     1      24.488  -6.592  23.877  0.00  0.00    +0.000 A 
ATOM      6  C   UNL     1      25.750  -6.940  23.408  0.00  0.00    +0.000 A 
ENDROOT
BRANCH   1   8
ATOM      7  C   UNL     1      28.066  -9.178  23.165  0.00  0.00    +0.000 C 
ATOM      8  C   UNL     1      27.295  -8.409  22.073  0.00  0.00    +0.000 C 
ATOM      9  C   UNL     1      27.153  -9.191  20.820  0.00  0.00    +0.000 C 
ATOM     10  C   UNL     1      28.105  -7.166  21.867  0.00  0.00    +0.000 C 
ENDBRANCH   1   8
BRANCH   4  11
ATOM     11  O   UNL     1      22.115  -6.991  24.024  0.00  0.00    +0.000 OA
BRANCH  11  12
ATOM     12  C   UNL     1      21.587  -7.474  25.206  0.00  0.00    +0.000 C 
ATOM     13  O   UNL     1      22.184  -8.395  25.766  0.00  0.00    +0.000 OA
BRANCH  12  14
ATOM     14  C   UNL     1      20.364  -6.958  25.814  0.00  0.00    +0.000 A 
ATOM     15  C   UNL     1      20.101  -5.605  25.828  0.00  0.00    +0.000 A 
ATOM     16  C   UNL     1      18.930  -5.072  26.365  0.00  0.00    +0.000 A 
ATOM     17  C   UNL     1      18.000  -5.931  26.909  0.00  0.00    +0.000 A 
ATOM     18  C   UNL     1      18.236  -7.279  26.910  0.00  0.00    +0.000 A 
ATOM     19  N   UNL     1      17.248  -8.100  27.484  0.00  0.00    +0.000 NA
ATOM     20  C   UNL     1      19.423  -7.793  26.360  0.00  0.00    +0.000 A 
ENDBRANCH  12  14
ENDBRANCH  11  12
ENDBRANCH   4  11
TORSDOF 4
ENDMDL
MODEL 7
REMARK VINA RESULT:      -6.6     17.989     20.188
REMARK  Name = 
REMARK  4 active torsions:
REMARK  status: ('A' for Active; 'I' for Inactive)
REMARK    1  A    between atoms: C_2  and  C_5
REMARK    2  A    between atoms: C_8  and  O_9
REMARK    3  A    between atoms: O_9  and  C_10
REMARK    4  A    between atoms: C_10  and  C_12
REMARK                            x       y       z     vdW  Elec       q    Type
REMARK                         _______ _______ _______ _____ _____    ______ ____
ROOT
ATOM      1  C   UNL     1      34.405   4.575  35.517  0.00  0.00    +0.000 A 
ATOM      2  C   UNL     1      34.367   3.385  36.193  0.00  0.00    +0.000 A 
ATOM      3  C   UNL     1      33.908   2.222  35.569  0.00  0.00    +0.000 A 
ATOM      4  C   UNL     1      33.476   2.236  34.246  0.00  0.00    +0.000 A 
ATOM      5  C   UNL     1      33.512   3.438  33.578  0.00  0.00    +0.000 A 
ATOM      6  C   UNL     1      33.968   4.595  34.202  0.00  0.00    +0.000 A 
ENDROOT
BRANCH   1   8
ATOM      7  C   UNL     1      34.099   7.023  35.684  0.00  0.00    +0.000 C 
ATOM      8  C   UNL     1      34.931   5.820  36.176  0.00  0.00    +0.000 C 
ATOM      9  C   UNL     1      34.886   5.663  37.650  0.00  0.00    +0.000 C 
ATOM     10  C   UNL     1      36.316   6.116  35.687  0.00  0.00    +0.000 C 
ENDBRANCH   1   8
BRANCH   4  11
ATOM     11  O   UNL     1      33.034   1.075  33.618  0.00  0.00    +0.000 OA
BRANCH  11  12
ATOM     12  C   UNL     1      33.898   0.093  33.176  0.00  0.00    +0.000 C 
ATOM     13  O   UNL     1      34.512   0.300  32.127  0.00  0.00    +0.000 OA
BRANCH  12  14
ATOM     14  C   UNL     1      34.111  -1.170  33.877  0.00  0.00    +0.000 A 
ATOM     15  C   UNL     1      34.890  -1.222  35.012  0.00  0.00    +0.000 A 
ATOM     16  C   UNL     1      35.091  -2.398  35.734  0.00  0.00    +0.000 A 
ATOM     17  C   UNL     1      34.492  -3.557  35.291  0.00  0.00    +0.000 A 
ATOM     18  C   UNL     1      33.714  -3.535  34.165  0.00  0.00    +0.000 A 
ATOM     19  N   UNL     1      33.134  -4.753  33.765  0.00  0.00    +0.000 NA
ATOM     20  C   UNL     1      33.523  -2.336  33.456  0.00  0.00    +0.000 A 
ENDBRANCH  12  14
ENDBRANCH  11  12
ENDBRANCH   4  11
TORSDOF 4
ENDMDL
MODEL 8
REMARK VINA RESULT:      -6.5     18.445     20.781
REMARK  Name = 
REMARK  4 active torsions:
REMARK  status: ('A' for Active; 'I' for Inactive)
REMARK    1  A    between atoms: C_2  and  C_5
REMARK    2  A    between atoms: C_8  and  O_9
REMARK    3  A    between atoms: O_9  and  C_10
REMARK    4  A    between atoms: C_10  and  C_12
REMARK                            x       y       z     vdW  Elec       q    Type
REMARK                         _______ _______ _______ _____ _____    ______ ____
ROOT
ATOM      1  C   UNL     1      30.989  24.384  24.582  0.00  0.00    +0.000 A 
ATOM      2  C   UNL     1      30.510  23.102  24.581  0.00  0.00    +0.000 A 
ATOM      3  C   UNL     1      29.352  22.771  23.872  0.00  0.00    +0.000 A 
ATOM      4  C   UNL     1      28.650  23.732  23.149  0.00  0.00    +0.000 A 
ATOM      5  C   UNL     1      29.137  25.019  23.163  0.00  0.00    +0.000 A 
ATOM      6  C   UNL     1      30.290  25.345  23.870  0.00  0.00    +0.000 A 
ENDROOT
BRANCH   1   8
ATOM      7  C   UNL     1      32.121  24.258  26.776  0.00  0.00    +0.000 C 
ATOM      8  C   UNL     1      32.255  24.733  25.315  0.00  0.00    +0.000 C 
ATOM      9  C   UNL     1      33.418  24.125  24.624  0.00  0.00    +0.000 C 
ATOM     10  C   UNL     1      32.389  26.221  25.431  0.00  0.00    +0.000 C 
ENDBRANCH   1   8
BRANCH   4  11
ATOM     11  O   UNL     1      27.505  23.402  22.431  0.00  0.00    +0.000 OA
BRANCH  11  12
ATOM     12  C   UNL     1      26.255  23.328  23.015  0.00  0.00    +0.000 C 
ATOM     13  O   UNL     1      25.363  22.754  22.388  0.00  0.00    +0.000 OA
BRANCH  12  14
ATOM     14  C   UNL     1      25.940  23.899  24.321  0.00  0.00    +0.000 A 
ATOM     15  C   UNL     1      26.088  23.152  25.470  0.00  0.00    +0.000 A 
ATOM     16  C   UNL     1      25.833  23.668  26.740  0.00  0.00    +0.000 A 
ATOM     17  C   UNL     1      25.411  24.975  26.852  0.00  0.00    +0.000 A 
ATOM     18  C   UNL     1      25.254  25.739  25.727  0.00  0.00    +0.000 A 
ATOM     19  N   UNL     1      24.817  27.063  25.911  0.00  0.00    +0.000 NA
ATOM     20  C   UNL     1      25.520  25.198  24.458  0.00  0.00    +0.000 A 
ENDBRANCH  12  14
ENDBRANCH  11  12
ENDBRANCH   4  11
TORSDOF 4
ENDMDL
MODEL 9
REMARK VINA RESULT:      -6.4     17.705     19.932
REMARK  Name = 
REMARK  4 active torsions:
REMARK  status: ('A' for Active; 'I' for Inactive)
REMARK    1  A    between atoms: C_2  and  C_5
REMARK    2  A    between atoms: C_8  and  O_9
REMARK    3  A    between atoms: O_9  and  C_10
REMARK    4  A    between atoms: C_10  and  C_12
REMARK                            x       y       z     vdW  Elec       q    Type
REMARK                         _______ _______ _______ _____ _____    ______ ____
ROOT
ATOM      1  C   UNL     1      28.191  22.735  28.677  0.00  0.00    +0.000 A 
ATOM      2  C   UNL     1      29.556  22.817  28.617  0.00  0.00    +0.000 A 
ATOM      3  C   UNL     1      30.231  22.624  27.409  0.00  0.00    +0.000 A 
ATOM      4  C   UNL     1      29.541  22.343  26.233  0.00  0.00    +0.000 A 
ATOM      5  C   UNL     1      28.170  22.257  26.306  0.00  0.00    +0.000 A 
ATOM      6  C   UNL     1      27.499  22.448  27.510  0.00  0.00    +0.000 A 
ENDROOT
BRANCH   1   8
ATOM      7  C   UNL     1      26.473  24.144  29.763  0.00  0.00    +0.000 C 
ATOM      8  C   UNL     1      27.460  22.977  29.969  0.00  0.00    +0.000 C 
ATOM      9  C   UNL     1      26.783  21.730  30.402  0.00  0.00    +0.000 C 
ATOM     10  C   UNL     1      28.410  23.489  31.009  0.00  0.00    +0.000 C 
ENDBRANCH   1   8
BRANCH   4  11
ATOM     11  O   UNL     1      30.211  22.166  25.026  0.00  0.00    +0.000 OA
BRANCH  11  12
ATOM     12  C   UNL     1      30.534  23.220  24.193  0.00  0.00    +0.000 C 
ATOM     13  O   UNL     1      31.719  23.549  24.118  0.00  0.00    +0.000 OA
BRANCH  12  14
ATOM     14  C   UNL     1      29.548  23.961  23.411  0.00  0.00    +0.000 A 
ATOM     15  C   UNL     1      29.730  25.298  23.134  0.00  0.00    +0.000 A 
ATOM     16  C   UNL     1      28.833  26.035  22.362  0.00  0.00    +0.000 A 
ATOM     17  C   UNL     1      27.716  25.403  21.860  0.00  0.00    +0.000 A 
ATOM     18  C   UNL     1      27.509  24.076  22.122  0.00  0.00    +0.000 A 
ATOM     19  N   UNL     1      26.347  23.493  21.583  0.00  0.00    +0.000 NA
ATOM     20  C   UNL     1      28.429  23.353  22.900  0.00  0.00    +0.000 A 
ENDBRANCH  12  14
ENDBRANCH  11  12
ENDBRANCH   4  11
TORSDOF 4
ENDMDL
MODEL 10
REMARK VINA RESULT:      -6.4     17.367     19.339
REMARK  Name = 
REMARK  4 active torsions:
REMARK  status: ('A' for Active; 'I' for Inactive)
REMARK    1  A    between atoms: C_2  and  C_5
REMARK    2  A    between atoms: C_8  and  O_9
REMARK    3  A    between atoms: O_9  and  C_10
REMARK    4  A    between atoms: C_10  and  C_12
REMARK                            x       y       z     vdW  Elec       q    Type
REMARK                         _______ _______ _______ _____ _____    ______ ____
ROOT
ATOM      1  C   UNL     1      26.894  23.144  28.419  0.00  0.00    +0.000 A 
ATOM      2  C   UNL     1      26.022  23.927  27.713  0.00  0.00    +0.000 A 
ATOM      3  C   UNL     1      25.995  23.887  26.316  0.00  0.00    +0.000 A 
ATOM      4  C   UNL     1      26.853  23.055  25.602  0.00  0.00    +0.000 A 
ATOM      5  C   UNL     1      27.730  22.278  26.322  0.00  0.00    +0.000 A 
ATOM      6  C   UNL     1      27.755  22.320  27.713  0.00  0.00    +0.000 A 
ENDROOT
BRANCH   1   8
ATOM      7  C   UNL     1      28.363  23.229  30.407  0.00  0.00    +0.000 C 
ATOM      8  C   UNL     1      26.900  23.160  29.923  0.00  0.00    +0.000 C 
ATOM      9  C   UNL     1      26.085  24.297  30.415  0.00  0.00    +0.000 C 
ATOM     10  C   UNL     1      26.407  21.848  30.454  0.00  0.00    +0.000 C 
ENDBRANCH   1   8
BRANCH   4  11
ATOM     11  O   UNL     1      26.817  23.003  24.212  0.00  0.00    +0.000 OA
BRANCH  11  12
ATOM     12  C   UNL     1      27.907  23.327  23.426  0.00  0.00    +0.000 C 
ATOM     13  O   UNL     1      27.773  23.255  22.203  0.00  0.00    +0.000 OA
BRANCH  12  14
ATOM     14  C   UNL     1      29.199  23.737  23.969  0.00  0.00    +0.000 A 
ATOM     15  C   UNL     1      30.200  22.813  24.176  0.00  0.00    +0.000 A 
ATOM     16  C   UNL     1      31.461  23.166  24.658  0.00  0.00    +0.000 A 
ATOM     17  C   UNL     1      31.713  24.490  24.945  0.00  0.00    +0.000 A 
ATOM     18  C   UNL     1      30.736  25.428  24.751  0.00  0.00    +0.000 A 
ATOM     19  N   UNL     1      31.057  26.760  25.067  0.00  0.00    +0.000 NA
ATOM     20  C   UNL     1      29.474  25.049  24.261  0.00  0.00    +0.000 A 
ENDBRANCH  12  14
ENDBRANCH  11  12
ENDBRANCH   4  11
TORSDOF 4
ENDMDL
