MODEL 1
REMARK VINA RESULT:      -7.7      0.000      0.000
REMARK  Name = 
REMARK  4 active torsions:
REMARK  status: ('A' for Active; 'I' for Inactive)
REMARK    1  A    between atoms: C_2  and  C_4
REMARK    2  A    between atoms: C_4  and  C_5
REMARK    3  A    between atoms: N_9  and  C_10
REMARK    4  A    between atoms: C_10  and  C_11
REMARK                            x       y       z     vdW  Elec       q    Type
REMARK                         _______ _______ _______ _____ _____    ______ ____
ROOT
ATOM      1  C   UNL     1      16.078  11.798  33.052  0.00  0.00    +0.000 C 
ATOM      2  N   UNL     1      16.176  10.268  33.475  0.00  0.00    +0.000 NA
ATOM      3  C   UNL     1      16.568  10.322  34.819  0.00  0.00    +0.000 C 
ATOM      4  O   UNL     1      17.208   9.396  35.387  0.00  0.00    +0.000 OA
ATOM      5  N   UNL     1      16.140  11.535  35.396  0.00  0.00    +0.000 N 
ATOM      6  C   UNL     1      15.462  12.290  34.433  0.00  0.00    +0.000 C 
ATOM      7  O   UNL     1      14.593  13.153  34.442  0.00  0.00    +0.000 OA
ENDROOT
BRANCH   1   8
ATOM      8  C   UNL     1      14.609  11.562  32.313  0.00  0.00    +0.000 C 
BRANCH   8  10
ATOM      9  C   UNL     1      13.597  13.460  31.148  0.00  0.00    +0.000 C 
ATOM     10  C   UNL     1      14.649  12.390  31.062  0.00  0.00    +0.000 C 
ATOM     11  C   UNL     1      16.003  12.883  30.683  0.00  0.00    +0.000 C 
ENDBRANCH   8  10
ENDBRANCH   1   8
BRANCH   5  12
ATOM     12  C   UNL     1      16.331  12.003  36.766  0.00  0.00    +0.000 C 
BRANCH  12  13
ATOM     13  C   UNL     1      15.237  11.445  37.636  0.00  0.00    +0.000 A 
ATOM     14  C   UNL     1      13.927  11.748  37.341  0.00  0.00    +0.000 A 
ATOM     15  C   UNL     1      12.958  11.212  38.170  0.00  0.00    +0.000 A 
ATOM     16  C   UNL     1      13.264  10.403  39.251  0.00  0.00    +0.000 A 
ATOM     17  C   UNL     1      14.571  10.110  39.532  0.00  0.00    +0.000 A 
ATOM     18  C   UNL     1      14.969   9.313  40.589  0.00  0.00    +0.000 A 
ATOM     19  C   UNL     1      16.301   9.064  40.807  0.00  0.00    +0.000 A 
ATOM     20  C   UNL     1      17.270   9.593  39.990  0.00  0.00    +0.000 A 
ATOM     21  C   UNL     1      16.891  10.379  38.944  0.00  0.00    +0.000 A 
ATOM     22  C   UNL     1      15.550  10.645  38.705  0.00  0.00    +0.000 A 
ENDBRANCH  12  13
ENDBRANCH   5  12
TORSDOF 4
ENDMDL
MODEL 2
REMARK VINA RESULT:      -7.5      1.987      3.209
REMARK  Name = 
REMARK  4 active torsions:
REMARK  status: ('A' for Active; 'I' for Inactive)
REMARK    1  A    between atoms: C_2  and  C_4
REMARK    2  A    between atoms: C_4  and  C_5
REMARK    3  A    between atoms: N_9  and  C_10
REMARK    4  A    between atoms: C_10  and  C_11
REMARK                            x       y       z     vdW  Elec       q    Type
REMARK                         _______ _______ _______ _____ _____    ______ ____
ROOT
ATOM      1  C   UNL     1      16.534  11.849  33.489  0.00  0.00    +0.000 C 
ATOM      2  N   UNL     1      16.901  10.306  33.367  0.00  0.00    +0.000 NA
ATOM      3  C   UNL     1      17.148   9.921  34.691  0.00  0.00    +0.000 C 
ATOM      4  O   UNL     1      17.908   8.963  34.998  0.00  0.00    +0.000 OA
ATOM      5  N   UNL     1      16.431  10.752  35.575  0.00  0.00    +0.000 N 
ATOM      6  C   UNL     1      15.706  11.694  34.837  0.00  0.00    +0.000 C 
ATOM      7  O   UNL     1      14.682  12.345  35.005  0.00  0.00    +0.000 OA
ENDROOT
BRANCH   1   8
ATOM      8  C   UNL     1      15.218  11.676  32.489  0.00  0.00    +0.000 C 
BRANCH   8  10
ATOM      9  C   UNL     1      16.239  12.915  30.644  0.00  0.00    +0.000 C 
ATOM     10  C   UNL     1      15.154  12.940  31.684  0.00  0.00    +0.000 C 
ATOM     11  C   UNL     1      13.801  13.278  31.157  0.00  0.00    +0.000 C 
ENDBRANCH   8  10
ENDBRANCH   1   8
BRANCH   5  12
ATOM     12  C   UNL     1      16.396  10.704  37.035  0.00  0.00    +0.000 C 
BRANCH  12  13
ATOM     13  C   UNL     1      17.673  11.280  37.580  0.00  0.00    +0.000 A 
ATOM     14  C   UNL     1      17.993  12.589  37.296  0.00  0.00    +0.000 A 
ATOM     15  C   UNL     1      19.179  13.072  37.821  0.00  0.00    +0.000 A 
ATOM     16  C   UNL     1      20.022  12.298  38.599  0.00  0.00    +0.000 A 
ATOM     17  C   UNL     1      19.691  10.999  38.873  0.00  0.00    +0.000 A 
ATOM     18  C   UNL     1      20.471  10.153  39.639  0.00  0.00    +0.000 A 
ATOM     19  C   UNL     1      20.072   8.861  39.871  0.00  0.00    +0.000 A 
ATOM     20  C   UNL     1      18.898   8.372  39.354  0.00  0.00    +0.000 A 
ATOM     21  C   UNL     1      18.119   9.195  38.597  0.00  0.00    +0.000 A 
ATOM     22  C   UNL     1      18.503  10.506  38.350  0.00  0.00    +0.000 A 
ENDBRANCH  12  13
ENDBRANCH   5  12
TORSDOF 4
ENDMDL
MODEL 3
REMARK VINA RESULT:      -6.7     19.463     22.733
REMARK  Name = 
REMARK  4 active torsions:
REMARK  status: ('A' for Active; 'I' for Inactive)
REMARK    1  A    between atoms: C_2  and  C_4
REMARK    2  A    between atoms: C_4  and  C_5
REMARK    3  A    between atoms: N_9  and  C_10
REMARK    4  A    between atoms: C_10  and  C_11
REMARK                            x       y       z     vdW  Elec       q    Type
REMARK                         _______ _______ _______ _____ _____    ______ ____
ROOT
ATOM      1  C   UNL     1      28.079  26.255  21.193  0.00  0.00    +0.000 C 
ATOM      2  N   UNL     1      28.048  26.963  22.616  0.00  0.00    +0.000 NA
ATOM      3  C   UNL     1      27.557  25.966  23.469  0.00  0.00    +0.000 C 
ATOM      4  O   UNL     1      26.936  26.219  24.537  0.00  0.00    +0.000 OA
ATOM      5  N   UNL     1      27.864  24.693  22.948  0.00  0.00    +0.000 N 
ATOM      6  C   UNL     1      28.561  24.844  21.744  0.00  0.00    +0.000 C 
ATOM      7  O   UNL     1      29.371  24.182  21.107  0.00  0.00    +0.000 OA
ENDROOT
BRANCH   1   8
ATOM      8  C   UNL     1      29.611  26.819  20.879  0.00  0.00    +0.000 C 
BRANCH   8  10
ATOM      9  C   UNL     1      29.772  29.102  20.014  0.00  0.00    +0.000 C 
ATOM     10  C   UNL     1      29.483  27.671  19.651  0.00  0.00    +0.000 C 
ATOM     11  C   UNL     1      30.232  27.172  18.463  0.00  0.00    +0.000 C 
ENDBRANCH   8  10
ENDBRANCH   1   8
BRANCH   5  12
ATOM     12  C   UNL     1      27.545  23.383  23.510  0.00  0.00    +0.000 C 
BRANCH  12  13
ATOM     13  C   UNL     1      28.554  23.042  24.572  0.00  0.00    +0.000 A 
ATOM     14  C   UNL     1      29.850  22.766  24.200  0.00  0.00    +0.000 A 
ATOM     15  C   UNL     1      30.740  22.457  25.213  0.00  0.00    +0.000 A 
ATOM     16  C   UNL     1      30.372  22.422  26.546  0.00  0.00    +0.000 A 
ATOM     17  C   UNL     1      29.080  22.698  26.902  0.00  0.00    +0.000 A 
ATOM     18  C   UNL     1      28.622  22.686  28.206  0.00  0.00    +0.000 A 
ATOM     19  C   UNL     1      27.310  22.975  28.484  0.00  0.00    +0.000 A 
ATOM     20  C   UNL     1      26.418  23.282  27.485  0.00  0.00    +0.000 A 
ATOM     21  C   UNL     1      26.856  23.297  26.195  0.00  0.00    +0.000 A 
ATOM     22  C   UNL     1      28.180  23.009  25.891  0.00  0.00    +0.000 A 
ENDBRANCH  12  13
ENDBRANCH   5  12
TORSDOF 4
ENDMDL
MODEL 4
REMARK VINA RESULT:      -6.5     29.136     32.099
REMARK  Name = 
REMARK  4 active torsions:
REMARK  status: ('A' for Active; 'I' for Inactive)
REMARK    1  A    between atoms: C_2  and  C_4
REMARK    2  A    between atoms: C_4  and  C_5
REMARK    3  A    between atoms: N_9  and  C_10
REMARK    4  A    between atoms: C_10  and  C_11
REMARK                            x       y       z     vdW  Elec       q    Type
REMARK                         _______ _______ _______ _____ _____    ______ ____
ROOT
ATOM      1  C   UNL     1      30.056  23.025  11.911  0.00  0.00    +0.000 C 
ATOM      2  N   UNL     1      29.440  22.275  10.650  0.00  0.00    +0.000 NA
ATOM      3  C   UNL     1      30.500  21.482  10.190  0.00  0.00    +0.000 C 
ATOM      4  O   UNL     1      30.613  21.115   8.989  0.00  0.00    +0.000 OA
ATOM      5  N   UNL     1      31.374  21.182  11.255  0.00  0.00    +0.000 N 
ATOM      6  C   UNL     1      30.894  21.777  12.426  0.00  0.00    +0.000 C 
ATOM      7  O   UNL     1      30.983  21.554  13.627  0.00  0.00    +0.000 OA
ENDROOT
BRANCH   1   8
ATOM      8  C   UNL     1      28.716  22.694  12.837  0.00  0.00    +0.000 C 
BRANCH   8  10
ATOM      9  C   UNL     1      26.594  23.902  12.979  0.00  0.00    +0.000 C 
ATOM     10  C   UNL     1      28.085  24.024  13.123  0.00  0.00    +0.000 C 
ATOM     11  C   UNL     1      28.532  24.668  14.391  0.00  0.00    +0.000 C 
ENDBRANCH   8  10
ENDBRANCH   1   8
BRANCH   5  12
ATOM     12  C   UNL     1      32.597  20.385  11.224  0.00  0.00    +0.000 C 
BRANCH  12  13
ATOM     13  C   UNL     1      33.773  21.294  10.995  0.00  0.00    +0.000 A 
ATOM     14  C   UNL     1      33.573  22.503  10.367  0.00  0.00    +0.000 A 
ATOM     15  C   UNL     1      34.686  23.303  10.179  0.00  0.00    +0.000 A 
ATOM     16  C   UNL     1      35.953  22.930  10.593  0.00  0.00    +0.000 A 
ATOM     17  C   UNL     1      36.138  21.725  11.215  0.00  0.00    +0.000 A 
ATOM     18  C   UNL     1      37.364  21.270  11.661  0.00  0.00    +0.000 A 
ATOM     19  C   UNL     1      37.470  20.049  12.277  0.00  0.00    +0.000 A 
ATOM     20  C   UNL     1      36.371  19.247  12.468  0.00  0.00    +0.000 A 
ATOM     21  C   UNL     1      35.156  19.684  12.033  0.00  0.00    +0.000 A 
ATOM     22  C   UNL     1      35.025  20.916  11.408  0.00  0.00    +0.000 A 
ENDBRANCH  12  13
ENDBRANCH   5  12
TORSDOF 4
ENDMDL
MODEL 5
REMARK VINA RESULT:      -6.5     19.611     22.790
REMARK  Name = 
REMARK  4 active torsions:
REMARK  status: ('A' for Active; 'I' for Inactive)
REMARK    1  A    between atoms: C_2  and  C_4
REMARK    2  A    between atoms: C_4  and  C_5
REMARK    3  A    between atoms: N_9  and  C_10
REMARK    4  A    between atoms: C_10  and  C_11
REMARK                            x       y       z     vdW  Elec       q    Type
REMARK                         _______ _______ _______ _____ _____    ______ ____
ROOT
ATOM      1  C   UNL     1      29.073  27.009  22.889  0.00  0.00    +0.000 C 
ATOM      2  N   UNL     1      29.369  26.417  21.443  0.00  0.00    +0.000 NA
ATOM      3  C   UNL     1      29.144  25.043  21.598  0.00  0.00    +0.000 C 
ATOM      4  O   UNL     1      29.703  24.169  20.882  0.00  0.00    +0.000 OA
ATOM      5  N   UNL     1      28.226  24.821  22.644  0.00  0.00    +0.000 N 
ATOM      6  C   UNL     1      27.840  26.051  23.187  0.00  0.00    +0.000 C 
ATOM      7  O   UNL     1      26.857  26.484  23.777  0.00  0.00    +0.000 OA
ENDROOT
BRANCH   1   8
ATOM      8  C   UNL     1      28.151  28.241  22.260  0.00  0.00    +0.000 C 
BRANCH   8  10
ATOM      9  C   UNL     1      29.828  29.262  23.720  0.00  0.00    +0.000 C 
ATOM     10  C   UNL     1      28.908  29.503  22.555  0.00  0.00    +0.000 C 
ATOM     11  C   UNL     1      29.561  30.131  21.372  0.00  0.00    +0.000 C 
ENDBRANCH   8  10
ENDBRANCH   1   8
BRANCH   5  12
ATOM     12  C   UNL     1      27.709  23.549  23.141  0.00  0.00    +0.000 C 
BRANCH  12  13
ATOM     13  C   UNL     1      28.514  23.120  24.337  0.00  0.00    +0.000 A 
ATOM     14  C   UNL     1      29.813  22.700  24.154  0.00  0.00    +0.000 A 
ATOM     15  C   UNL     1      30.512  22.316  25.284  0.00  0.00    +0.000 A 
ATOM     16  C   UNL     1      29.957  22.344  26.552  0.00  0.00    +0.000 A 
ATOM     17  C   UNL     1      28.665  22.764  26.719  0.00  0.00    +0.000 A 
ATOM     18  C   UNL     1      28.029  22.825  27.944  0.00  0.00    +0.000 A 
ATOM     19  C   UNL     1      26.730  23.258  28.032  0.00  0.00    +0.000 A 
ATOM     20  C   UNL     1      26.027  23.641  26.916  0.00  0.00    +0.000 A 
ATOM     21  C   UNL     1      26.642  23.586  25.701  0.00  0.00    +0.000 A 
ATOM     22  C   UNL     1      27.956  23.151  25.589  0.00  0.00    +0.000 A 
ENDBRANCH  12  13
ENDBRANCH   5  12
TORSDOF 4
ENDMDL
MODEL 6
REMARK VINA RESULT:      -6.4      3.401      7.390
REMARK  Name = 
REMARK  4 active torsions:
REMARK  status: ('A' for Active; 'I' for Inactive)
REMARK    1  A    between atoms: C_2  and  C_4
REMARK    2  A    between atoms: C_4  and  C_5
REMARK    3  A    between atoms: N_9  and  C_10
REMARK    4  A    between atoms: C_10  and  C_11
REMARK                            x       y       z     vdW  Elec       q    Type
REMARK                         _______ _______ _______ _____ _____    ______ ____
ROOT
ATOM      1  C   UNL     1      18.009   8.187  40.103  0.00  0.00    +0.000 C 
ATOM      2  N   UNL     1      19.483   8.539  40.588  0.00  0.00    +0.000 NA
ATOM      3  C   UNL     1      19.929   9.466  39.637  0.00  0.00    +0.000 C 
ATOM      4  O   UNL     1      21.148   9.634  39.358  0.00  0.00    +0.000 OA
ATOM      5  N   UNL     1      18.830  10.145  39.074  0.00  0.00    +0.000 N 
ATOM      6  C   UNL     1      17.648   9.668  39.652  0.00  0.00    +0.000 C 
ATOM      7  O   UNL     1      16.525  10.113  39.854  0.00  0.00    +0.000 OA
ENDROOT
BRANCH   1   8
ATOM      8  C   UNL     1      17.401   8.351  41.641  0.00  0.00    +0.000 C 
BRANCH   8  10
ATOM      9  C   UNL     1      17.196   5.923  41.421  0.00  0.00    +0.000 C 
ATOM     10  C   UNL     1      16.485   7.180  41.839  0.00  0.00    +0.000 C 
ATOM     11  C   UNL     1      15.843   7.108  43.183  0.00  0.00    +0.000 C 
ENDBRANCH   8  10
ENDBRANCH   1   8
BRANCH   5  12
ATOM     12  C   UNL     1      18.836  11.189  38.053  0.00  0.00    +0.000 C 
BRANCH  12  13
ATOM     13  C   UNL     1      18.224  10.650  36.790  0.00  0.00    +0.000 A 
ATOM     14  C   UNL     1      18.778   9.536  36.199  0.00  0.00    +0.000 A 
ATOM     15  C   UNL     1      18.179   9.079  35.039  0.00  0.00    +0.000 A 
ATOM     16  C   UNL     1      17.073   9.692  34.477  0.00  0.00    +0.000 A 
ATOM     17  C   UNL     1      16.533  10.798  35.074  0.00  0.00    +0.000 A 
ATOM     18  C   UNL     1      15.431  11.475  34.586  0.00  0.00    +0.000 A 
ATOM     19  C   UNL     1      14.946  12.578  35.242  0.00  0.00    +0.000 A 
ATOM     20  C   UNL     1      15.534  13.040  36.394  0.00  0.00    +0.000 A 
ATOM     21  C   UNL     1      16.621  12.383  36.887  0.00  0.00    +0.000 A 
ATOM     22  C   UNL     1      17.128  11.264  36.240  0.00  0.00    +0.000 A 
ENDBRANCH  12  13
ENDBRANCH   5  12
TORSDOF 4
ENDMDL
MODEL 7
REMARK VINA RESULT:      -6.4      2.374      3.974
REMARK  Name = 
REMARK  4 active torsions:
REMARK  status: ('A' for Active; 'I' for Inactive)
REMARK    1  A    between atoms: C_2  and  C_4
REMARK    2  A    between atoms: C_4  and  C_5
REMARK    3  A    between atoms: N_9  and  C_10
REMARK    4  A    between atoms: C_10  and  C_11
REMARK                            x       y       z     vdW  Elec       q    Type
REMARK                         _______ _______ _______ _____ _____    ______ ____
ROOT
ATOM      1  C   UNL     1      16.749  11.762  34.243  0.00  0.00    +0.000 C 
ATOM      2  N   UNL     1      16.785  10.177  34.112  0.00  0.00    +0.000 NA
ATOM      3  C   UNL     1      17.037   9.745  35.421  0.00  0.00    +0.000 C 
ATOM      4  O   UNL     1      17.605   8.651  35.688  0.00  0.00    +0.000 OA
ATOM      5  N   UNL     1      16.565  10.702  36.342  0.00  0.00    +0.000 N 
ATOM      6  C   UNL     1      15.998  11.774  35.644  0.00  0.00    +0.000 C 
ATOM      7  O   UNL     1      15.142  12.619  35.872  0.00  0.00    +0.000 OA
ENDROOT
BRANCH   1   8
ATOM      8  C   UNL     1      15.361  11.864  33.333  0.00  0.00    +0.000 C 
BRANCH   8  10
ATOM      9  C   UNL     1      14.671  10.605  31.352  0.00  0.00    +0.000 C 
ATOM     10  C   UNL     1      15.758  11.458  31.944  0.00  0.00    +0.000 C 
ATOM     11  C   UNL     1      16.209  12.579  31.071  0.00  0.00    +0.000 C 
ENDBRANCH   8  10
ENDBRANCH   1   8
BRANCH   5  12
ATOM     12  C   UNL     1      16.617  10.657  37.801  0.00  0.00    +0.000 C 
BRANCH  12  13
ATOM     13  C   UNL     1      18.022  10.347  38.236  0.00  0.00    +0.000 A 
ATOM     14  C   UNL     1      18.342   9.057  38.599  0.00  0.00    +0.000 A 
ATOM     15  C   UNL     1      19.647   8.822  38.992  0.00  0.00    +0.000 A 
ATOM     16  C   UNL     1      20.608   9.818  39.028  0.00  0.00    +0.000 A 
ATOM     17  C   UNL     1      20.276  11.095  38.665  0.00  0.00    +0.000 A 
ATOM     18  C   UNL     1      21.168  12.151  38.670  0.00  0.00    +0.000 A 
ATOM     19  C   UNL     1      20.760  13.406  38.292  0.00  0.00    +0.000 A 
ATOM     20  C   UNL     1      19.467  13.649  37.901  0.00  0.00    +0.000 A 
ATOM     21  C   UNL     1      18.578  12.617  37.891  0.00  0.00    +0.000 A 
ATOM     22  C   UNL     1      18.968  11.340  38.269  0.00  0.00    +0.000 A 
ENDBRANCH  12  13
ENDBRANCH   5  12
TORSDOF 4
ENDMDL
MODEL 8
REMARK VINA RESULT:      -6.4     18.800     21.287
REMARK  Name = 
REMARK  4 active torsions:
REMARK  status: ('A' for Active; 'I' for Inactive)
REMARK    1  A    between atoms: C_2  and  C_4
REMARK    2  A    between atoms: C_4  and  C_5
REMARK    3  A    between atoms: N_9  and  C_10
REMARK    4  A    between atoms: C_10  and  C_11
REMARK                            x       y       z     vdW  Elec       q    Type
REMARK                         _______ _______ _______ _____ _____    ______ ____
ROOT
ATOM      1  C   UNL     1      30.737  23.310  24.687  0.00  0.00    +0.000 C 
ATOM      2  N   UNL     1      30.022  23.776  23.344  0.00  0.00    +0.000 NA
ATOM      3  C   UNL     1      28.726  23.258  23.465  0.00  0.00    +0.000 C 
ATOM      4  O   UNL     1      28.002  22.975  22.472  0.00  0.00    +0.000 OA
ATOM      5  N   UNL     1      28.390  23.116  24.827  0.00  0.00    +0.000 N 
ATOM      6  C   UNL     1      29.466  23.541  25.614  0.00  0.00    +0.000 C 
ATOM      7  O   UNL     1      29.606  23.998  26.741  0.00  0.00    +0.000 OA
ENDROOT
BRANCH   1   8
ATOM      8  C   UNL     1      31.377  24.823  24.940  0.00  0.00    +0.000 C 
BRANCH   8  10
ATOM      9  C   UNL     1      33.646  25.734  24.860  0.00  0.00    +0.000 C 
ATOM     10  C   UNL     1      32.801  24.594  25.355  0.00  0.00    +0.000 C 
ATOM     11  C   UNL     1      32.986  24.269  26.798  0.00  0.00    +0.000 C 
ENDBRANCH   8  10
ENDBRANCH   1   8
BRANCH   5  12
ATOM     12  C   UNL     1      27.144  22.619  25.405  0.00  0.00    +0.000 C 
BRANCH  12  13
ATOM     13  C   UNL     1      26.263  23.785  25.760  0.00  0.00    +0.000 A 
ATOM     14  C   UNL     1      25.717  24.544  24.749  0.00  0.00    +0.000 A 
ATOM     15  C   UNL     1      24.914  25.605  25.126  0.00  0.00    +0.000 A 
ATOM     16  C   UNL     1      24.655  25.913  26.450  0.00  0.00    +0.000 A 
ATOM     17  C   UNL     1      25.205  25.151  27.445  0.00  0.00    +0.000 A 
ATOM     18  C   UNL     1      25.002  25.383  28.792  0.00  0.00    +0.000 A 
ATOM     19  C   UNL     1      25.589  24.573  29.732  0.00  0.00    +0.000 A 
ATOM     20  C   UNL     1      26.388  23.518  29.368  0.00  0.00    +0.000 A 
ATOM     21  C   UNL     1      26.596  23.277  28.043  0.00  0.00    +0.000 A 
ATOM     22  C   UNL     1      26.012  24.083  27.075  0.00  0.00    +0.000 A 
ENDBRANCH  12  13
ENDBRANCH   5  12
TORSDOF 4
ENDMDL
MODEL 9
REMARK VINA RESULT:      -6.3      5.207      8.416
REMARK  Name = 
REMARK  4 active torsions:
REMARK  status: ('A' for Active; 'I' for Inactive)
REMARK    1  A    between atoms: C_2  and  C_4
REMARK    2  A    between atoms: C_4  and  C_5
REMARK    3  A    between atoms: N_9  and  C_10
REMARK    4  A    between atoms: C_10  and  C_11
REMARK                            x       y       z     vdW  Elec       q    Type
REMARK                         _______ _______ _______ _____ _____    ______ ____
ROOT
ATOM      1  C   UNL     1      17.586   8.554  39.921  0.00  0.00    +0.000 C 
ATOM      2  N   UNL     1      18.916   8.710  40.779  0.00  0.00    +0.000 NA
ATOM      3  C   UNL     1      19.908   8.921  39.812  0.00  0.00    +0.000 C 
ATOM      4  O   UNL     1      21.120   8.621  39.992  0.00  0.00    +0.000 OA
ATOM      5  N   UNL     1      19.340   9.502  38.660  0.00  0.00    +0.000 N 
ATOM      6  C   UNL     1      17.967   9.676  38.860  0.00  0.00    +0.000 C 
ATOM      7  O   UNL     1      17.103  10.430  38.430  0.00  0.00    +0.000 OA
ENDROOT
BRANCH   1   8
ATOM      8  C   UNL     1      16.749   9.581  40.924  0.00  0.00    +0.000 C 
BRANCH   8  10
ATOM      9  C   UNL     1      16.493   9.929  43.332  0.00  0.00    +0.000 C 
ATOM     10  C   UNL     1      16.710   8.898  42.259  0.00  0.00    +0.000 C 
ATOM     11  C   UNL     1      15.792   7.726  42.334  0.00  0.00    +0.000 C 
ENDBRANCH   8  10
ENDBRANCH   1   8
BRANCH   5  12
ATOM     12  C   UNL     1      20.007   9.890  37.419  0.00  0.00    +0.000 C 
BRANCH  12  13
ATOM     13  C   UNL     1      21.063  10.916  37.725  0.00  0.00    +0.000 A 
ATOM     14  C   UNL     1      20.717  12.041  38.439  0.00  0.00    +0.000 A 
ATOM     15  C   UNL     1      21.723  12.955  38.694  0.00  0.00    +0.000 A 
ATOM     16  C   UNL     1      23.026  12.771  38.265  0.00  0.00    +0.000 A 
ATOM     17  C   UNL     1      23.356  11.648  37.557  0.00  0.00    +0.000 A 
ATOM     18  C   UNL     1      24.629  11.381  37.088  0.00  0.00    +0.000 A 
ATOM     19  C   UNL     1      24.882  10.231  36.384  0.00  0.00    +0.000 A 
ATOM     20  C   UNL     1      23.890   9.319  36.124  0.00  0.00    +0.000 A 
ATOM     21  C   UNL     1      22.631   9.569  36.580  0.00  0.00    +0.000 A 
ATOM     22  C   UNL     1      22.351  10.726  37.296  0.00  0.00    +0.000 A 
ENDBRANCH  12  13
ENDBRANCH   5  12
TORSDOF 4
ENDMDL
MODEL 10
REMARK VINA RESULT:      -6.3     17.385     20.369
REMARK  Name = 
REMARK  4 active torsions:
REMARK  status: ('A' for Active; 'I' for Inactive)
REMARK    1  A    between atoms: C_2  and  C_4
REMARK    2  A    between atoms: C_4  and  C_5
REMARK    3  A    between atoms: N_9  and  C_10
REMARK    4  A    between atoms: C_10  and  C_11
REMARK                            x       y       z     vdW  Elec       q    Type
REMARK                         _______ _______ _______ _____ _____    ______ ____
ROOT
ATOM      1  C   UNL     1      25.754  24.593  29.362  0.00  0.00    +0.000 C 
ATOM      2  N   UNL     1      25.825  23.482  30.498  0.00  0.00    +0.000 NA
ATOM      3  C   UNL     1      26.570  22.454  29.906  0.00  0.00    +0.000 C 
ATOM      4  O   UNL     1      26.462  21.244  30.242  0.00  0.00    +0.000 OA
ATOM      5  N   UNL     1      27.422  22.986  28.916  0.00  0.00    +0.000 N 
ATOM      6  C   UNL     1      27.242  24.371  28.850  0.00  0.00    +0.000 C 
ATOM      7  O   UNL     1      27.923  25.333  28.513  0.00  0.00    +0.000 OA
ENDROOT
BRANCH   1   8
ATOM      8  C   UNL     1      26.148  25.800  30.436  0.00  0.00    +0.000 C 
BRANCH   8  10
ATOM      9  C   UNL     1      24.014  26.433  29.420  0.00  0.00    +0.000 C 
ATOM     10  C   UNL     1      24.889  26.591  30.633  0.00  0.00    +0.000 C 
ATOM     11  C   UNL     1      24.195  26.349  31.930  0.00  0.00    +0.000 C 
ENDBRANCH   8  10
ENDBRANCH   1   8
BRANCH   5  12
ATOM     12  C   UNL     1      28.367  22.276  28.059  0.00  0.00    +0.000 C 
BRANCH  12  13
ATOM     13  C   UNL     1      28.110  22.648  26.624  0.00  0.00    +0.000 A 
ATOM     14  C   UNL     1      26.817  22.637  26.151  0.00  0.00    +0.000 A 
ATOM     15  C   UNL     1      26.632  22.986  24.825  0.00  0.00    +0.000 A 
ATOM     16  C   UNL     1      27.680  23.335  23.991  0.00  0.00    +0.000 A 
ATOM     17  C   UNL     1      28.960  23.342  24.475  0.00  0.00    +0.000 A 
ATOM     18  C   UNL     1      30.066  23.676  23.717  0.00  0.00    +0.000 A 
ATOM     19  C   UNL     1      31.320  23.659  24.273  0.00  0.00    +0.000 A 
ATOM     20  C   UNL     1      31.514  23.313  25.588  0.00  0.00    +0.000 A 
ATOM     21  C   UNL     1      30.432  22.982  26.347  0.00  0.00    +0.000 A 
ATOM     22  C   UNL     1      29.154  22.992  25.805  0.00  0.00    +0.000 A 
ENDBRANCH  12  13
ENDBRANCH   5  12
TORSDOF 4
ENDMDL
