MODEL 1
REMARK VINA RESULT:      -5.0      0.000      0.000
REMARK  Name = 
REMARK  2 active torsions:
REMARK  status: ('A' for Active; 'I' for Inactive)
REMARK    1  A    between atoms: N_6  and  C_7
REMARK    2  A    between atoms: C_12  and  N_13
REMARK                            x       y       z     vdW  Elec       q    Type
REMARK                         _______ _______ _______ _____ _____    ______ ____
ROOT
ATOM      1  C   UNL     1      29.259  24.616  24.470  0.00  0.00    +0.000 A 
ATOM      2  C   UNL     1      30.537  24.381  24.036  0.00  0.00    +0.000 A 
ATOM      3  C   UNL     1      31.217  23.262  24.447  0.00  0.00    +0.000 A 
ATOM      4  C   UNL     1      30.678  22.328  25.297  0.00  0.00    +0.000 A 
ATOM      5  C   UNL     1      29.380  22.548  25.748  0.00  0.00    +0.000 A 
ATOM      6  C   UNL     1      28.708  23.690  25.319  0.00  0.00    +0.000 A 
ENDROOT
BRANCH   1  12
ATOM      7  C   UNL     1      29.284  25.492  20.911  0.00  0.00    +0.000 C 
ATOM      8  N   UNL     1      28.292  25.178  21.902  0.00  0.00    +0.000 N 
ATOM      9  C   UNL     1      27.554  23.947  21.789  0.00  0.00    +0.000 C 
ATOM     10  C   UNL     1      28.014  26.043  22.990  0.00  0.00    +0.000 C 
ATOM     11  N   UNL     1      27.228  27.221  22.847  0.00  0.00    +0.000 NA
ATOM     12  N   UNL     1      28.482  25.736  24.131  0.00  0.00    +0.000 NA
ENDBRANCH   1  12
BRANCH   6  13
ATOM     13  N   UNL     1      27.369  23.828  25.822  0.00  0.00    +0.000 N 
ATOM     14  C   UNL     1      26.257  23.090  25.260  0.00  0.00    +0.000 C 
ATOM     15  C   UNL     1      25.394  24.061  24.458  0.00  0.00    +0.000 C 
ATOM     16  S   UNL     1      25.080  25.494  25.541  0.00  0.00    +0.000 S 
ATOM     17  C   UNL     1      25.760  25.091  27.174  0.00  0.00    +0.000 C 
ATOM     18  C   UNL     1      27.206  24.757  26.955  0.00  0.00    +0.000 C 
ENDBRANCH   6  13
TORSDOF 2
ENDMDL
MODEL 2
REMARK VINA RESULT:      -5.0      1.946      4.351
REMARK  Name = 
REMARK  2 active torsions:
REMARK  status: ('A' for Active; 'I' for Inactive)
REMARK    1  A    between atoms: N_6  and  C_7
REMARK    2  A    between atoms: C_12  and  N_13
REMARK                            x       y       z     vdW  Elec       q    Type
REMARK                         _______ _______ _______ _____ _____    ______ ____
ROOT
ATOM      1  C   UNL     1      28.096  23.104  26.214  0.00  0.00    +0.000 A 
ATOM      2  C   UNL     1      28.981  22.315  26.902  0.00  0.00    +0.000 A 
ATOM      3  C   UNL     1      30.191  21.981  26.349  0.00  0.00    +0.000 A 
ATOM      4  C   UNL     1      30.588  22.403  25.103  0.00  0.00    +0.000 A 
ATOM      5  C   UNL     1      29.704  23.207  24.390  0.00  0.00    +0.000 A 
ATOM      6  C   UNL     1      28.481  23.533  24.969  0.00  0.00    +0.000 A 
ENDROOT
BRANCH   1  12
ATOM      7  C   UNL     1      28.005  24.290  29.681  0.00  0.00    +0.000 C 
ATOM      8  N   UNL     1      27.626  24.800  28.392  0.00  0.00    +0.000 N 
ATOM      9  C   UNL     1      28.360  25.906  27.833  0.00  0.00    +0.000 C 
ATOM     10  C   UNL     1      26.549  24.253  27.651  0.00  0.00    +0.000 C 
ATOM     11  N   UNL     1      25.189  24.537  27.956  0.00  0.00    +0.000 NA
ATOM     12  N   UNL     1      26.826  23.487  26.674  0.00  0.00    +0.000 NA
ENDBRANCH   1  12
BRANCH   6  13
ATOM     13  N   UNL     1      27.638  24.377  24.168  0.00  0.00    +0.000 N 
ATOM     14  C   UNL     1      26.597  23.839  23.317  0.00  0.00    +0.000 C 
ATOM     15  C   UNL     1      27.051  23.966  21.865  0.00  0.00    +0.000 C 
ATOM     16  S   UNL     1      27.608  25.689  21.643  0.00  0.00    +0.000 S 
ATOM     17  C   UNL     1      27.216  26.580  23.175  0.00  0.00    +0.000 C 
ATOM     18  C   UNL     1      27.892  25.825  24.282  0.00  0.00    +0.000 C 
ENDBRANCH   6  13
TORSDOF 2
ENDMDL
MODEL 3
REMARK VINA RESULT:      -4.9     37.866     39.494
REMARK  Name = 
REMARK  2 active torsions:
REMARK  status: ('A' for Active; 'I' for Inactive)
REMARK    1  A    between atoms: N_6  and  C_7
REMARK    2  A    between atoms: C_12  and  N_13
REMARK                            x       y       z     vdW  Elec       q    Type
REMARK                         _______ _______ _______ _____ _____    ______ ____
ROOT
ATOM      1  C   UNL     1       0.680  -2.136  21.321  0.00  0.00    +0.000 A 
ATOM      2  C   UNL     1       2.047  -2.072  21.396  0.00  0.00    +0.000 A 
ATOM      3  C   UNL     1       2.718  -2.697  22.416  0.00  0.00    +0.000 A 
ATOM      4  C   UNL     1       2.085  -3.410  23.404  0.00  0.00    +0.000 A 
ATOM      5  C   UNL     1       0.696  -3.488  23.345  0.00  0.00    +0.000 A 
ATOM      6  C   UNL     1       0.034  -2.846  22.302  0.00  0.00    +0.000 A 
ENDROOT
BRANCH   1  12
ATOM      7  C   UNL     1       1.850  -2.620  17.882  0.00  0.00    +0.000 C 
ATOM      8  N   UNL     1       0.638  -2.859  18.617  0.00  0.00    +0.000 N 
ATOM      9  C   UNL     1       0.227  -4.215  18.870  0.00  0.00    +0.000 C 
ATOM     10  C   UNL     1      -0.171  -1.800  19.099  0.00  0.00    +0.000 C 
ATOM     11  N   UNL     1      -1.049  -1.062  18.255  0.00  0.00    +0.000 NA
ATOM     12  N   UNL     1      -0.108  -1.517  20.337  0.00  0.00    +0.000 NA
ENDBRANCH   1  12
BRANCH   6  13
ATOM     13  N   UNL     1      -1.395  -2.991  22.312  0.00  0.00    +0.000 N 
ATOM     14  C   UNL     1      -2.041  -4.253  22.014  0.00  0.00    +0.000 C 
ATOM     15  C   UNL     1      -2.682  -4.149  20.632  0.00  0.00    +0.000 C 
ATOM     16  S   UNL     1      -3.653  -2.605  20.625  0.00  0.00    +0.000 S 
ATOM     17  C   UNL     1      -3.608  -1.936  22.311  0.00  0.00    +0.000 C 
ATOM     18  C   UNL     1      -2.158  -1.779  22.660  0.00  0.00    +0.000 C 
ENDBRANCH   6  13
TORSDOF 2
ENDMDL
MODEL 4
REMARK VINA RESULT:      -4.9     33.057     34.647
REMARK  Name = 
REMARK  2 active torsions:
REMARK  status: ('A' for Active; 'I' for Inactive)
REMARK    1  A    between atoms: N_6  and  C_7
REMARK    2  A    between atoms: C_12  and  N_13
REMARK                            x       y       z     vdW  Elec       q    Type
REMARK                         _______ _______ _______ _____ _____    ______ ____
ROOT
ATOM      1  C   UNL     1      19.006  -7.618  25.582  0.00  0.00    +0.000 A 
ATOM      2  C   UNL     1      19.908  -6.587  25.562  0.00  0.00    +0.000 A 
ATOM      3  C   UNL     1      19.675  -5.444  26.285  0.00  0.00    +0.000 A 
ATOM      4  C   UNL     1      18.552  -5.260  27.055  0.00  0.00    +0.000 A 
ATOM      5  C   UNL     1      17.625  -6.297  27.089  0.00  0.00    +0.000 A 
ATOM      6  C   UNL     1      17.881  -7.448  26.349  0.00  0.00    +0.000 A 
ENDROOT
BRANCH   1  12
ATOM      7  C   UNL     1      22.366  -9.081  25.610  0.00  0.00    +0.000 C 
ATOM      8  N   UNL     1      21.039  -9.504  25.967  0.00  0.00    +0.000 N 
ATOM      9  C   UNL     1      20.724  -9.727  27.354  0.00  0.00    +0.000 C 
ATOM     10  C   UNL     1      20.029  -9.713  24.995  0.00  0.00    +0.000 C 
ATOM     11  N   UNL     1      19.980 -10.879  24.181  0.00  0.00    +0.000 NA
ATOM     12  N   UNL     1      19.133  -8.820  24.865  0.00  0.00    +0.000 NA
ENDBRANCH   1  12
BRANCH   6  13
ATOM     13  N   UNL     1      16.878  -8.471  26.454  0.00  0.00    +0.000 N 
ATOM     14  C   UNL     1      16.867  -9.427  27.542  0.00  0.00    +0.000 C 
ATOM     15  C   UNL     1      17.307 -10.783  26.993  0.00  0.00    +0.000 C 
ATOM     16  S   UNL     1      16.303 -11.090  25.502  0.00  0.00    +0.000 S 
ATOM     17  C   UNL     1      15.076  -9.756  25.397  0.00  0.00    +0.000 C 
ATOM     18  C   UNL     1      15.853  -8.473  25.394  0.00  0.00    +0.000 C 
ENDBRANCH   6  13
TORSDOF 2
ENDMDL
MODEL 5
REMARK VINA RESULT:      -4.9      1.940      2.670
REMARK  Name = 
REMARK  2 active torsions:
REMARK  status: ('A' for Active; 'I' for Inactive)
REMARK    1  A    between atoms: N_6  and  C_7
REMARK    2  A    between atoms: C_12  and  N_13
REMARK                            x       y       z     vdW  Elec       q    Type
REMARK                         _______ _______ _______ _____ _____    ______ ____
ROOT
ATOM      1  C   UNL     1      28.821  24.240  25.193  0.00  0.00    +0.000 A 
ATOM      2  C   UNL     1      29.681  23.620  24.325  0.00  0.00    +0.000 A 
ATOM      3  C   UNL     1      30.424  22.542  24.734  0.00  0.00    +0.000 A 
ATOM      4  C   UNL     1      30.359  22.024  26.004  0.00  0.00    +0.000 A 
ATOM      5  C   UNL     1      29.490  22.639  26.900  0.00  0.00    +0.000 A 
ATOM      6  C   UNL     1      28.745  23.732  26.466  0.00  0.00    +0.000 A 
ENDROOT
BRANCH   1  12
ATOM      7  C   UNL     1      27.029  24.043  22.002  0.00  0.00    +0.000 C 
ATOM      8  N   UNL     1      26.685  24.250  23.383  0.00  0.00    +0.000 N 
ATOM      9  C   UNL     1      25.942  23.233  24.080  0.00  0.00    +0.000 C 
ATOM     10  C   UNL     1      27.051  25.427  24.081  0.00  0.00    +0.000 C 
ATOM     11  N   UNL     1      26.359  26.661  23.918  0.00  0.00    +0.000 NA
ATOM     12  N   UNL     1      28.031  25.361  24.889  0.00  0.00    +0.000 NA
ENDBRANCH   1  12
BRANCH   6  13
ATOM     13  N   UNL     1      27.864  24.295  27.452  0.00  0.00    +0.000 N 
ATOM     14  C   UNL     1      28.219  25.472  28.217  0.00  0.00    +0.000 C 
ATOM     15  C   UNL     1      28.534  25.037  29.647  0.00  0.00    +0.000 C 
ATOM     16  S   UNL     1      27.147  23.984  30.188  0.00  0.00    +0.000 S 
ATOM     17  C   UNL     1      25.888  24.045  28.882  0.00  0.00    +0.000 C 
ATOM     18  C   UNL     1      26.572  23.606  27.621  0.00  0.00    +0.000 C 
ENDBRANCH   6  13
TORSDOF 2
ENDMDL
MODEL 6
REMARK VINA RESULT:      -4.8     20.021     21.029
REMARK  Name = 
REMARK  2 active torsions:
REMARK  status: ('A' for Active; 'I' for Inactive)
REMARK    1  A    between atoms: N_6  and  C_7
REMARK    2  A    between atoms: C_12  and  N_13
REMARK                            x       y       z     vdW  Elec       q    Type
REMARK                         _______ _______ _______ _____ _____    ______ ____
ROOT
ATOM      1  C   UNL     1      26.661   6.379  16.883  0.00  0.00    +0.000 A 
ATOM      2  C   UNL     1      27.433   7.322  17.510  0.00  0.00    +0.000 A 
ATOM      3  C   UNL     1      27.944   7.083  18.761  0.00  0.00    +0.000 A 
ATOM      4  C   UNL     1      27.724   5.916  19.450  0.00  0.00    +0.000 A 
ATOM      5  C   UNL     1      26.944   4.945  18.829  0.00  0.00    +0.000 A 
ATOM      6  C   UNL     1      26.434   5.208  17.561  0.00  0.00    +0.000 A 
ENDROOT
BRANCH   1  12
ATOM      7  C   UNL     1      28.858   7.791  14.312  0.00  0.00    +0.000 C 
ATOM      8  N   UNL     1      28.071   6.599  14.474  0.00  0.00    +0.000 N 
ATOM      9  C   UNL     1      28.739   5.332  14.619  0.00  0.00    +0.000 C 
ATOM     10  C   UNL     1      26.654   6.629  14.493  0.00  0.00    +0.000 C 
ATOM     11  N   UNL     1      25.876   6.757  13.308  0.00  0.00    +0.000 NA
ATOM     12  N   UNL     1      26.070   6.527  15.617  0.00  0.00    +0.000 NA
ENDBRANCH   1  12
BRANCH   6  13
ATOM     13  N   UNL     1      25.653   4.145  16.991  0.00  0.00    +0.000 N 
ATOM     14  C   UNL     1      24.206   4.132  17.062  0.00  0.00    +0.000 C 
ATOM     15  C   UNL     1      23.785   3.065  18.070  0.00  0.00    +0.000 C 
ATOM     16  S   UNL     1      24.688   1.545  17.626  0.00  0.00    +0.000 S 
ATOM     17  C   UNL     1      25.560   1.875  16.069  0.00  0.00    +0.000 C 
ATOM     18  C   UNL     1      26.418   3.080  16.317  0.00  0.00    +0.000 C 
ENDBRANCH   6  13
TORSDOF 2
ENDMDL
MODEL 7
REMARK VINA RESULT:      -4.8     33.166     34.853
REMARK  Name = 
REMARK  2 active torsions:
REMARK  status: ('A' for Active; 'I' for Inactive)
REMARK    1  A    between atoms: N_6  and  C_7
REMARK    2  A    between atoms: C_12  and  N_13
REMARK                            x       y       z     vdW  Elec       q    Type
REMARK                         _______ _______ _______ _____ _____    ______ ____
ROOT
ATOM      1  C   UNL     1      18.361  -7.887  27.001  0.00  0.00    +0.000 A 
ATOM      2  C   UNL     1      17.867  -6.632  27.244  0.00  0.00    +0.000 A 
ATOM      3  C   UNL     1      18.504  -5.524  26.743  0.00  0.00    +0.000 A 
ATOM      4  C   UNL     1      19.646  -5.596  25.984  0.00  0.00    +0.000 A 
ATOM      5  C   UNL     1      20.162  -6.862  25.725  0.00  0.00    +0.000 A 
ATOM      6  C   UNL     1      19.502  -7.972  26.244  0.00  0.00    +0.000 A 
ENDROOT
BRANCH   1  12
ATOM      7  C   UNL     1      14.837  -8.405  26.139  0.00  0.00    +0.000 C 
ATOM      8  N   UNL     1      16.071  -9.119  25.963  0.00  0.00    +0.000 N 
ATOM      9  C   UNL     1      16.613  -9.265  24.637  0.00  0.00    +0.000 C 
ATOM     10  C   UNL     1      16.773  -9.690  27.053  0.00  0.00    +0.000 C 
ATOM     11  N   UNL     1      16.371 -10.910  27.667  0.00  0.00    +0.000 NA
ATOM     12  N   UNL     1      17.805  -9.083  27.482  0.00  0.00    +0.000 NA
ENDBRANCH   1  12
BRANCH   6  13
ATOM     13  N   UNL     1      20.096  -9.238  25.914  0.00  0.00    +0.000 N 
ATOM     14  C   UNL     1      20.706 -10.085  26.918  0.00  0.00    +0.000 C 
ATOM     15  C   UNL     1      22.222 -10.028  26.736  0.00  0.00    +0.000 C 
ATOM     16  S   UNL     1      22.545 -10.335  24.968  0.00  0.00    +0.000 S 
ATOM     17  C   UNL     1      20.958 -10.766  24.200  0.00  0.00    +0.000 C 
ATOM     18  C   UNL     1      20.028  -9.625  24.493  0.00  0.00    +0.000 C 
ENDBRANCH   6  13
TORSDOF 2
ENDMDL
MODEL 8
REMARK VINA RESULT:      -4.7     20.871     21.948
REMARK  Name = 
REMARK  2 active torsions:
REMARK  status: ('A' for Active; 'I' for Inactive)
REMARK    1  A    between atoms: N_6  and  C_7
REMARK    2  A    between atoms: C_12  and  N_13
REMARK                            x       y       z     vdW  Elec       q    Type
REMARK                         _______ _______ _______ _____ _____    ______ ____
ROOT
ATOM      1  C   UNL     1      26.369   3.203  17.117  0.00  0.00    +0.000 A 
ATOM      2  C   UNL     1      25.785   1.963  17.099  0.00  0.00    +0.000 A 
ATOM      3  C   UNL     1      24.666   1.710  17.852  0.00  0.00    +0.000 A 
ATOM      4  C   UNL     1      24.071   2.655  18.652  0.00  0.00    +0.000 A 
ATOM      5  C   UNL     1      24.649   3.921  18.682  0.00  0.00    +0.000 A 
ATOM      6  C   UNL     1      25.784   4.157  17.911  0.00  0.00    +0.000 A 
ENDROOT
BRANCH   1  12
ATOM      7  C   UNL     1      26.489   2.000  13.657  0.00  0.00    +0.000 C 
ATOM      8  N   UNL     1      26.575   3.269  14.325  0.00  0.00    +0.000 N 
ATOM      9  C   UNL     1      25.511   4.224  14.157  0.00  0.00    +0.000 C 
ATOM     10  C   UNL     1      27.679   3.615  15.145  0.00  0.00    +0.000 C 
ATOM     11  N   UNL     1      28.932   4.023  14.607  0.00  0.00    +0.000 NA
ATOM     12  N   UNL     1      27.525   3.564  16.406  0.00  0.00    +0.000 NA
ENDBRANCH   1  12
BRANCH   6  13
ATOM     13  N   UNL     1      26.303   5.494  17.992  0.00  0.00    +0.000 N 
ATOM     14  C   UNL     1      25.774   6.573  17.185  0.00  0.00    +0.000 C 
ATOM     15  C   UNL     1      26.796   6.906  16.100  0.00  0.00    +0.000 C 
ATOM     16  S   UNL     1      28.402   7.101  16.941  0.00  0.00    +0.000 S 
ATOM     17  C   UNL     1      28.087   7.008  18.726  0.00  0.00    +0.000 C 
ATOM     18  C   UNL     1      27.396   5.697  18.960  0.00  0.00    +0.000 C 
ENDBRANCH   6  13
TORSDOF 2
ENDMDL
MODEL 9
REMARK VINA RESULT:      -4.7     32.851     34.580
REMARK  Name = 
REMARK  2 active torsions:
REMARK  status: ('A' for Active; 'I' for Inactive)
REMARK    1  A    between atoms: N_6  and  C_7
REMARK    2  A    between atoms: C_12  and  N_13
REMARK                            x       y       z     vdW  Elec       q    Type
REMARK                         _______ _______ _______ _____ _____    ______ ____
ROOT
ATOM      1  C   UNL     1      18.673  -8.137  26.215  0.00  0.00    +0.000 A 
ATOM      2  C   UNL     1      17.888  -7.158  26.765  0.00  0.00    +0.000 A 
ATOM      3  C   UNL     1      18.288  -5.846  26.735  0.00  0.00    +0.000 A 
ATOM      4  C   UNL     1      19.469  -5.436  26.167  0.00  0.00    +0.000 A 
ATOM      5  C   UNL     1      20.280  -6.415  25.601  0.00  0.00    +0.000 A 
ATOM      6  C   UNL     1      19.856  -7.740  25.643  0.00  0.00    +0.000 A 
ENDROOT
BRANCH   1  12
ATOM      7  C   UNL     1      20.562 -10.137  28.637  0.00  0.00    +0.000 C 
ATOM      8  N   UNL     1      19.178  -9.894  28.337  0.00  0.00    +0.000 N 
ATOM      9  C   UNL     1      18.373  -9.163  29.281  0.00  0.00    +0.000 C 
ATOM     10  C   UNL     1      18.575 -10.354  27.139  0.00  0.00    +0.000 C 
ATOM     11  N   UNL     1      18.185 -11.710  26.952  0.00  0.00    +0.000 NA
ATOM     12  N   UNL     1      18.373  -9.510  26.211  0.00  0.00    +0.000 NA
ENDBRANCH   1  12
BRANCH   6  13
ATOM     13  N   UNL     1      20.748  -8.681  25.024  0.00  0.00    +0.000 N 
ATOM     14  C   UNL     1      22.037  -9.009  25.596  0.00  0.00    +0.000 C 
ATOM     15  C   UNL     1      23.121  -8.359  24.738  0.00  0.00    +0.000 C 
ATOM     16  S   UNL     1      22.752  -8.806  23.009  0.00  0.00    +0.000 S 
ATOM     17  C   UNL     1      21.371  -9.984  23.042  0.00  0.00    +0.000 C 
ATOM     18  C   UNL     1      20.257  -9.301  23.779  0.00  0.00    +0.000 C 
ENDBRANCH   6  13
TORSDOF 2
ENDMDL
MODEL 10
REMARK VINA RESULT:      -4.5     38.511     40.444
REMARK  Name = 
REMARK  2 active torsions:
REMARK  status: ('A' for Active; 'I' for Inactive)
REMARK    1  A    between atoms: N_6  and  C_7
REMARK    2  A    between atoms: C_12  and  N_13
REMARK                            x       y       z     vdW  Elec       q    Type
REMARK                         _______ _______ _______ _____ _____    ______ ____
ROOT
ATOM      1  C   UNL     1       0.493  -3.630  22.667  0.00  0.00    +0.000 A 
ATOM      2  C   UNL     1       1.838  -3.876  22.757  0.00  0.00    +0.000 A 
ATOM      3  C   UNL     1       2.737  -3.086  22.084  0.00  0.00    +0.000 A 
ATOM      4  C   UNL     1       2.361  -2.026  21.297  0.00  0.00    +0.000 A 
ATOM      5  C   UNL     1       0.999  -1.759  21.194  0.00  0.00    +0.000 A 
ATOM      6  C   UNL     1       0.104  -2.572  21.884  0.00  0.00    +0.000 A 
ENDROOT
BRANCH   1  12
ATOM      7  C   UNL     1      -1.169  -6.077  20.503  0.00  0.00    +0.000 C 
ATOM      8  N   UNL     1      -0.458  -6.099  21.752  0.00  0.00    +0.000 N 
ATOM      9  C   UNL     1       0.828  -6.745  21.815  0.00  0.00    +0.000 C 
ATOM     10  C   UNL     1      -0.983  -5.508  22.928  0.00  0.00    +0.000 C 
ATOM     11  N   UNL     1      -1.998  -6.130  23.709  0.00  0.00    +0.000 NA
ATOM     12  N   UNL     1      -0.512  -4.385  23.293  0.00  0.00    +0.000 NA
ENDBRANCH   1  12
BRANCH   6  13
ATOM     13  N   UNL     1      -1.279  -2.214  21.732  0.00  0.00    +0.000 N 
ATOM     14  C   UNL     1      -1.960  -1.359  22.682  0.00  0.00    +0.000 C 
ATOM     15  C   UNL     1      -2.916  -2.222  23.505  0.00  0.00    +0.000 C 
ATOM     16  S   UNL     1      -3.881  -3.209  22.314  0.00  0.00    +0.000 S 
ATOM     17  C   UNL     1      -3.443  -2.624  20.652  0.00  0.00    +0.000 C 
ATOM     18  C   UNL     1      -1.953  -2.761  20.540  0.00  0.00    +0.000 C 
ENDBRANCH   6  13
TORSDOF 2
ENDMDL
