MODEL 1
REMARK VINA RESULT:      -8.3      0.000      0.000
REMARK  Name = 
REMARK  7 active torsions:
REMARK  status: ('A' for Active; 'I' for Inactive)
REMARK    1  A    between atoms: C_7  and  C_8
REMARK    2  A    between atoms: C_8  and  S_9
REMARK    3  A    between atoms: S_9  and  C_10
REMARK    4  A    between atoms: C_15  and  C_16
REMARK    5  A    between atoms: N_18  and  C_19
REMARK    6  A    between atoms: C_19  and  C_20
REMARK    7  A    between atoms: C_19  and  C_26
REMARK                            x       y       z     vdW  Elec       q    Type
REMARK                         _______ _______ _______ _____ _____    ______ ____
ROOT
ATOM      1  C   UNL     1      38.105   4.197  16.955  0.00  0.00    +0.000 C 
ATOM      2  O   UNL     1      37.975   3.607  18.022  0.00  0.00    +0.000 OA
ATOM      3  N   UNL     1      38.552   5.580  16.980  0.00  0.00    +0.000 NA
ENDROOT
BRANCH   1   9
ATOM      4  C   UNL     1      36.807   2.889  15.308  0.00  0.00    +0.000 A 
ATOM      5  C   UNL     1      36.689   2.523  13.990  0.00  0.00    +0.000 A 
ATOM      6  C   UNL     1      37.526   2.849  12.979  0.00  0.00    +0.000 A 
ATOM      7  C   UNL     1      38.627   3.656  13.308  0.00  0.00    +0.000 A 
ATOM      8  C   UNL     1      38.771   4.045  14.601  0.00  0.00    +0.000 A 
ATOM      9  C   UNL     1      37.868   3.665  15.627  0.00  0.00    +0.000 A 
BRANCH   4  10
ATOM     10  S   UNL     1      35.567   2.332  16.518  0.00  0.00    +0.000 S 
BRANCH  10  11
ATOM     11  C   UNL     1      35.354   0.539  16.195  0.00  0.00    +0.000 C 
BRANCH  11  18
ATOM     12  C   UNL     1      35.600  -0.291  19.191  0.00  0.00    +0.000 C 
ATOM     13  C   UNL     1      36.575  -0.603  18.113  0.00  0.00    +0.000 A 
ATOM     14  N   UNL     1      37.763  -1.216  18.232  0.00  0.00    +0.000 NA
ATOM     15  O   UNL     1      38.335  -1.292  17.077  0.00  0.00    +0.000 OA
ATOM     16  C   UNL     1      37.581  -0.760  16.122  0.00  0.00    +0.000 A 
ATOM     17  C   UNL     1      37.964  -0.711  14.694  0.00  0.00    +0.000 C 
ATOM     18  C   UNL     1      36.415  -0.286  16.734  0.00  0.00    +0.000 A 
ENDBRANCH  11  18
ENDBRANCH  10  11
ENDBRANCH   4  10
ENDBRANCH   1   9
BRANCH   3  19
ATOM     19  C   UNL     1      38.822   6.301  18.139  0.00  0.00    +0.000 C 
BRANCH  19  20
ATOM     20  C   UNL     1      40.188   6.378  18.638  0.00  0.00    +0.000 A 
ATOM     21  C   UNL     1      40.561   6.304  19.946  0.00  0.00    +0.000 A 
ATOM     22  C   UNL     1      41.880   6.391  20.381  0.00  0.00    +0.000 A 
ATOM     23  C   UNL     1      42.868   6.562  19.433  0.00  0.00    +0.000 A 
ATOM     24  C   UNL     1      42.497   6.648  18.109  0.00  0.00    +0.000 A 
ATOM     25  C   UNL     1      41.207   6.562  17.699  0.00  0.00    +0.000 A 
ENDBRANCH  19  20
BRANCH  19  26
ATOM     26  C   UNL     1      38.118   7.591  18.231  0.00  0.00    +0.000 A 
ATOM     27  C   UNL     1      37.910   8.260  19.412  0.00  0.00    +0.000 A 
ATOM     28  C   UNL     1      37.304   9.499  19.483  0.00  0.00    +0.000 A 
ATOM     29  C   UNL     1      36.884  10.121  18.334  0.00  0.00    +0.000 A 
ATOM     30  C   UNL     1      37.081   9.476  17.142  0.00  0.00    +0.000 A 
ATOM     31  C   UNL     1      37.677   8.238  17.065  0.00  0.00    +0.000 A 
ENDBRANCH  19  26
ENDBRANCH   3  19
TORSDOF 7
ENDMDL
MODEL 2
REMARK VINA RESULT:      -8.2      2.618      5.175
REMARK  Name = 
REMARK  7 active torsions:
REMARK  status: ('A' for Active; 'I' for Inactive)
REMARK    1  A    between atoms: C_7  and  C_8
REMARK    2  A    between atoms: C_8  and  S_9
REMARK    3  A    between atoms: S_9  and  C_10
REMARK    4  A    between atoms: C_15  and  C_16
REMARK    5  A    between atoms: N_18  and  C_19
REMARK    6  A    between atoms: C_19  and  C_20
REMARK    7  A    between atoms: C_19  and  C_26
REMARK                            x       y       z     vdW  Elec       q    Type
REMARK                         _______ _______ _______ _____ _____    ______ ____
ROOT
ATOM      1  C   UNL     1      36.097   2.006  16.831  0.00  0.00    +0.000 C 
ATOM      2  O   UNL     1      35.080   2.624  16.538  0.00  0.00    +0.000 OA
ATOM      3  N   UNL     1      37.372   2.700  16.761  0.00  0.00    +0.000 NA
ENDROOT
BRANCH   1   9
ATOM      4  C   UNL     1      36.512  -0.398  16.436  0.00  0.00    +0.000 A 
ATOM      5  C   UNL     1      36.622  -1.639  17.013  0.00  0.00    +0.000 A 
ATOM      6  C   UNL     1      36.431  -1.949  18.315  0.00  0.00    +0.000 A 
ATOM      7  C   UNL     1      36.093  -0.889  19.172  0.00  0.00    +0.000 A 
ATOM      8  C   UNL     1      35.984   0.354  18.638  0.00  0.00    +0.000 A 
ATOM      9  C   UNL     1      36.186   0.624  17.260  0.00  0.00    +0.000 A 
BRANCH   4  10
ATOM     10  S   UNL     1      36.806  -0.199  14.651  0.00  0.00    +0.000 S 
BRANCH  10  11
ATOM     11  C   UNL     1      38.623  -0.016  14.483  0.00  0.00    +0.000 C 
BRANCH  11  18
ATOM     12  C   UNL     1      38.830   0.024  11.371  0.00  0.00    +0.000 C 
ATOM     13  C   UNL     1      39.276  -1.077  12.264  0.00  0.00    +0.000 A 
ATOM     14  N   UNL     1      39.767  -2.275  11.910  0.00  0.00    +0.000 NA
ATOM     15  O   UNL     1      40.027  -2.972  12.965  0.00  0.00    +0.000 OA
ATOM     16  C   UNL     1      39.748  -2.301  14.075  0.00  0.00    +0.000 A 
ATOM     17  C   UNL     1      39.952  -2.834  15.440  0.00  0.00    +0.000 C 
ATOM     18  C   UNL     1      39.248  -1.053  13.688  0.00  0.00    +0.000 A 
ENDBRANCH  11  18
ENDBRANCH  10  11
ENDBRANCH   4  10
ENDBRANCH   1   9
BRANCH   3  19
ATOM     19  C   UNL     1      37.529   4.022  16.357  0.00  0.00    +0.000 C 
BRANCH  19  20
ATOM     20  C   UNL     1      38.628   4.814  16.895  0.00  0.00    +0.000 A 
ATOM     21  C   UNL     1      39.603   5.421  16.161  0.00  0.00    +0.000 A 
ATOM     22  C   UNL     1      40.642   6.161  16.716  0.00  0.00    +0.000 A 
ATOM     23  C   UNL     1      40.687   6.290  18.090  0.00  0.00    +0.000 A 
ATOM     24  C   UNL     1      39.711   5.670  18.838  0.00  0.00    +0.000 A 
ATOM     25  C   UNL     1      38.704   4.951  18.283  0.00  0.00    +0.000 A 
ENDBRANCH  19  20
BRANCH  19  26
ATOM     26  C   UNL     1      37.330   4.246  14.916  0.00  0.00    +0.000 A 
ATOM     27  C   UNL     1      37.916   3.477  13.940  0.00  0.00    +0.000 A 
ATOM     28  C   UNL     1      37.676   3.654  12.591  0.00  0.00    +0.000 A 
ATOM     29  C   UNL     1      36.810   4.634  12.175  0.00  0.00    +0.000 A 
ATOM     30  C   UNL     1      36.211   5.414  13.128  0.00  0.00    +0.000 A 
ATOM     31  C   UNL     1      36.453   5.248  14.473  0.00  0.00    +0.000 A 
ENDBRANCH  19  26
ENDBRANCH   3  19
TORSDOF 7
ENDMDL
MODEL 3
REMARK VINA RESULT:      -8.2      3.936      8.885
REMARK  Name = 
REMARK  7 active torsions:
REMARK  status: ('A' for Active; 'I' for Inactive)
REMARK    1  A    between atoms: C_7  and  C_8
REMARK    2  A    between atoms: C_8  and  S_9
REMARK    3  A    between atoms: S_9  and  C_10
REMARK    4  A    between atoms: C_15  and  C_16
REMARK    5  A    between atoms: N_18  and  C_19
REMARK    6  A    between atoms: C_19  and  C_20
REMARK    7  A    between atoms: C_19  and  C_26
REMARK                            x       y       z     vdW  Elec       q    Type
REMARK                         _______ _______ _______ _____ _____    ______ ____
ROOT
ATOM      1  C   UNL     1      39.154  -2.331  14.581  0.00  0.00    +0.000 C 
ATOM      2  O   UNL     1      39.853  -2.820  15.461  0.00  0.00    +0.000 OA
ATOM      3  N   UNL     1      37.723  -2.221  14.816  0.00  0.00    +0.000 NA
ENDROOT
BRANCH   1   9
ATOM      4  C   UNL     1      40.049  -0.566  13.101  0.00  0.00    +0.000 A 
ATOM      5  C   UNL     1      40.493  -0.263  11.838  0.00  0.00    +0.000 A 
ATOM      6  C   UNL     1      40.515  -1.086  10.766  0.00  0.00    +0.000 A 
ATOM      7  C   UNL     1      40.043  -2.394  10.966  0.00  0.00    +0.000 A 
ATOM      8  C   UNL     1      39.604  -2.732  12.205  0.00  0.00    +0.000 A 
ATOM      9  C   UNL     1      39.594  -1.824  13.295  0.00  0.00    +0.000 A 
BRANCH   4  10
ATOM     10  S   UNL     1      40.100   0.701  14.407  0.00  0.00    +0.000 S 
BRANCH  10  11
ATOM     11  C   UNL     1      39.139   2.114  13.742  0.00  0.00    +0.000 C 
BRANCH  11  18
ATOM     12  C   UNL     1      36.689   0.603  12.540  0.00  0.00    +0.000 C 
ATOM     13  C   UNL     1      36.654   1.575  13.664  0.00  0.00    +0.000 A 
ATOM     14  N   UNL     1      35.575   2.044  14.310  0.00  0.00    +0.000 NA
ATOM     15  O   UNL     1      35.939   2.889  15.217  0.00  0.00    +0.000 OA
ATOM     16  C   UNL     1      37.258   3.031  15.250  0.00  0.00    +0.000 A 
ATOM     17  C   UNL     1      37.973   3.920  16.192  0.00  0.00    +0.000 C 
ATOM     18  C   UNL     1      37.787   2.201  14.256  0.00  0.00    +0.000 A 
ENDBRANCH  11  18
ENDBRANCH  10  11
ENDBRANCH   4  10
ENDBRANCH   1   9
BRANCH   3  19
ATOM     19  C   UNL     1      37.077  -2.658  15.968  0.00  0.00    +0.000 C 
BRANCH  19  20
ATOM     20  C   UNL     1      36.661  -1.689  16.972  0.00  0.00    +0.000 A 
ATOM     21  C   UNL     1      36.037  -0.503  16.722  0.00  0.00    +0.000 A 
ATOM     22  C   UNL     1      35.665   0.400  17.713  0.00  0.00    +0.000 A 
ATOM     23  C   UNL     1      35.943   0.077  19.025  0.00  0.00    +0.000 A 
ATOM     24  C   UNL     1      36.582  -1.115  19.285  0.00  0.00    +0.000 A 
ATOM     25  C   UNL     1      36.940  -1.986  18.309  0.00  0.00    +0.000 A 
ENDBRANCH  19  20
BRANCH  19  26
ATOM     26  C   UNL     1      36.060  -3.698  15.738  0.00  0.00    +0.000 A 
ATOM     27  C   UNL     1      34.928  -3.498  14.987  0.00  0.00    +0.000 A 
ATOM     28  C   UNL     1      34.009  -4.497  14.724  0.00  0.00    +0.000 A 
ATOM     29  C   UNL     1      34.214  -5.760  15.219  0.00  0.00    +0.000 A 
ATOM     30  C   UNL     1      35.336  -5.985  15.970  0.00  0.00    +0.000 A 
ATOM     31  C   UNL     1      36.251  -4.994  16.242  0.00  0.00    +0.000 A 
ENDBRANCH  19  26
ENDBRANCH   3  19
TORSDOF 7
ENDMDL
MODEL 4
REMARK VINA RESULT:      -8.2      2.609      4.934
REMARK  Name = 
REMARK  7 active torsions:
REMARK  status: ('A' for Active; 'I' for Inactive)
REMARK    1  A    between atoms: C_7  and  C_8
REMARK    2  A    between atoms: C_8  and  S_9
REMARK    3  A    between atoms: S_9  and  C_10
REMARK    4  A    between atoms: C_15  and  C_16
REMARK    5  A    between atoms: N_18  and  C_19
REMARK    6  A    between atoms: C_19  and  C_20
REMARK    7  A    between atoms: C_19  and  C_26
REMARK                            x       y       z     vdW  Elec       q    Type
REMARK                         _______ _______ _______ _____ _____    ______ ____
ROOT
ATOM      1  C   UNL     1      36.066   2.031  16.796  0.00  0.00    +0.000 C 
ATOM      2  O   UNL     1      35.059   2.668  16.507  0.00  0.00    +0.000 OA
ATOM      3  N   UNL     1      37.354   2.700  16.715  0.00  0.00    +0.000 NA
ENDROOT
BRANCH   1   9
ATOM      4  C   UNL     1      36.409  -0.385  16.406  0.00  0.00    +0.000 A 
ATOM      5  C   UNL     1      36.502  -1.626  16.988  0.00  0.00    +0.000 A 
ATOM      6  C   UNL     1      36.338  -1.923  18.296  0.00  0.00    +0.000 A 
ATOM      7  C   UNL     1      36.051  -0.850  19.155  0.00  0.00    +0.000 A 
ATOM      8  C   UNL     1      35.960   0.393  18.616  0.00  0.00    +0.000 A 
ATOM      9  C   UNL     1      36.132   0.649  17.232  0.00  0.00    +0.000 A 
BRANCH   4  10
ATOM     10  S   UNL     1      36.659  -0.204  14.612  0.00  0.00    +0.000 S 
BRANCH  10  11
ATOM     11  C   UNL     1      37.552  -1.721  14.098  0.00  0.00    +0.000 C 
BRANCH  11  18
ATOM     12  C   UNL     1      39.620  -2.902  16.112  0.00  0.00    +0.000 C 
ATOM     13  C   UNL     1      39.929  -2.023  14.954  0.00  0.00    +0.000 A 
ATOM     14  N   UNL     1      41.120  -1.512  14.606  0.00  0.00    +0.000 NA
ATOM     15  O   UNL     1      40.992  -0.779  13.550  0.00  0.00    +0.000 OA
ATOM     16  C   UNL     1      39.736  -0.761  13.118  0.00  0.00    +0.000 A 
ATOM     17  C   UNL     1      39.282  -0.018  11.921  0.00  0.00    +0.000 C 
ATOM     18  C   UNL     1      38.987  -1.553  13.995  0.00  0.00    +0.000 A 
ENDBRANCH  11  18
ENDBRANCH  10  11
ENDBRANCH   4  10
ENDBRANCH   1   9
BRANCH   3  19
ATOM     19  C   UNL     1      37.535   4.017  16.304  0.00  0.00    +0.000 C 
BRANCH  19  20
ATOM     20  C   UNL     1      38.627   4.803  16.863  0.00  0.00    +0.000 A 
ATOM     21  C   UNL     1      39.612   5.414  16.147  0.00  0.00    +0.000 A 
ATOM     22  C   UNL     1      40.644   6.149  16.723  0.00  0.00    +0.000 A 
ATOM     23  C   UNL     1      40.671   6.267  18.097  0.00  0.00    +0.000 A 
ATOM     24  C   UNL     1      39.684   5.643  18.827  0.00  0.00    +0.000 A 
ATOM     25  C   UNL     1      38.684   4.929  18.253  0.00  0.00    +0.000 A 
ENDBRANCH  19  20
BRANCH  19  26
ATOM     26  C   UNL     1      37.375   4.229  14.856  0.00  0.00    +0.000 A 
ATOM     27  C   UNL     1      37.954   3.428  13.903  0.00  0.00    +0.000 A 
ATOM     28  C   UNL     1      37.749   3.597  12.547  0.00  0.00    +0.000 A 
ATOM     29  C   UNL     1      36.928   4.601  12.101  0.00  0.00    +0.000 A 
ATOM     30  C   UNL     1      36.337   5.414  13.031  0.00  0.00    +0.000 A 
ATOM     31  C   UNL     1      36.543   5.256  14.382  0.00  0.00    +0.000 A 
ENDBRANCH  19  26
ENDBRANCH   3  19
TORSDOF 7
ENDMDL
MODEL 5
REMARK VINA RESULT:      -8.0      3.639      7.747
REMARK  Name = 
REMARK  7 active torsions:
REMARK  status: ('A' for Active; 'I' for Inactive)
REMARK    1  A    between atoms: C_7  and  C_8
REMARK    2  A    between atoms: C_8  and  S_9
REMARK    3  A    between atoms: S_9  and  C_10
REMARK    4  A    between atoms: C_15  and  C_16
REMARK    5  A    between atoms: N_18  and  C_19
REMARK    6  A    between atoms: C_19  and  C_20
REMARK    7  A    between atoms: C_19  and  C_26
REMARK                            x       y       z     vdW  Elec       q    Type
REMARK                         _______ _______ _______ _____ _____    ______ ____
ROOT
ATOM      1  C   UNL     1      38.304   0.780  14.207  0.00  0.00    +0.000 C 
ATOM      2  O   UNL     1      37.917   0.469  13.086  0.00  0.00    +0.000 OA
ATOM      3  N   UNL     1      39.119  -0.171  14.946  0.00  0.00    +0.000 NA
ENDROOT
BRANCH   1   9
ATOM      4  C   UNL     1      36.857   2.336  15.470  0.00  0.00    +0.000 A 
ATOM      5  C   UNL     1      36.796   3.523  16.157  0.00  0.00    +0.000 A 
ATOM      6  C   UNL     1      37.796   4.417  16.322  0.00  0.00    +0.000 A 
ATOM      7  C   UNL     1      39.032   4.095  15.739  0.00  0.00    +0.000 A 
ATOM      8  C   UNL     1      39.132   2.924  15.060  0.00  0.00    +0.000 A 
ATOM      9  C   UNL     1      38.046   2.024  14.907  0.00  0.00    +0.000 A 
BRANCH   4  10
ATOM     10  S   UNL     1      35.381   1.275  15.361  0.00  0.00    +0.000 S 
BRANCH  10  11
ATOM     11  C   UNL     1      34.855   1.006  17.097  0.00  0.00    +0.000 C 
BRANCH  11  18
ATOM     12  C   UNL     1      34.634  -2.090  16.796  0.00  0.00    +0.000 C 
ATOM     13  C   UNL     1      35.520  -1.363  17.742  0.00  0.00    +0.000 A 
ATOM     14  N   UNL     1      36.317  -1.885  18.687  0.00  0.00    +0.000 NA
ATOM     15  O   UNL     1      36.921  -0.938  19.325  0.00  0.00    +0.000 OA
ATOM     16  C   UNL     1      36.587   0.257  18.854  0.00  0.00    +0.000 A 
ATOM     17  C   UNL     1      37.126   1.533  19.375  0.00  0.00    +0.000 C 
ATOM     18  C   UNL     1      35.670   0.051  17.818  0.00  0.00    +0.000 A 
ENDBRANCH  11  18
ENDBRANCH  10  11
ENDBRANCH   4  10
ENDBRANCH   1   9
BRANCH   3  19
ATOM     19  C   UNL     1      39.476  -1.432  14.481  0.00  0.00    +0.000 C 
BRANCH  19  20
ATOM     20  C   UNL     1      40.860  -1.699  14.114  0.00  0.00    +0.000 A 
ATOM     21  C   UNL     1      41.940  -0.962  14.498  0.00  0.00    +0.000 A 
ATOM     22  C   UNL     1      43.247  -1.247  14.116  0.00  0.00    +0.000 A 
ATOM     23  C   UNL     1      43.464  -2.341  13.303  0.00  0.00    +0.000 A 
ATOM     24  C   UNL     1      42.376  -3.084  12.902  0.00  0.00    +0.000 A 
ATOM     25  C   UNL     1      41.107  -2.794  13.282  0.00  0.00    +0.000 A 
ENDBRANCH  19  20
BRANCH  19  26
ATOM     26  C   UNL     1      38.867  -2.549  15.222  0.00  0.00    +0.000 A 
ATOM     27  C   UNL     1      39.316  -2.981  16.446  0.00  0.00    +0.000 A 
ATOM     28  C   UNL     1      38.701  -3.989  17.164  0.00  0.00    +0.000 A 
ATOM     29  C   UNL     1      37.583  -4.603  16.658  0.00  0.00    +0.000 A 
ATOM     30  C   UNL     1      37.114  -4.190  15.440  0.00  0.00    +0.000 A 
ATOM     31  C   UNL     1      37.727  -3.192  14.716  0.00  0.00    +0.000 A 
ENDBRANCH  19  26
ENDBRANCH   3  19
TORSDOF 7
ENDMDL
MODEL 6
REMARK VINA RESULT:      -7.9     22.986     25.833
REMARK  Name = 
REMARK  7 active torsions:
REMARK  status: ('A' for Active; 'I' for Inactive)
REMARK    1  A    between atoms: C_7  and  C_8
REMARK    2  A    between atoms: C_8  and  S_9
REMARK    3  A    between atoms: S_9  and  C_10
REMARK    4  A    between atoms: C_15  and  C_16
REMARK    5  A    between atoms: N_18  and  C_19
REMARK    6  A    between atoms: C_19  and  C_20
REMARK    7  A    between atoms: C_19  and  C_26
REMARK                            x       y       z     vdW  Elec       q    Type
REMARK                         _______ _______ _______ _____ _____    ______ ____
ROOT
ATOM      1  C   UNL     1      29.103  15.733  36.818  0.00  0.00    +0.000 C 
ATOM      2  O   UNL     1      29.266  16.947  36.864  0.00  0.00    +0.000 OA
ATOM      3  N   UNL     1      27.793  15.226  36.443  0.00  0.00    +0.000 NA
ENDROOT
BRANCH   1   9
ATOM      4  C   UNL     1      30.215  14.088  38.289  0.00  0.00    +0.000 A 
ATOM      5  C   UNL     1      31.154  13.089  38.367  0.00  0.00    +0.000 A 
ATOM      6  C   UNL     1      31.972  12.665  37.379  0.00  0.00    +0.000 A 
ATOM      7  C   UNL     1      31.844  13.307  36.136  0.00  0.00    +0.000 A 
ATOM      8  C   UNL     1      30.919  14.294  36.019  0.00  0.00    +0.000 A 
ATOM      9  C   UNL     1      30.090  14.707  37.094  0.00  0.00    +0.000 A 
BRANCH   4  10
ATOM     10  S   UNL     1      29.216  14.509  39.751  0.00  0.00    +0.000 S 
BRANCH  10  11
ATOM     11  C   UNL     1      29.527  13.156  40.950  0.00  0.00    +0.000 C 
BRANCH  11  18
ATOM     12  C   UNL     1      30.153  10.136  40.482  0.00  0.00    +0.000 C 
ATOM     13  C   UNL     1      28.802  10.738  40.633  0.00  0.00    +0.000 A 
ATOM     14  N   UNL     1      27.613  10.126  40.516  0.00  0.00    +0.000 NA
ATOM     15  O   UNL     1      26.660  10.979  40.696  0.00  0.00    +0.000 OA
ATOM     16  C   UNL     1      27.134  12.193  40.953  0.00  0.00    +0.000 A 
ATOM     17  C   UNL     1      26.285  13.376  41.216  0.00  0.00    +0.000 C 
ATOM     18  C   UNL     1      28.530  12.105  40.923  0.00  0.00    +0.000 A 
ENDBRANCH  11  18
ENDBRANCH  10  11
ENDBRANCH   4  10
ENDBRANCH   1   9
BRANCH   3  19
ATOM     19  C   UNL     1      26.691  16.024  36.154  0.00  0.00    +0.000 C 
BRANCH  19  20
ATOM     20  C   UNL     1      26.040  15.908  34.856  0.00  0.00    +0.000 A 
ATOM     21  C   UNL     1      25.358  16.901  34.219  0.00  0.00    +0.000 A 
ATOM     22  C   UNL     1      24.741  16.746  32.981  0.00  0.00    +0.000 A 
ATOM     23  C   UNL     1      24.826  15.515  32.362  0.00  0.00    +0.000 A 
ATOM     24  C   UNL     1      25.505  14.504  33.005  0.00  0.00    +0.000 A 
ATOM     25  C   UNL     1      26.101  14.670  34.211  0.00  0.00    +0.000 A 
ENDBRANCH  19  20
BRANCH  19  26
ATOM     26  C   UNL     1      25.725  16.150  37.257  0.00  0.00    +0.000 A 
ATOM     27  C   UNL     1      24.977  15.101  37.734  0.00  0.00    +0.000 A 
ATOM     28  C   UNL     1      24.117  15.214  38.810  0.00  0.00    +0.000 A 
ATOM     29  C   UNL     1      23.988  16.417  39.457  0.00  0.00    +0.000 A 
ATOM     30  C   UNL     1      24.724  17.478  39.002  0.00  0.00    +0.000 A 
ATOM     31  C   UNL     1      25.576  17.375  37.926  0.00  0.00    +0.000 A 
ENDBRANCH  19  26
ENDBRANCH   3  19
TORSDOF 7
ENDMDL
MODEL 7
REMARK VINA RESULT:      -7.8      2.288      5.067
REMARK  Name = 
REMARK  7 active torsions:
REMARK  status: ('A' for Active; 'I' for Inactive)
REMARK    1  A    between atoms: C_7  and  C_8
REMARK    2  A    between atoms: C_8  and  S_9
REMARK    3  A    between atoms: S_9  and  C_10
REMARK    4  A    between atoms: C_15  and  C_16
REMARK    5  A    between atoms: N_18  and  C_19
REMARK    6  A    between atoms: C_19  and  C_20
REMARK    7  A    between atoms: C_19  and  C_26
REMARK                            x       y       z     vdW  Elec       q    Type
REMARK                         _______ _______ _______ _____ _____    ______ ____
ROOT
ATOM      1  C   UNL     1      36.360   2.609  15.973  0.00  0.00    +0.000 C 
ATOM      2  O   UNL     1      35.605   3.425  15.457  0.00  0.00    +0.000 OA
ATOM      3  N   UNL     1      37.727   3.015  16.257  0.00  0.00    +0.000 NA
ENDROOT
BRANCH   1   9
ATOM      4  C   UNL     1      36.193   0.183  15.532  0.00  0.00    +0.000 A 
ATOM      5  C   UNL     1      35.917  -1.050  16.069  0.00  0.00    +0.000 A 
ATOM      6  C   UNL     1      35.505  -1.314  17.329  0.00  0.00    +0.000 A 
ATOM      7  C   UNL     1      35.351  -0.211  18.185  0.00  0.00    +0.000 A 
ATOM      8  C   UNL     1      35.625   1.024  17.692  0.00  0.00    +0.000 A 
ATOM      9  C   UNL     1      36.045   1.246  16.355  0.00  0.00    +0.000 A 
BRANCH   4  10
ATOM     10  S   UNL     1      36.731   0.318  13.799  0.00  0.00    +0.000 S 
BRANCH  10  11
ATOM     11  C   UNL     1      37.688  -1.212  13.474  0.00  0.00    +0.000 C 
BRANCH  11  18
ATOM     12  C   UNL     1      39.854  -0.116  11.516  0.00  0.00    +0.000 C 
ATOM     13  C   UNL     1      40.101  -0.676  12.871  0.00  0.00    +0.000 A 
ATOM     14  N   UNL     1      41.283  -0.891  13.468  0.00  0.00    +0.000 NA
ATOM     15  O   UNL     1      41.098  -1.407  14.637  0.00  0.00    +0.000 OA
ATOM     16  C   UNL     1      39.806  -1.558  14.904  0.00  0.00    +0.000 A 
ATOM     17  C   UNL     1      39.281  -2.113  16.172  0.00  0.00    +0.000 C 
ATOM     18  C   UNL     1      39.098  -1.102  13.787  0.00  0.00    +0.000 A 
ENDBRANCH  11  18
ENDBRANCH  10  11
ENDBRANCH   4  10
ENDBRANCH   1   9
BRANCH   3  19
ATOM     19  C   UNL     1      38.255   4.268  15.960  0.00  0.00    +0.000 C 
BRANCH  19  20
ATOM     20  C   UNL     1      38.511   5.215  17.036  0.00  0.00    +0.000 A 
ATOM     21  C   UNL     1      39.181   4.944  18.191  0.00  0.00    +0.000 A 
ATOM     22  C   UNL     1      39.396   5.878  19.200  0.00  0.00    +0.000 A 
ATOM     23  C   UNL     1      38.902   7.154  19.020  0.00  0.00    +0.000 A 
ATOM     24  C   UNL     1      38.215   7.433  17.860  0.00  0.00    +0.000 A 
ATOM     25  C   UNL     1      38.013   6.512  16.885  0.00  0.00    +0.000 A 
ENDBRANCH  19  20
BRANCH  19  26
ATOM     26  C   UNL     1      39.336   4.250  14.960  0.00  0.00    +0.000 A 
ATOM     27  C   UNL     1      40.195   5.302  14.752  0.00  0.00    +0.000 A 
ATOM     28  C   UNL     1      41.245   5.255  13.856  0.00  0.00    +0.000 A 
ATOM     29  C   UNL     1      41.470   4.114  13.128  0.00  0.00    +0.000 A 
ATOM     30  C   UNL     1      40.628   3.050  13.316  0.00  0.00    +0.000 A 
ATOM     31  C   UNL     1      39.576   3.093  14.202  0.00  0.00    +0.000 A 
ENDBRANCH  19  26
ENDBRANCH   3  19
TORSDOF 7
ENDMDL
MODEL 8
REMARK VINA RESULT:      -7.8      2.680      5.173
REMARK  Name = 
REMARK  7 active torsions:
REMARK  status: ('A' for Active; 'I' for Inactive)
REMARK    1  A    between atoms: C_7  and  C_8
REMARK    2  A    between atoms: C_8  and  S_9
REMARK    3  A    between atoms: S_9  and  C_10
REMARK    4  A    between atoms: C_15  and  C_16
REMARK    5  A    between atoms: N_18  and  C_19
REMARK    6  A    between atoms: C_19  and  C_20
REMARK    7  A    between atoms: C_19  and  C_26
REMARK                            x       y       z     vdW  Elec       q    Type
REMARK                         _______ _______ _______ _____ _____    ______ ____
ROOT
ATOM      1  C   UNL     1      36.367   2.225  15.167  0.00  0.00    +0.000 C 
ATOM      2  O   UNL     1      35.904   2.864  14.229  0.00  0.00    +0.000 OA
ATOM      3  N   UNL     1      37.581   2.710  15.801  0.00  0.00    +0.000 NA
ENDROOT
BRANCH   1   9
ATOM      4  C   UNL     1      36.129  -0.232  15.295  0.00  0.00    +0.000 A 
ATOM      5  C   UNL     1      35.594  -1.284  15.995  0.00  0.00    +0.000 A 
ATOM      6  C   UNL     1      34.793  -1.213  17.081  0.00  0.00    +0.000 A 
ATOM      7  C   UNL     1      34.481   0.074  17.551  0.00  0.00    +0.000 A 
ATOM      8  C   UNL     1      35.001   1.139  16.888  0.00  0.00    +0.000 A 
ATOM      9  C   UNL     1      35.831   1.008  15.745  0.00  0.00    +0.000 A 
BRANCH   4  10
ATOM     10  S   UNL     1      37.184  -0.551  13.846  0.00  0.00    +0.000 S 
BRANCH  10  11
ATOM     11  C   UNL     1      37.492  -2.358  13.865  0.00  0.00    +0.000 C 
BRANCH  11  18
ATOM     12  C   UNL     1      37.590  -4.087  16.460  0.00  0.00    +0.000 C 
ATOM     13  C   UNL     1      38.755  -3.463  15.778  0.00  0.00    +0.000 A 
ATOM     14  N   UNL     1      40.035  -3.453  16.182  0.00  0.00    +0.000 NA
ATOM     15  O   UNL     1      40.757  -2.797  15.336  0.00  0.00    +0.000 OA
ATOM     16  C   UNL     1      40.030  -2.343  14.322  0.00  0.00    +0.000 A 
ATOM     17  C   UNL     1      40.581  -1.566  13.189  0.00  0.00    +0.000 C 
ATOM     18  C   UNL     1      38.709  -2.741  14.551  0.00  0.00    +0.000 A 
ENDBRANCH  11  18
ENDBRANCH  10  11
ENDBRANCH   4  10
ENDBRANCH   1   9
BRANCH   3  19
ATOM     19  C   UNL     1      38.280   3.846  15.403  0.00  0.00    +0.000 C 
BRANCH  19  20
ATOM     20  C   UNL     1      38.949   4.667  16.403  0.00  0.00    +0.000 A 
ATOM     21  C   UNL     1      40.001   5.502  16.170  0.00  0.00    +0.000 A 
ATOM     22  C   UNL     1      40.618   6.263  17.158  0.00  0.00    +0.000 A 
ATOM     23  C   UNL     1      40.138   6.168  18.448  0.00  0.00    +0.000 A 
ATOM     24  C   UNL     1      39.082   5.318  18.693  0.00  0.00    +0.000 A 
ATOM     25  C   UNL     1      38.490   4.582  17.720  0.00  0.00    +0.000 A 
ENDBRANCH  19  20
BRANCH  19  26
ATOM     26  C   UNL     1      39.093   3.666  14.190  0.00  0.00    +0.000 A 
ATOM     27  C   UNL     1      39.111   4.561  13.148  0.00  0.00    +0.000 A 
ATOM     28  C   UNL     1      39.924   4.415  12.041  0.00  0.00    +0.000 A 
ATOM     29  C   UNL     1      40.770   3.339  11.951  0.00  0.00    +0.000 A 
ATOM     30  C   UNL     1      40.772   2.432  12.977  0.00  0.00    +0.000 A 
ATOM     31  C   UNL     1      39.960   2.566  14.079  0.00  0.00    +0.000 A 
ENDBRANCH  19  26
ENDBRANCH   3  19
TORSDOF 7
ENDMDL
MODEL 9
REMARK VINA RESULT:      -7.7      4.567      9.101
REMARK  Name = 
REMARK  7 active torsions:
REMARK  status: ('A' for Active; 'I' for Inactive)
REMARK    1  A    between atoms: C_7  and  C_8
REMARK    2  A    between atoms: C_8  and  S_9
REMARK    3  A    between atoms: S_9  and  C_10
REMARK    4  A    between atoms: C_15  and  C_16
REMARK    5  A    between atoms: N_18  and  C_19
REMARK    6  A    between atoms: C_19  and  C_20
REMARK    7  A    between atoms: C_19  and  C_26
REMARK                            x       y       z     vdW  Elec       q    Type
REMARK                         _______ _______ _______ _____ _____    ______ ____
ROOT
ATOM      1  C   UNL     1      38.494  -0.751  15.101  0.00  0.00    +0.000 C 
ATOM      2  O   UNL     1      38.195   0.068  15.963  0.00  0.00    +0.000 OA
ATOM      3  N   UNL     1      37.828  -2.044  15.115  0.00  0.00    +0.000 NA
ENDROOT
BRANCH   1   9
ATOM      4  C   UNL     1      39.151  -0.045  12.825  0.00  0.00    +0.000 A 
ATOM      5  C   UNL     1      40.191   0.111  11.943  0.00  0.00    +0.000 A 
ATOM      6  C   UNL     1      41.485  -0.222  12.146  0.00  0.00    +0.000 A 
ATOM      7  C   UNL     1      41.804  -0.778  13.396  0.00  0.00    +0.000 A 
ATOM      8  C   UNL     1      40.802  -0.939  14.297  0.00  0.00    +0.000 A 
ATOM      9  C   UNL     1      39.456  -0.581  14.029  0.00  0.00    +0.000 A 
BRANCH   4  10
ATOM     10  S   UNL     1      37.471   0.465  12.346  0.00  0.00    +0.000 S 
BRANCH  10  11
ATOM     11  C   UNL     1      37.479   2.296  12.448  0.00  0.00    +0.000 C 
BRANCH  11  18
ATOM     12  C   UNL     1      40.067   3.365  13.823  0.00  0.00    +0.000 C 
ATOM     13  C   UNL     1      38.731   3.226  14.459  0.00  0.00    +0.000 A 
ATOM     14  N   UNL     1      38.404   3.449  15.742  0.00  0.00    +0.000 NA
ATOM     15  O   UNL     1      37.150   3.204  15.925  0.00  0.00    +0.000 OA
ATOM     16  C   UNL     1      36.558   2.820  14.799  0.00  0.00    +0.000 A 
ATOM     17  C   UNL     1      35.122   2.482  14.692  0.00  0.00    +0.000 C 
ATOM     18  C   UNL     1      37.538   2.810  13.801  0.00  0.00    +0.000 A 
ENDBRANCH  11  18
ENDBRANCH  10  11
ENDBRANCH   4  10
ENDBRANCH   1   9
BRANCH   3  19
ATOM     19  C   UNL     1      36.885  -2.434  16.060  0.00  0.00    +0.000 C 
BRANCH  19  20
ATOM     20  C   UNL     1      35.750  -3.250  15.649  0.00  0.00    +0.000 A 
ATOM     21  C   UNL     1      35.796  -4.289  14.769  0.00  0.00    +0.000 A 
ATOM     22  C   UNL     1      34.684  -5.038  14.396  0.00  0.00    +0.000 A 
ATOM     23  C   UNL     1      33.464  -4.711  14.952  0.00  0.00    +0.000 A 
ATOM     24  C   UNL     1      33.408  -3.656  15.835  0.00  0.00    +0.000 A 
ATOM     25  C   UNL     1      34.500  -2.934  16.189  0.00  0.00    +0.000 A 
ENDBRANCH  19  20
BRANCH  19  26
ATOM     26  C   UNL     1      37.455  -2.873  17.344  0.00  0.00    +0.000 A 
ATOM     27  C   UNL     1      38.269  -3.972  17.477  0.00  0.00    +0.000 A 
ATOM     28  C   UNL     1      38.850  -4.342  18.675  0.00  0.00    +0.000 A 
ATOM     29  C   UNL     1      38.628  -3.591  19.802  0.00  0.00    +0.000 A 
ATOM     30  C   UNL     1      37.822  -2.490  19.696  0.00  0.00    +0.000 A 
ATOM     31  C   UNL     1      37.233  -2.120  18.508  0.00  0.00    +0.000 A 
ENDBRANCH  19  26
ENDBRANCH   3  19
TORSDOF 7
ENDMDL
MODEL 10
REMARK VINA RESULT:      -7.7      5.002      6.963
REMARK  Name = 
REMARK  7 active torsions:
REMARK  status: ('A' for Active; 'I' for Inactive)
REMARK    1  A    between atoms: C_7  and  C_8
REMARK    2  A    between atoms: C_8  and  S_9
REMARK    3  A    between atoms: S_9  and  C_10
REMARK    4  A    between atoms: C_15  and  C_16
REMARK    5  A    between atoms: N_18  and  C_19
REMARK    6  A    between atoms: C_19  and  C_20
REMARK    7  A    between atoms: C_19  and  C_26
REMARK                            x       y       z     vdW  Elec       q    Type
REMARK                         _______ _______ _______ _____ _____    ______ ____
ROOT
ATOM      1  C   UNL     1      39.083   0.246  14.312  0.00  0.00    +0.000 C 
ATOM      2  O   UNL     1      39.793   0.987  14.983  0.00  0.00    +0.000 OA
ATOM      3  N   UNL     1      37.650   0.257  14.554  0.00  0.00    +0.000 NA
ENDROOT
BRANCH   1   9
ATOM      4  C   UNL     1      40.075  -1.869  13.506  0.00  0.00    +0.000 A 
ATOM      5  C   UNL     1      40.360  -2.642  12.408  0.00  0.00    +0.000 A 
ATOM      6  C   UNL     1      40.145  -2.321  11.112  0.00  0.00    +0.000 A 
ATOM      7  C   UNL     1      39.558  -1.070  10.862  0.00  0.00    +0.000 A 
ATOM      8  C   UNL     1      39.254  -0.283  11.925  0.00  0.00    +0.000 A 
ATOM      9  C   UNL     1      39.511  -0.664  13.267  0.00  0.00    +0.000 A 
BRANCH   4  10
ATOM     10  S   UNL     1      40.455  -2.491  15.175  0.00  0.00    +0.000 S 
BRANCH  10  11
ATOM     11  C   UNL     1      38.885  -2.343  16.110  0.00  0.00    +0.000 C 
BRANCH  11  18
ATOM     12  C   UNL     1      36.866  -3.288  13.928  0.00  0.00    +0.000 C 
ATOM     13  C   UNL     1      37.141  -3.968  15.221  0.00  0.00    +0.000 A 
ATOM     14  N   UNL     1      36.529  -5.051  15.726  0.00  0.00    +0.000 NA
ATOM     15  O   UNL     1      37.029  -5.339  16.882  0.00  0.00    +0.000 OA
ATOM     16  C   UNL     1      37.998  -4.496  17.218  0.00  0.00    +0.000 A 
ATOM     17  C   UNL     1      38.768  -4.579  18.479  0.00  0.00    +0.000 C 
ATOM     18  C   UNL     1      38.120  -3.571  16.175  0.00  0.00    +0.000 A 
ENDBRANCH  11  18
ENDBRANCH  10  11
ENDBRANCH   4  10
ENDBRANCH   1   9
BRANCH   3  19
ATOM     19  C   UNL     1      37.018   1.035  15.519  0.00  0.00    +0.000 C 
BRANCH  19  20
ATOM     20  C   UNL     1      36.298   2.236  15.117  0.00  0.00    +0.000 A 
ATOM     21  C   UNL     1      35.004   2.527  15.428  0.00  0.00    +0.000 A 
ATOM     22  C   UNL     1      34.350   3.684  15.015  0.00  0.00    +0.000 A 
ATOM     23  C   UNL     1      35.054   4.590  14.248  0.00  0.00    +0.000 A 
ATOM     24  C   UNL     1      36.360   4.298  13.922  0.00  0.00    +0.000 A 
ATOM     25  C   UNL     1      36.984   3.166  14.331  0.00  0.00    +0.000 A 
ENDBRANCH  19  20
BRANCH  19  26
ATOM     26  C   UNL     1      36.295   0.265  16.544  0.00  0.00    +0.000 A 
ATOM     27  C   UNL     1      36.335   0.562  17.885  0.00  0.00    +0.000 A 
ATOM     28  C   UNL     1      35.604  -0.127  18.834  0.00  0.00    +0.000 A 
ATOM     29  C   UNL     1      34.786  -1.159  18.448  0.00  0.00    +0.000 A 
ATOM     30  C   UNL     1      34.727  -1.475  17.117  0.00  0.00    +0.000 A 
ATOM     31  C   UNL     1      35.458  -0.797  16.168  0.00  0.00    +0.000 A 
ENDBRANCH  19  26
ENDBRANCH   3  19
TORSDOF 7
ENDMDL
