MODEL 1
REMARK VINA RESULT:      -7.9      0.000      0.000
REMARK  Name = 
REMARK  3 active torsions:
REMARK  status: ('A' for Active; 'I' for Inactive)
REMARK    1  A    between atoms: C_3  and  C_4
REMARK    2  A    between atoms: N_6  and  C_7
REMARK    3  A    between atoms: C_19  and  N_20
REMARK                            x       y       z     vdW  Elec       q    Type
REMARK                         _______ _______ _______ _____ _____    ______ ____
ROOT
ATOM      1  C   UNL     1      16.584  11.420  36.460  0.00  0.00    +0.000 C 
ATOM      2  O   UNL     1      17.107  12.521  36.129  0.00  0.00    +0.000 OA
ATOM      3  N   UNL     1      15.871  10.714  35.431  0.00  0.00    +0.000 NA
ENDROOT
BRANCH   3   4
ATOM      4  C   UNL     1      15.734  11.218  34.110  0.00  0.00    +0.000 A 
ATOM      5  C   UNL     1      16.430  10.781  33.018  0.00  0.00    +0.000 A 
ATOM      6  C   UNL     1      16.209  11.382  31.820  0.00  0.00    +0.000 A 
ATOM      7  C   UNL     1      15.306  12.420  31.657  0.00  0.00    +0.000 A 
ATOM      8  C   UNL     1      14.604  12.858  32.763  0.00  0.00    +0.000 A 
ATOM      9  C   UNL     1      14.839  12.244  33.953  0.00  0.00    +0.000 A 
ATOM     10  C   UNL     1      13.734  13.958  32.328  0.00  0.00    +0.000 C 
ATOM     11  C   UNL     1      13.562  13.709  30.852  0.00  0.00    +0.000 C 
ATOM     12  C   UNL     1      14.935  13.200  30.444  0.00  0.00    +0.000 C 
ENDBRANCH   3   4
BRANCH   1  15
ATOM     13  C   UNL     1      19.022  10.151  37.575  0.00  0.00    +0.000 C 
ATOM     14  C   UNL     1      17.696  10.176  38.298  0.00  0.00    +0.000 A 
ATOM     15  C   UNL     1      16.624  10.810  37.756  0.00  0.00    +0.000 A 
ATOM     16  C   UNL     1      15.429  10.793  38.511  0.00  0.00    +0.000 A 
ATOM     17  C   UNL     1      15.334  10.171  39.731  0.00  0.00    +0.000 A 
ATOM     18  C   UNL     1      16.431   9.552  40.240  0.00  0.00    +0.000 A 
ATOM     19  C   UNL     1      17.638   9.547  39.524  0.00  0.00    +0.000 A 
BRANCH  19  20
ATOM     20  N   UNL     1      18.774   8.893  40.103  0.00  0.00    +0.000 N 
ATOM     21  O   UNL     1      19.495   9.512  40.895  0.00  0.00    +0.000 OA
ATOM     22  O   UNL     1      19.047   7.568  39.805  0.00  0.00    +0.000 OA
ENDBRANCH  19  20
ENDBRANCH   1  15
TORSDOF 3
ENDMDL
MODEL 2
REMARK VINA RESULT:      -7.8      1.421      2.427
REMARK  Name = 
REMARK  3 active torsions:
REMARK  status: ('A' for Active; 'I' for Inactive)
REMARK    1  A    between atoms: C_3  and  C_4
REMARK    2  A    between atoms: N_6  and  C_7
REMARK    3  A    between atoms: C_19  and  N_20
REMARK                            x       y       z     vdW  Elec       q    Type
REMARK                         _______ _______ _______ _____ _____    ______ ____
ROOT
ATOM      1  C   UNL     1      16.726  11.635  36.836  0.00  0.00    +0.000 C 
ATOM      2  O   UNL     1      16.989  12.868  36.753  0.00  0.00    +0.000 OA
ATOM      3  N   UNL     1      15.825  11.105  35.850  0.00  0.00    +0.000 NA
ENDROOT
BRANCH   3   4
ATOM      4  C   UNL     1      15.235  11.910  34.839  0.00  0.00    +0.000 A 
ATOM      5  C   UNL     1      14.400  12.970  35.055  0.00  0.00    +0.000 A 
ATOM      6  C   UNL     1      13.891  13.628  33.983  0.00  0.00    +0.000 A 
ATOM      7  C   UNL     1      14.181  13.271  32.676  0.00  0.00    +0.000 A 
ATOM      8  C   UNL     1      15.026  12.200  32.462  0.00  0.00    +0.000 A 
ATOM      9  C   UNL     1      15.526  11.553  33.548  0.00  0.00    +0.000 A 
ATOM     10  C   UNL     1      15.161  12.025  31.010  0.00  0.00    +0.000 C 
ATOM     11  C   UNL     1      14.831  13.388  30.459  0.00  0.00    +0.000 C 
ATOM     12  C   UNL     1      13.721  13.857  31.386  0.00  0.00    +0.000 C 
ENDBRANCH   3   4
BRANCH   1  15
ATOM     13  C   UNL     1      15.113  10.676  39.134  0.00  0.00    +0.000 C 
ATOM     14  C   UNL     1      16.554  10.280  38.910  0.00  0.00    +0.000 A 
ATOM     15  C   UNL     1      17.230  10.717  37.815  0.00  0.00    +0.000 A 
ATOM     16  C   UNL     1      18.568  10.285  37.681  0.00  0.00    +0.000 A 
ATOM     17  C   UNL     1      19.176   9.466  38.600  0.00  0.00    +0.000 A 
ATOM     18  C   UNL     1      18.464   9.048  39.679  0.00  0.00    +0.000 A 
ATOM     19  C   UNL     1      17.131   9.452  39.849  0.00  0.00    +0.000 A 
BRANCH  19  20
ATOM     20  N   UNL     1      16.413   8.978  40.994  0.00  0.00    +0.000 N 
ATOM     21  O   UNL     1      16.359   9.677  42.013  0.00  0.00    +0.000 OA
ATOM     22  O   UNL     1      15.755   7.759  40.953  0.00  0.00    +0.000 OA
ENDBRANCH  19  20
ENDBRANCH   1  15
TORSDOF 3
ENDMDL
MODEL 3
REMARK VINA RESULT:      -7.6      2.554      7.936
REMARK  Name = 
REMARK  3 active torsions:
REMARK  status: ('A' for Active; 'I' for Inactive)
REMARK    1  A    between atoms: C_3  and  C_4
REMARK    2  A    between atoms: N_6  and  C_7
REMARK    3  A    between atoms: C_19  and  N_20
REMARK                            x       y       z     vdW  Elec       q    Type
REMARK                         _______ _______ _______ _____ _____    ______ ____
ROOT
ATOM      1  C   UNL     1      15.979  11.334  35.270  0.00  0.00    +0.000 C 
ATOM      2  O   UNL     1      16.340  10.131  35.135  0.00  0.00    +0.000 OA
ATOM      3  N   UNL     1      16.328  11.973  36.509  0.00  0.00    +0.000 NA
ENDROOT
BRANCH   3   4
ATOM      4  C   UNL     1      17.025  11.299  37.549  0.00  0.00    +0.000 A 
ATOM      5  C   UNL     1      18.384  11.194  37.655  0.00  0.00    +0.000 A 
ATOM      6  C   UNL     1      18.904  10.492  38.694  0.00  0.00    +0.000 A 
ATOM      7  C   UNL     1      18.116   9.878  39.654  0.00  0.00    +0.000 A 
ATOM      8  C   UNL     1      16.744   9.987  39.544  0.00  0.00    +0.000 A 
ATOM      9  C   UNL     1      16.241  10.694  38.496  0.00  0.00    +0.000 A 
ATOM     10  C   UNL     1      16.149   9.248  40.664  0.00  0.00    +0.000 C 
ATOM     11  C   UNL     1      17.246   9.232  41.698  0.00  0.00    +0.000 C 
ATOM     12  C   UNL     1      18.495   9.070  40.847  0.00  0.00    +0.000 C 
ENDBRANCH   3   4
BRANCH   1  15
ATOM     13  C   UNL     1      16.359  11.079  32.339  0.00  0.00    +0.000 C 
ATOM     14  C   UNL     1      15.419  12.080  32.969  0.00  0.00    +0.000 A 
ATOM     15  C   UNL     1      15.254  12.122  34.317  0.00  0.00    +0.000 A 
ATOM     16  C   UNL     1      14.345  13.081  34.815  0.00  0.00    +0.000 A 
ATOM     17  C   UNL     1      13.653  13.939  33.997  0.00  0.00    +0.000 A 
ATOM     18  C   UNL     1      13.842  13.862  32.654  0.00  0.00    +0.000 A 
ATOM     19  C   UNL     1      14.736  12.922  32.117  0.00  0.00    +0.000 A 
BRANCH  19  20
ATOM     20  N   UNL     1      14.897  12.866  30.695  0.00  0.00    +0.000 N 
ATOM     21  O   UNL     1      14.202  12.085  30.033  0.00  0.00    +0.000 OA
ATOM     22  O   UNL     1      15.801  13.701  30.058  0.00  0.00    +0.000 OA
ENDBRANCH  19  20
ENDBRANCH   1  15
TORSDOF 3
ENDMDL
MODEL 4
REMARK VINA RESULT:      -7.4      2.689      7.939
REMARK  Name = 
REMARK  3 active torsions:
REMARK  status: ('A' for Active; 'I' for Inactive)
REMARK    1  A    between atoms: C_3  and  C_4
REMARK    2  A    between atoms: N_6  and  C_7
REMARK    3  A    between atoms: C_19  and  N_20
REMARK                            x       y       z     vdW  Elec       q    Type
REMARK                         _______ _______ _______ _____ _____    ______ ____
ROOT
ATOM      1  C   UNL     1      16.122  11.273  35.294  0.00  0.00    +0.000 C 
ATOM      2  O   UNL     1      16.623  10.129  35.102  0.00  0.00    +0.000 OA
ATOM      3  N   UNL     1      16.350  11.864  36.583  0.00  0.00    +0.000 NA
ENDROOT
BRANCH   3   4
ATOM      4  C   UNL     1      17.081  11.207  37.610  0.00  0.00    +0.000 A 
ATOM      5  C   UNL     1      16.572  10.282  38.478  0.00  0.00    +0.000 A 
ATOM      6  C   UNL     1      17.390   9.760  39.427  0.00  0.00    +0.000 A 
ATOM      7  C   UNL     1      18.721  10.125  39.554  0.00  0.00    +0.000 A 
ATOM      8  C   UNL     1      19.231  11.058  38.674  0.00  0.00    +0.000 A 
ATOM      9  C   UNL     1      18.397  11.571  37.730  0.00  0.00    +0.000 A 
ATOM     10  C   UNL     1      20.641  11.275  39.025  0.00  0.00    +0.000 C 
ATOM     11  C   UNL     1      21.024  10.005  39.742  0.00  0.00    +0.000 C 
ATOM     12  C   UNL     1      19.761   9.675  40.521  0.00  0.00    +0.000 C 
ENDBRANCH   3   4
BRANCH   1  15
ATOM     13  C   UNL     1      16.361  10.951  32.354  0.00  0.00    +0.000 C 
ATOM     14  C   UNL     1      15.447  11.962  33.005  0.00  0.00    +0.000 A 
ATOM     15  C   UNL     1      15.348  12.034  34.359  0.00  0.00    +0.000 A 
ATOM     16  C   UNL     1      14.458  13.001  34.878  0.00  0.00    +0.000 A 
ATOM     17  C   UNL     1      13.722  13.837  34.075  0.00  0.00    +0.000 A 
ATOM     18  C   UNL     1      13.847  13.729  32.726  0.00  0.00    +0.000 A 
ATOM     19  C   UNL     1      14.719  12.781  32.168  0.00  0.00    +0.000 A 
BRANCH  19  20
ATOM     20  N   UNL     1      14.811  12.692  30.742  0.00  0.00    +0.000 N 
ATOM     21  O   UNL     1      14.141  11.845  30.140  0.00  0.00    +0.000 OA
ATOM     22  O   UNL     1      15.620  13.568  30.036  0.00  0.00    +0.000 OA
ENDBRANCH  19  20
ENDBRANCH   1  15
TORSDOF 3
ENDMDL
MODEL 5
REMARK VINA RESULT:      -7.2      3.172      4.834
REMARK  Name = 
REMARK  3 active torsions:
REMARK  status: ('A' for Active; 'I' for Inactive)
REMARK    1  A    between atoms: C_3  and  C_4
REMARK    2  A    between atoms: N_6  and  C_7
REMARK    3  A    between atoms: C_19  and  N_20
REMARK                            x       y       z     vdW  Elec       q    Type
REMARK                         _______ _______ _______ _____ _____    ______ ____
ROOT
ATOM      1  C   UNL     1      18.360   9.977  37.072  0.00  0.00    +0.000 C 
ATOM      2  O   UNL     1      17.649   9.215  36.357  0.00  0.00    +0.000 OA
ATOM      3  N   UNL     1      17.731  11.174  37.556  0.00  0.00    +0.000 NA
ENDROOT
BRANCH   3   4
ATOM      4  C   UNL     1      16.386  11.513  37.245  0.00  0.00    +0.000 A 
ATOM      5  C   UNL     1      15.991  12.344  36.235  0.00  0.00    +0.000 A 
ATOM      6  C   UNL     1      14.666  12.596  36.078  0.00  0.00    +0.000 A 
ATOM      7  C   UNL     1      13.695  12.045  36.899  0.00  0.00    +0.000 A 
ATOM      8  C   UNL     1      14.099  11.205  37.918  0.00  0.00    +0.000 A 
ATOM      9  C   UNL     1      15.430  10.965  38.060  0.00  0.00    +0.000 A 
ATOM     10  C   UNL     1      12.895  10.770  38.638  0.00  0.00    +0.000 C 
ATOM     11  C   UNL     1      11.797  10.936  37.619  0.00  0.00    +0.000 C 
ATOM     12  C   UNL     1      12.215  12.203  36.891  0.00  0.00    +0.000 C 
ENDBRANCH   3   4
BRANCH   1  15
ATOM     13  C   UNL     1      19.220   9.430  39.858  0.00  0.00    +0.000 C 
ATOM     14  C   UNL     1      20.185   9.561  38.704  0.00  0.00    +0.000 A 
ATOM     15  C   UNL     1      19.730   9.770  37.440  0.00  0.00    +0.000 A 
ATOM     16  C   UNL     1      20.705   9.866  36.423  0.00  0.00    +0.000 A 
ATOM     17  C   UNL     1      22.050   9.759  36.675  0.00  0.00    +0.000 A 
ATOM     18  C   UNL     1      22.464   9.546  37.951  0.00  0.00    +0.000 A 
ATOM     19  C   UNL     1      21.528   9.443  38.992  0.00  0.00    +0.000 A 
BRANCH  19  20
ATOM     20  N   UNL     1      22.007   9.206  40.322  0.00  0.00    +0.000 N 
ATOM     21  O   UNL     1      22.154   8.043  40.718  0.00  0.00    +0.000 OA
ATOM     22  O   UNL     1      22.333  10.268  41.149  0.00  0.00    +0.000 OA
ENDBRANCH  19  20
ENDBRANCH   1  15
TORSDOF 3
ENDMDL
MODEL 6
REMARK VINA RESULT:      -6.9     18.329     19.557
REMARK  Name = 
REMARK  3 active torsions:
REMARK  status: ('A' for Active; 'I' for Inactive)
REMARK    1  A    between atoms: C_3  and  C_4
REMARK    2  A    between atoms: N_6  and  C_7
REMARK    3  A    between atoms: C_19  and  N_20
REMARK                            x       y       z     vdW  Elec       q    Type
REMARK                         _______ _______ _______ _____ _____    ______ ____
ROOT
ATOM      1  C   UNL     1      30.789  22.922  28.041  0.00  0.00    +0.000 C 
ATOM      2  O   UNL     1      30.847  24.122  27.649  0.00  0.00    +0.000 OA
ATOM      3  N   UNL     1      30.058  22.009  27.207  0.00  0.00    +0.000 NA
ENDROOT
BRANCH   3   4
ATOM      4  C   UNL     1      29.409  22.416  26.010  0.00  0.00    +0.000 A 
ATOM      5  C   UNL     1      30.024  22.630  24.808  0.00  0.00    +0.000 A 
ATOM      6  C   UNL     1      29.272  23.045  23.756  0.00  0.00    +0.000 A 
ATOM      7  C   UNL     1      27.907  23.261  23.849  0.00  0.00    +0.000 A 
ATOM      8  C   UNL     1      27.290  23.043  25.065  0.00  0.00    +0.000 A 
ATOM      9  C   UNL     1      28.059  22.628  26.107  0.00  0.00    +0.000 A 
ATOM     10  C   UNL     1      25.863  23.351  24.900  0.00  0.00    +0.000 C 
ATOM     11  C   UNL     1      25.635  23.179  23.420  0.00  0.00    +0.000 C 
ATOM     12  C   UNL     1      26.926  23.716  22.824  0.00  0.00    +0.000 C 
ENDBRANCH   3   4
BRANCH   1  15
ATOM     13  C   UNL     1      29.471  23.067  30.695  0.00  0.00    +0.000 C 
ATOM     14  C   UNL     1      30.838  22.462  30.481  0.00  0.00    +0.000 A 
ATOM     15  C   UNL     1      31.374  22.384  29.235  0.00  0.00    +0.000 A 
ATOM     16  C   UNL     1      32.651  21.790  29.129  0.00  0.00    +0.000 A 
ATOM     17  C   UNL     1      33.335  21.310  30.218  0.00  0.00    +0.000 A 
ATOM     18  C   UNL     1      32.763  21.402  31.446  0.00  0.00    +0.000 A 
ATOM     19  C   UNL     1      31.494  21.984  31.596  0.00  0.00    +0.000 A 
BRANCH  19  20
ATOM     20  N   UNL     1      30.922  22.050  32.907  0.00  0.00    +0.000 N 
ATOM     21  O   UNL     1      30.268  21.092  33.335  0.00  0.00    +0.000 OA
ATOM     22  O   UNL     1      31.123  23.165  33.704  0.00  0.00    +0.000 OA
ENDBRANCH  19  20
ENDBRANCH   1  15
TORSDOF 3
ENDMDL
MODEL 7
REMARK VINA RESULT:      -6.7     21.391     23.090
REMARK  Name = 
REMARK  3 active torsions:
REMARK  status: ('A' for Active; 'I' for Inactive)
REMARK    1  A    between atoms: C_3  and  C_4
REMARK    2  A    between atoms: N_6  and  C_7
REMARK    3  A    between atoms: C_19  and  N_20
REMARK                            x       y       z     vdW  Elec       q    Type
REMARK                         _______ _______ _______ _____ _____    ______ ____
ROOT
ATOM      1  C   UNL     1      21.481  -6.541  24.842  0.00  0.00    +0.000 C 
ATOM      2  O   UNL     1      21.638  -5.930  23.747  0.00  0.00    +0.000 OA
ATOM      3  N   UNL     1      22.561  -7.390  25.263  0.00  0.00    +0.000 NA
ENDROOT
BRANCH   3   4
ATOM      4  C   UNL     1      23.744  -7.564  24.495  0.00  0.00    +0.000 A 
ATOM      5  C   UNL     1      24.567  -6.560  24.067  0.00  0.00    +0.000 A 
ATOM      6  C   UNL     1      25.650  -6.881  23.314  0.00  0.00    +0.000 A 
ATOM      7  C   UNL     1      25.959  -8.185  22.960  0.00  0.00    +0.000 A 
ATOM      8  C   UNL     1      25.125  -9.196  23.396  0.00  0.00    +0.000 A 
ATOM      9  C   UNL     1      24.045  -8.855  24.148  0.00  0.00    +0.000 A 
ATOM     10  C   UNL     1      25.660 -10.464  22.883  0.00  0.00    +0.000 C 
ATOM     11  C   UNL     1      27.119 -10.162  22.653  0.00  0.00    +0.000 C 
ATOM     12  C   UNL     1      27.082  -8.729  22.148  0.00  0.00    +0.000 C 
ENDBRANCH   3   4
BRANCH   1  15
ATOM     13  C   UNL     1      20.194  -8.947  26.005  0.00  0.00    +0.000 C 
ATOM     14  C   UNL     1      19.678  -7.544  26.223  0.00  0.00    +0.000 A 
ATOM     15  C   UNL     1      20.335  -6.476  25.700  0.00  0.00    +0.000 A 
ATOM     16  C   UNL     1      19.788  -5.201  25.968  0.00  0.00    +0.000 A 
ATOM     17  C   UNL     1      18.649  -5.028  26.715  0.00  0.00    +0.000 A 
ATOM     18  C   UNL     1      18.025  -6.121  27.224  0.00  0.00    +0.000 A 
ATOM     19  C   UNL     1      18.536  -7.406  26.983  0.00  0.00    +0.000 A 
BRANCH  19  20
ATOM     20  N   UNL     1      17.854  -8.531  27.549  0.00  0.00    +0.000 N 
ATOM     21  O   UNL     1      16.967  -9.096  26.899  0.00  0.00    +0.000 OA
ATOM     22  O   UNL     1      18.204  -9.005  28.803  0.00  0.00    +0.000 OA
ENDBRANCH  19  20
ENDBRANCH   1  15
TORSDOF 3
ENDMDL
MODEL 8
REMARK VINA RESULT:      -6.7      3.097      7.876
REMARK  Name = 
REMARK  3 active torsions:
REMARK  status: ('A' for Active; 'I' for Inactive)
REMARK    1  A    between atoms: C_3  and  C_4
REMARK    2  A    between atoms: N_6  and  C_7
REMARK    3  A    between atoms: C_19  and  N_20
REMARK                            x       y       z     vdW  Elec       q    Type
REMARK                         _______ _______ _______ _____ _____    ______ ____
ROOT
ATOM      1  C   UNL     1      17.820  10.081  36.340  0.00  0.00    +0.000 C 
ATOM      2  O   UNL     1      18.076   8.850  36.224  0.00  0.00    +0.000 OA
ATOM      3  N   UNL     1      18.733  10.854  37.137  0.00  0.00    +0.000 NA
ENDROOT
BRANCH   3   4
ATOM      4  C   UNL     1      19.860  10.280  37.784  0.00  0.00    +0.000 A 
ATOM      5  C   UNL     1      19.856   9.707  39.025  0.00  0.00    +0.000 A 
ATOM      6  C   UNL     1      21.023   9.224  39.524  0.00  0.00    +0.000 A 
ATOM      7  C   UNL     1      22.220   9.287  38.828  0.00  0.00    +0.000 A 
ATOM      8  C   UNL     1      22.219   9.865  37.575  0.00  0.00    +0.000 A 
ATOM      9  C   UNL     1      21.041  10.344  37.091  0.00  0.00    +0.000 A 
ATOM     10  C   UNL     1      23.595   9.817  37.063  0.00  0.00    +0.000 C 
ATOM     11  C   UNL     1      24.215   8.677  37.829  0.00  0.00    +0.000 C 
ATOM     12  C   UNL     1      23.585   8.825  39.204  0.00  0.00    +0.000 C 
ENDBRANCH   3   4
BRANCH   1  15
ATOM     13  C   UNL     1      17.296  10.158  33.421  0.00  0.00    +0.000 C 
ATOM     14  C   UNL     1      16.447  10.889  34.435  0.00  0.00    +0.000 A 
ATOM     15  C   UNL     1      16.710  10.781  35.764  0.00  0.00    +0.000 A 
ATOM     16  C   UNL     1      15.855  11.488  36.639  0.00  0.00    +0.000 A 
ATOM     17  C   UNL     1      14.806  12.253  36.190  0.00  0.00    +0.000 A 
ATOM     18  C   UNL     1      14.574  12.330  34.855  0.00  0.00    +0.000 A 
ATOM     19  C   UNL     1      15.399  11.642  33.950  0.00  0.00    +0.000 A 
BRANCH  19  20
ATOM     20  N   UNL     1      15.111  11.741  32.551  0.00  0.00    +0.000 N 
ATOM     21  O   UNL     1      15.480  12.740  31.922  0.00  0.00    +0.000 OA
ATOM     22  O   UNL     1      14.453  10.712  31.896  0.00  0.00    +0.000 OA
ENDBRANCH  19  20
ENDBRANCH   1  15
TORSDOF 3
ENDMDL
MODEL 9
REMARK VINA RESULT:      -6.7     19.363     20.368
REMARK  Name = 
REMARK  3 active torsions:
REMARK  status: ('A' for Active; 'I' for Inactive)
REMARK    1  A    between atoms: C_3  and  C_4
REMARK    2  A    between atoms: N_6  and  C_7
REMARK    3  A    between atoms: C_19  and  N_20
REMARK                            x       y       z     vdW  Elec       q    Type
REMARK                         _______ _______ _______ _____ _____    ______ ____
ROOT
ATOM      1  C   UNL     1      34.396   4.839  35.764  0.00  0.00    +0.000 C 
ATOM      2  O   UNL     1      33.654   5.561  36.488  0.00  0.00    +0.000 OA
ATOM      3  N   UNL     1      35.732   5.316  35.538  0.00  0.00    +0.000 NA
ENDROOT
BRANCH   3   4
ATOM      4  C   UNL     1      36.209   6.542  36.076  0.00  0.00    +0.000 A 
ATOM      5  C   UNL     1      36.961   6.672  37.210  0.00  0.00    +0.000 A 
ATOM      6  C   UNL     1      37.320   7.917  37.615  0.00  0.00    +0.000 A 
ATOM      7  C   UNL     1      36.957   9.064  36.927  0.00  0.00    +0.000 A 
ATOM      8  C   UNL     1      36.199   8.928  35.782  0.00  0.00    +0.000 A 
ATOM      9  C   UNL     1      35.848   7.673  35.391  0.00  0.00    +0.000 A 
ATOM     10  C   UNL     1      35.944  10.276  35.256  0.00  0.00    +0.000 C 
ATOM     11  C   UNL     1      37.074  11.095  35.826  0.00  0.00    +0.000 C 
ATOM     12  C   UNL     1      37.244  10.497  37.213  0.00  0.00    +0.000 C 
ENDBRANCH   3   4
BRANCH   1  15
ATOM     13  C   UNL     1      34.117   2.297  37.268  0.00  0.00    +0.000 C 
ATOM     14  C   UNL     1      33.939   2.398  35.771  0.00  0.00    +0.000 A 
ATOM     15  C   UNL     1      34.037   3.599  35.142  0.00  0.00    +0.000 A 
ATOM     16  C   UNL     1      33.842   3.599  33.743  0.00  0.00    +0.000 A 
ATOM     17  C   UNL     1      33.569   2.455  33.034  0.00  0.00    +0.000 A 
ATOM     18  C   UNL     1      33.475   1.276  33.701  0.00  0.00    +0.000 A 
ATOM     19  C   UNL     1      33.660   1.231  35.092  0.00  0.00    +0.000 A 
BRANCH  19  20
ATOM     20  N   UNL     1      33.540  -0.031  35.758  0.00  0.00    +0.000 N 
ATOM     21  O   UNL     1      32.421  -0.442  36.087  0.00  0.00    +0.000 OA
ATOM     22  O   UNL     1      34.663  -0.803  36.005  0.00  0.00    +0.000 OA
ENDBRANCH  19  20
ENDBRANCH   1  15
TORSDOF 3
ENDMDL
MODEL 10
REMARK VINA RESULT:      -6.6     19.505     22.107
REMARK  Name = 
REMARK  3 active torsions:
REMARK  status: ('A' for Active; 'I' for Inactive)
REMARK    1  A    between atoms: C_3  and  C_4
REMARK    2  A    between atoms: N_6  and  C_7
REMARK    3  A    between atoms: C_19  and  N_20
REMARK                            x       y       z     vdW  Elec       q    Type
REMARK                         _______ _______ _______ _____ _____    ______ ____
ROOT
ATOM      1  C   UNL     1      28.931  23.929  26.206  0.00  0.00    +0.000 C 
ATOM      2  O   UNL     1      29.098  24.942  26.943  0.00  0.00    +0.000 OA
ATOM      3  N   UNL     1      29.348  22.666  26.749  0.00  0.00    +0.000 NA
ENDROOT
BRANCH   3   4
ATOM      4  C   UNL     1      29.937  22.541  28.036  0.00  0.00    +0.000 A 
ATOM      5  C   UNL     1      29.298  22.754  29.225  0.00  0.00    +0.000 A 
ATOM      6  C   UNL     1      30.003  22.622  30.378  0.00  0.00    +0.000 A 
ATOM      7  C   UNL     1      31.346  22.281  30.401  0.00  0.00    +0.000 A 
ATOM      8  C   UNL     1      31.988  22.066  29.197  0.00  0.00    +0.000 A 
ATOM      9  C   UNL     1      31.265  22.203  28.053  0.00  0.00    +0.000 A 
ATOM     10  C   UNL     1      33.387  21.733  29.494  0.00  0.00    +0.000 C 
ATOM     11  C   UNL     1      33.332  21.207  30.905  0.00  0.00    +0.000 C 
ATOM     12  C   UNL     1      32.280  22.098  31.546  0.00  0.00    +0.000 C 
ENDBRANCH   3   4
BRANCH   1  15
ATOM     13  C   UNL     1      30.319  25.090  23.855  0.00  0.00    +0.000 C 
ATOM     14  C   UNL     1      28.943  24.471  23.783  0.00  0.00    +0.000 A 
ATOM     15  C   UNL     1      28.375  23.916  24.885  0.00  0.00    +0.000 A 
ATOM     16  C   UNL     1      27.092  23.348  24.720  0.00  0.00    +0.000 A 
ATOM     17  C   UNL     1      26.433  23.348  23.515  0.00  0.00    +0.000 A 
ATOM     18  C   UNL     1      27.038  23.909  22.436  0.00  0.00    +0.000 A 
ATOM     19  C   UNL     1      28.314  24.483  22.556  0.00  0.00    +0.000 A 
BRANCH  19  20
ATOM     20  N   UNL     1      28.921  25.053  21.391  0.00  0.00    +0.000 N 
ATOM     21  O   UNL     1      29.706  24.373  20.719  0.00  0.00    +0.000 OA
ATOM     22  O   UNL     1      28.609  26.344  20.998  0.00  0.00    +0.000 OA
ENDBRANCH  19  20
ENDBRANCH   1  15
TORSDOF 3
ENDMDL
