MODEL 1
REMARK VINA RESULT:      -9.2      0.000      0.000
REMARK  Name = 
REMARK  6 active torsions:
REMARK  status: ('A' for Active; 'I' for Inactive)
REMARK    1  A    between atoms: C_2  and  C_4
REMARK    2  A    between atoms: C_6  and  C_7
REMARK    3  A    between atoms: C_16  and  O_17
REMARK    4  A    between atoms: O_17  and  C_18
REMARK    5  A    between atoms: C_18  and  C_19
REMARK    6  A    between atoms: C_23  and  C_24
REMARK                            x       y       z     vdW  Elec       q    Type
REMARK                         _______ _______ _______ _____ _____    ______ ____
ROOT
ATOM      1  C   UNL     1      40.861   5.393  14.639  0.00  0.00    +0.000 A 
ATOM      2  C   UNL     1      40.681   6.014  15.874  0.00  0.00    +0.000 A 
ATOM      3  C   UNL     1      39.679   5.666  16.754  0.00  0.00    +0.000 A 
ATOM      4  C   UNL     1      38.824   4.647  16.377  0.00  0.00    +0.000 A 
ATOM      5  C   UNL     1      37.811   4.270  17.241  0.00  0.00    +0.000 A 
ATOM      6  C   UNL     1      36.959   3.254  16.867  0.00  0.00    +0.000 A 
ATOM      7  C   UNL     1      37.078   2.588  15.643  0.00  0.00    +0.000 A 
ATOM      8  C   UNL     1      38.079   2.955  14.784  0.00  0.00    +0.000 A 
ATOM      9  C   UNL     1      38.943   3.980  15.159  0.00  0.00    +0.000 A 
ATOM     10  C   UNL     1      39.973   4.388  14.328  0.00  0.00    +0.000 A 
ENDROOT
BRANCH   3  11
ATOM     11  C   UNL     1      39.526   6.384  18.042  0.00  0.00    +0.000 A 
ATOM     12  C   UNL     1      40.381   6.133  19.095  0.00  0.00    +0.000 A 
ATOM     13  C   UNL     1      40.217   6.827  20.297  0.00  0.00    +0.000 A 
ATOM     14  C   UNL     1      39.220   7.750  20.436  0.00  0.00    +0.000 A 
ATOM     15  C   UNL     1      38.370   7.998  19.383  0.00  0.00    +0.000 A 
ATOM     16  C   UNL     1      38.538   7.302  18.185  0.00  0.00    +0.000 A 
ENDBRANCH   3  11
BRANCH   1  18
ATOM     17  C   UNL     1      41.597   6.720  12.617  0.00  0.00    +0.000 C 
ATOM     18  C   UNL     1      41.930   5.800  13.732  0.00  0.00    +0.000 C 
ATOM     19  O   UNL     1      43.080   5.396  13.883  0.00  0.00    +0.000 OA
ENDBRANCH   1  18
BRANCH   7  20
ATOM     20  O   UNL     1      36.153   1.600  15.407  0.00  0.00    +0.000 OA
BRANCH  20  21
ATOM     21  C   UNL     1      35.357   0.918  16.298  0.00  0.00    +0.000 C 
BRANCH  21  22
ATOM     22  C   UNL     1      36.095  -0.142  17.000  0.00  0.00    +0.000 A 
ATOM     23  C   UNL     1      36.065  -0.253  18.364  0.00  0.00    +0.000 A 
ATOM     24  C   UNL     1      36.764  -1.224  19.067  0.00  0.00    +0.000 A 
ATOM     25  C   UNL     1      37.518  -2.101  18.339  0.00  0.00    +0.000 A 
ATOM     26  C   UNL     1      37.597  -2.051  16.950  0.00  0.00    +0.000 A 
ATOM     27  C   UNL     1      36.875  -1.066  16.309  0.00  0.00    +0.000 A 
BRANCH  26  28
ATOM     28  C   UNL     1      38.449  -3.038  16.234  0.00  0.00    +0.000 C 
ATOM     29  O   UNL     1      39.749  -2.545  16.078  0.00  0.00    +0.000 OA
ATOM     30  C   UNL     1      37.839  -3.464  14.928  0.00  0.00    +0.000 C 
ATOM     31  C   UNL     1      36.471  -4.033  15.198  0.00  0.00    +0.000 C 
ATOM     32  O   UNL     1      36.314  -4.520  16.492  0.00  0.00    +0.000 OA
ATOM     33  C   UNL     1      37.454  -5.238  16.831  0.00  0.00    +0.000 C 
ATOM     34  C   UNL     1      38.582  -4.268  17.130  0.00  0.00    +0.000 C 
ENDBRANCH  26  28
ENDBRANCH  21  22
ENDBRANCH  20  21
ENDBRANCH   7  20
TORSDOF 6
ENDMDL
MODEL 2
REMARK VINA RESULT:      -9.1      0.501      1.678
REMARK  Name = 
REMARK  6 active torsions:
REMARK  status: ('A' for Active; 'I' for Inactive)
REMARK    1  A    between atoms: C_2  and  C_4
REMARK    2  A    between atoms: C_6  and  C_7
REMARK    3  A    between atoms: C_16  and  O_17
REMARK    4  A    between atoms: O_17  and  C_18
REMARK    5  A    between atoms: C_18  and  C_19
REMARK    6  A    between atoms: C_23  and  C_24
REMARK                            x       y       z     vdW  Elec       q    Type
REMARK                         _______ _______ _______ _____ _____    ______ ____
ROOT
ATOM      1  C   UNL     1      40.864   5.378  14.629  0.00  0.00    +0.000 A 
ATOM      2  C   UNL     1      40.689   5.999  15.865  0.00  0.00    +0.000 A 
ATOM      3  C   UNL     1      39.681   5.663  16.742  0.00  0.00    +0.000 A 
ATOM      4  C   UNL     1      38.813   4.656  16.361  0.00  0.00    +0.000 A 
ATOM      5  C   UNL     1      37.793   4.291  17.222  0.00  0.00    +0.000 A 
ATOM      6  C   UNL     1      36.928   3.288  16.844  0.00  0.00    +0.000 A 
ATOM      7  C   UNL     1      37.041   2.623  15.618  0.00  0.00    +0.000 A 
ATOM      8  C   UNL     1      38.049   2.978  14.762  0.00  0.00    +0.000 A 
ATOM      9  C   UNL     1      38.926   3.990  15.141  0.00  0.00    +0.000 A 
ATOM     10  C   UNL     1      39.963   4.386  14.314  0.00  0.00    +0.000 A 
ENDROOT
BRANCH   3  11
ATOM     11  C   UNL     1      39.535   6.381  18.031  0.00  0.00    +0.000 A 
ATOM     12  C   UNL     1      38.527   7.304  18.213  0.00  0.00    +0.000 A 
ATOM     13  C   UNL     1      38.409   7.964  19.439  0.00  0.00    +0.000 A 
ATOM     14  C   UNL     1      39.280   7.699  20.457  0.00  0.00    +0.000 A 
ATOM     15  C   UNL     1      40.283   6.776  20.272  0.00  0.00    +0.000 A 
ATOM     16  C   UNL     1      40.398   6.121  19.045  0.00  0.00    +0.000 A 
ENDBRANCH   3  11
BRANCH   1  18
ATOM     17  C   UNL     1      41.599   6.590  12.536  0.00  0.00    +0.000 C 
ATOM     18  C   UNL     1      41.940   5.772  13.725  0.00  0.00    +0.000 C 
ATOM     19  O   UNL     1      43.104   5.441  13.939  0.00  0.00    +0.000 OA
ENDBRANCH   1  18
BRANCH   7  20
ATOM     20  O   UNL     1      36.103   1.648  15.378  0.00  0.00    +0.000 OA
BRANCH  20  21
ATOM     21  C   UNL     1      35.187   1.086  16.238  0.00  0.00    +0.000 C 
BRANCH  21  22
ATOM     22  C   UNL     1      35.745  -0.063  16.967  0.00  0.00    +0.000 A 
ATOM     23  C   UNL     1      35.992  -0.005  18.312  0.00  0.00    +0.000 A 
ATOM     24  C   UNL     1      36.538  -1.058  19.033  0.00  0.00    +0.000 A 
ATOM     25  C   UNL     1      36.841  -2.198  18.343  0.00  0.00    +0.000 A 
ATOM     26  C   UNL     1      36.617  -2.330  16.976  0.00  0.00    +0.000 A 
ATOM     27  C   UNL     1      36.068  -1.251  16.316  0.00  0.00    +0.000 A 
BRANCH  26  28
ATOM     28  C   UNL     1      36.983  -3.602  16.298  0.00  0.00    +0.000 C 
ATOM     29  O   UNL     1      35.964  -4.549  16.444  0.00  0.00    +0.000 OA
ATOM     30  C   UNL     1      38.316  -4.122  16.759  0.00  0.00    +0.000 C 
ATOM     31  C   UNL     1      39.358  -3.064  16.510  0.00  0.00    +0.000 C 
ATOM     32  O   UNL     1      39.016  -2.169  15.501  0.00  0.00    +0.000 OA
ATOM     33  C   UNL     1      38.477  -2.888  14.442  0.00  0.00    +0.000 C 
ATOM     34  C   UNL     1      37.066  -3.319  14.799  0.00  0.00    +0.000 C 
ENDBRANCH  26  28
ENDBRANCH  21  22
ENDBRANCH  20  21
ENDBRANCH   7  20
TORSDOF 6
ENDMDL
MODEL 3
REMARK VINA RESULT:      -8.9      1.645      3.758
REMARK  Name = 
REMARK  6 active torsions:
REMARK  status: ('A' for Active; 'I' for Inactive)
REMARK    1  A    between atoms: C_2  and  C_4
REMARK    2  A    between atoms: C_6  and  C_7
REMARK    3  A    between atoms: C_16  and  O_17
REMARK    4  A    between atoms: O_17  and  C_18
REMARK    5  A    between atoms: C_18  and  C_19
REMARK    6  A    between atoms: C_23  and  C_24
REMARK                            x       y       z     vdW  Elec       q    Type
REMARK                         _______ _______ _______ _____ _____    ______ ____
ROOT
ATOM      1  C   UNL     1      39.939   6.061  18.635  0.00  0.00    +0.000 A 
ATOM      2  C   UNL     1      40.584   6.459  17.464  0.00  0.00    +0.000 A 
ATOM      3  C   UNL     1      40.244   5.983  16.217  0.00  0.00    +0.000 A 
ATOM      4  C   UNL     1      39.208   5.069  16.143  0.00  0.00    +0.000 A 
ATOM      5  C   UNL     1      38.840   4.575  14.904  0.00  0.00    +0.000 A 
ATOM      6  C   UNL     1      37.808   3.666  14.829  0.00  0.00    +0.000 A 
ATOM      7  C   UNL     1      37.117   3.220  15.961  0.00  0.00    +0.000 A 
ATOM      8  C   UNL     1      37.476   3.705  17.189  0.00  0.00    +0.000 A 
ATOM      9  C   UNL     1      38.517   4.626  17.270  0.00  0.00    +0.000 A 
ATOM     10  C   UNL     1      38.918   5.149  18.487  0.00  0.00    +0.000 A 
ENDROOT
BRANCH   3  11
ATOM     11  C   UNL     1      40.988   6.427  15.013  0.00  0.00    +0.000 A 
ATOM     12  C   UNL     1      40.542   7.496  14.265  0.00  0.00    +0.000 A 
ATOM     13  C   UNL     1      41.264   7.897  13.137  0.00  0.00    +0.000 A 
ATOM     14  C   UNL     1      42.405   7.241  12.773  0.00  0.00    +0.000 A 
ATOM     15  C   UNL     1      42.846   6.175  13.523  0.00  0.00    +0.000 A 
ATOM     16  C   UNL     1      42.122   5.778  14.648  0.00  0.00    +0.000 A 
ENDBRANCH   3  11
BRANCH   1  18
ATOM     17  C   UNL     1      41.738   6.380  20.382  0.00  0.00    +0.000 C 
ATOM     18  C   UNL     1      40.338   6.583  19.938  0.00  0.00    +0.000 C 
ATOM     19  O   UNL     1      39.539   7.181  20.656  0.00  0.00    +0.000 OA
ENDBRANCH   1  18
BRANCH   7  20
ATOM     20  O   UNL     1      36.115   2.309  15.730  0.00  0.00    +0.000 OA
BRANCH  20  21
ATOM     21  C   UNL     1      35.290   1.672  16.628  0.00  0.00    +0.000 C 
BRANCH  21  22
ATOM     22  C   UNL     1      35.923   0.481  17.212  0.00  0.00    +0.000 A 
ATOM     23  C   UNL     1      35.841   0.211  18.551  0.00  0.00    +0.000 A 
ATOM     24  C   UNL     1      36.443  -0.889  19.146  0.00  0.00    +0.000 A 
ATOM     25  C   UNL     1      37.152  -1.729  18.334  0.00  0.00    +0.000 A 
ATOM     26  C   UNL     1      37.279  -1.520  16.964  0.00  0.00    +0.000 A 
ATOM     27  C   UNL     1      36.654  -0.412  16.431  0.00  0.00    +0.000 A 
BRANCH  26  28
ATOM     28  C   UNL     1      38.076  -2.478  16.152  0.00  0.00    +0.000 C 
ATOM     29  O   UNL     1      39.411  -2.065  16.075  0.00  0.00    +0.000 OA
ATOM     30  C   UNL     1      37.469  -2.708  14.797  0.00  0.00    +0.000 C 
ATOM     31  C   UNL     1      36.059  -3.205  14.979  0.00  0.00    +0.000 C 
ATOM     32  O   UNL     1      35.838  -3.823  16.205  0.00  0.00    +0.000 OA
ATOM     33  C   UNL     1      36.917  -4.654  16.477  0.00  0.00    +0.000 C 
ATOM     34  C   UNL     1      38.103  -3.808  16.903  0.00  0.00    +0.000 C 
ENDBRANCH  26  28
ENDBRANCH  21  22
ENDBRANCH  20  21
ENDBRANCH   7  20
TORSDOF 6
ENDMDL
MODEL 4
REMARK VINA RESULT:      -8.8      1.362      2.354
REMARK  Name = 
REMARK  6 active torsions:
REMARK  status: ('A' for Active; 'I' for Inactive)
REMARK    1  A    between atoms: C_2  and  C_4
REMARK    2  A    between atoms: C_6  and  C_7
REMARK    3  A    between atoms: C_16  and  O_17
REMARK    4  A    between atoms: O_17  and  C_18
REMARK    5  A    between atoms: C_18  and  C_19
REMARK    6  A    between atoms: C_23  and  C_24
REMARK                            x       y       z     vdW  Elec       q    Type
REMARK                         _______ _______ _______ _____ _____    ______ ____
ROOT
ATOM      1  C   UNL     1      41.553   5.793  14.638  0.00  0.00    +0.000 A 
ATOM      2  C   UNL     1      41.227   6.285  15.901  0.00  0.00    +0.000 A 
ATOM      3  C   UNL     1      40.104   5.893  16.596  0.00  0.00    +0.000 A 
ATOM      4  C   UNL     1      39.274   4.963  15.996  0.00  0.00    +0.000 A 
ATOM      5  C   UNL     1      38.140   4.545  16.670  0.00  0.00    +0.000 A 
ATOM      6  C   UNL     1      37.313   3.619  16.074  0.00  0.00    +0.000 A 
ATOM      7  C   UNL     1      37.576   3.083  14.808  0.00  0.00    +0.000 A 
ATOM      8  C   UNL     1      38.697   3.492  14.136  0.00  0.00    +0.000 A 
ATOM      9  C   UNL     1      39.536   4.427  14.736  0.00  0.00    +0.000 A 
ATOM     10  C   UNL     1      40.683   4.871  14.101  0.00  0.00    +0.000 A 
ENDROOT
BRANCH   3  11
ATOM     11  C   UNL     1      39.800   6.474  17.926  0.00  0.00    +0.000 A 
ATOM     12  C   UNL     1      40.591   6.186  19.018  0.00  0.00    +0.000 A 
ATOM     13  C   UNL     1      40.284   6.750  20.260  0.00  0.00    +0.000 A 
ATOM     14  C   UNL     1      39.213   7.585  20.398  0.00  0.00    +0.000 A 
ATOM     15  C   UNL     1      38.427   7.871  19.305  0.00  0.00    +0.000 A 
ATOM     16  C   UNL     1      38.736   7.304  18.068  0.00  0.00    +0.000 A 
ENDBRANCH   3  11
BRANCH   1  18
ATOM     17  C   UNL     1      42.897   7.690  13.646  0.00  0.00    +0.000 C 
ATOM     18  C   UNL     1      42.749   6.242  13.933  0.00  0.00    +0.000 C 
ATOM     19  O   UNL     1      43.618   5.447  13.583  0.00  0.00    +0.000 OA
ENDBRANCH   1  18
BRANCH   7  20
ATOM     20  O   UNL     1      36.659   2.173  14.341  0.00  0.00    +0.000 OA
BRANCH  20  21
ATOM     21  C   UNL     1      36.867   0.982  13.685  0.00  0.00    +0.000 C 
BRANCH  21  22
ATOM     22  C   UNL     1      37.551  -0.005  14.533  0.00  0.00    +0.000 A 
ATOM     23  C   UNL     1      38.894  -0.242  14.415  0.00  0.00    +0.000 A 
ATOM     24  C   UNL     1      39.574  -1.180  15.180  0.00  0.00    +0.000 A 
ATOM     25  C   UNL     1      38.843  -1.894  16.088  0.00  0.00    +0.000 A 
ATOM     26  C   UNL     1      37.475  -1.708  16.265  0.00  0.00    +0.000 A 
ATOM     27  C   UNL     1      36.858  -0.758  15.478  0.00  0.00    +0.000 A 
BRANCH  26  28
ATOM     28  C   UNL     1      36.752  -2.533  17.269  0.00  0.00    +0.000 C 
ATOM     29  O   UNL     1      36.272  -3.710  16.684  0.00  0.00    +0.000 OA
ATOM     30  C   UNL     1      35.669  -1.755  17.962  0.00  0.00    +0.000 C 
ATOM     31  C   UNL     1      36.285  -0.543  18.609  0.00  0.00    +0.000 C 
ATOM     32  O   UNL     1      37.641  -0.687  18.889  0.00  0.00    +0.000 OA
ATOM     33  C   UNL     1      37.844  -1.951  19.426  0.00  0.00    +0.000 C 
ATOM     34  C   UNL     1      37.771  -2.983  18.315  0.00  0.00    +0.000 C 
ENDBRANCH  26  28
ENDBRANCH  21  22
ENDBRANCH  20  21
ENDBRANCH   7  20
TORSDOF 6
ENDMDL
MODEL 5
REMARK VINA RESULT:      -8.8      2.044      4.345
REMARK  Name = 
REMARK  6 active torsions:
REMARK  status: ('A' for Active; 'I' for Inactive)
REMARK    1  A    between atoms: C_2  and  C_4
REMARK    2  A    between atoms: C_6  and  C_7
REMARK    3  A    between atoms: C_16  and  O_17
REMARK    4  A    between atoms: O_17  and  C_18
REMARK    5  A    between atoms: C_18  and  C_19
REMARK    6  A    between atoms: C_23  and  C_24
REMARK                            x       y       z     vdW  Elec       q    Type
REMARK                         _______ _______ _______ _____ _____    ______ ____
ROOT
ATOM      1  C   UNL     1      40.118   6.183  18.643  0.00  0.00    +0.000 A 
ATOM      2  C   UNL     1      40.872   6.666  17.574  0.00  0.00    +0.000 A 
ATOM      3  C   UNL     1      40.675   6.265  16.271  0.00  0.00    +0.000 A 
ATOM      4  C   UNL     1      39.675   5.340  16.032  0.00  0.00    +0.000 A 
ATOM      5  C   UNL     1      39.449   4.919  14.733  0.00  0.00    +0.000 A 
ATOM      6  C   UNL     1      38.453   3.999  14.494  0.00  0.00    +0.000 A 
ATOM      7  C   UNL     1      37.659   3.470  15.517  0.00  0.00    +0.000 A 
ATOM      8  C   UNL     1      37.877   3.882  16.804  0.00  0.00    +0.000 A 
ATOM      9  C   UNL     1      38.881   4.813  17.050  0.00  0.00    +0.000 A 
ATOM     10  C   UNL     1      39.140   5.265  18.333  0.00  0.00    +0.000 A 
ENDROOT
BRANCH   3  11
ATOM     11  C   UNL     1      41.529   6.797  15.182  0.00  0.00    +0.000 A 
ATOM     12  C   UNL     1      41.131   7.895  14.448  0.00  0.00    +0.000 A 
ATOM     13  C   UNL     1      41.957   8.379  13.429  0.00  0.00    +0.000 A 
ATOM     14  C   UNL     1      43.152   7.777  13.158  0.00  0.00    +0.000 A 
ATOM     15  C   UNL     1      43.545   6.682  13.894  0.00  0.00    +0.000 A 
ATOM     16  C   UNL     1      42.717   6.202  14.909  0.00  0.00    +0.000 A 
ENDBRANCH   3  11
BRANCH   1  18
ATOM     17  C   UNL     1      41.703   6.381  20.603  0.00  0.00    +0.000 C 
ATOM     18  C   UNL     1      40.366   6.629  20.011  0.00  0.00    +0.000 C 
ATOM     19  O   UNL     1      39.493   7.199  20.662  0.00  0.00    +0.000 OA
ENDBRANCH   1  18
BRANCH   7  20
ATOM     20  O   UNL     1      36.708   2.558  15.126  0.00  0.00    +0.000 OA
BRANCH  20  21
ATOM     21  C   UNL     1      36.816   1.508  14.242  0.00  0.00    +0.000 C 
BRANCH  21  22
ATOM     22  C   UNL     1      37.626   0.408  14.786  0.00  0.00    +0.000 A 
ATOM     23  C   UNL     1      38.962   0.299  14.510  0.00  0.00    +0.000 A 
ATOM     24  C   UNL     1      39.757  -0.735  14.984  0.00  0.00    +0.000 A 
ATOM     25  C   UNL     1      39.152  -1.683  15.761  0.00  0.00    +0.000 A 
ATOM     26  C   UNL     1      37.799  -1.638  16.084  0.00  0.00    +0.000 A 
ATOM     27  C   UNL     1      37.063  -0.582  15.587  0.00  0.00    +0.000 A 
BRANCH  26  28
ATOM     28  C   UNL     1      37.216  -2.714  16.929  0.00  0.00    +0.000 C 
ATOM     29  O   UNL     1      36.788  -3.784  16.135  0.00  0.00    +0.000 OA
ATOM     30  C   UNL     1      36.129  -2.198  17.828  0.00  0.00    +0.000 C 
ATOM     31  C   UNL     1      36.694  -1.094  18.683  0.00  0.00    +0.000 C 
ATOM     32  O   UNL     1      38.073  -1.169  18.852  0.00  0.00    +0.000 OA
ATOM     33  C   UNL     1      38.412  -2.493  19.098  0.00  0.00    +0.000 C 
ATOM     34  C   UNL     1      38.339  -3.276  17.799  0.00  0.00    +0.000 C 
ENDBRANCH  26  28
ENDBRANCH  21  22
ENDBRANCH  20  21
ENDBRANCH   7  20
TORSDOF 6
ENDMDL
MODEL 6
REMARK VINA RESULT:      -8.7      2.820      9.149
REMARK  Name = 
REMARK  6 active torsions:
REMARK  status: ('A' for Active; 'I' for Inactive)
REMARK    1  A    between atoms: C_2  and  C_4
REMARK    2  A    between atoms: C_6  and  C_7
REMARK    3  A    between atoms: C_16  and  O_17
REMARK    4  A    between atoms: O_17  and  C_18
REMARK    5  A    between atoms: C_18  and  C_19
REMARK    6  A    between atoms: C_23  and  C_24
REMARK                            x       y       z     vdW  Elec       q    Type
REMARK                         _______ _______ _______ _____ _____    ______ ____
ROOT
ATOM      1  C   UNL     1      41.310  -1.367  14.036  0.00  0.00    +0.000 A 
ATOM      2  C   UNL     1      40.309  -2.279  14.370  0.00  0.00    +0.000 A 
ATOM      3  C   UNL     1      39.054  -1.900  14.794  0.00  0.00    +0.000 A 
ATOM      4  C   UNL     1      38.792  -0.544  14.880  0.00  0.00    +0.000 A 
ATOM      5  C   UNL     1      37.539  -0.131  15.298  0.00  0.00    +0.000 A 
ATOM      6  C   UNL     1      37.278   1.219  15.384  0.00  0.00    +0.000 A 
ATOM      7  C   UNL     1      38.233   2.190  15.067  0.00  0.00    +0.000 A 
ATOM      8  C   UNL     1      39.474   1.787  14.653  0.00  0.00    +0.000 A 
ATOM      9  C   UNL     1      39.743   0.425  14.562  0.00  0.00    +0.000 A 
ATOM     10  C   UNL     1      40.980  -0.035  14.146  0.00  0.00    +0.000 A 
ENDROOT
BRANCH   3  11
ATOM     11  C   UNL     1      38.042  -2.920  15.160  0.00  0.00    +0.000 A 
ATOM     12  C   UNL     1      38.047  -3.498  16.411  0.00  0.00    +0.000 A 
ATOM     13  C   UNL     1      37.079  -4.455  16.732  0.00  0.00    +0.000 A 
ATOM     14  C   UNL     1      36.131  -4.818  15.818  0.00  0.00    +0.000 A 
ATOM     15  C   UNL     1      36.130  -4.238  14.571  0.00  0.00    +0.000 A 
ATOM     16  C   UNL     1      37.099  -3.284  14.255  0.00  0.00    +0.000 A 
ENDBRANCH   3  11
BRANCH   1  18
ATOM     17  C   UNL     1      43.814  -1.374  14.378  0.00  0.00    +0.000 C 
ATOM     18  C   UNL     1      42.630  -1.813  13.601  0.00  0.00    +0.000 C 
ATOM     19  O   UNL     1      42.765  -2.536  12.616  0.00  0.00    +0.000 OA
ENDBRANCH   1  18
BRANCH   7  20
ATOM     20  O   UNL     1      37.828   3.496  15.206  0.00  0.00    +0.000 OA
BRANCH  20  21
ATOM     21  C   UNL     1      37.685   4.249  16.349  0.00  0.00    +0.000 C 
BRANCH  21  22
ATOM     22  C   UNL     1      38.887   5.042  16.643  0.00  0.00    +0.000 A 
ATOM     23  C   UNL     1      39.829   5.298  15.683  0.00  0.00    +0.000 A 
ATOM     24  C   UNL     1      40.988   6.022  15.924  0.00  0.00    +0.000 A 
ATOM     25  C   UNL     1      41.179   6.491  17.194  0.00  0.00    +0.000 A 
ATOM     26  C   UNL     1      40.266   6.272  18.221  0.00  0.00    +0.000 A 
ATOM     27  C   UNL     1      39.131   5.549  17.917  0.00  0.00    +0.000 A 
BRANCH  26  28
ATOM     28  C   UNL     1      40.554   6.809  19.578  0.00  0.00    +0.000 C 
ATOM     29  O   UNL     1      41.218   5.853  20.354  0.00  0.00    +0.000 OA
ATOM     30  C   UNL     1      39.316   7.332  20.250  0.00  0.00    +0.000 C 
ATOM     31  C   UNL     1      38.703   8.392  19.374  0.00  0.00    +0.000 C 
ATOM     32  O   UNL     1      39.612   9.000  18.513  0.00  0.00    +0.000 OA
ATOM     33  C   UNL     1      40.778   9.260  19.221  0.00  0.00    +0.000 C 
ATOM     34  C   UNL     1      41.542   7.963  19.416  0.00  0.00    +0.000 C 
ENDBRANCH  26  28
ENDBRANCH  21  22
ENDBRANCH  20  21
ENDBRANCH   7  20
TORSDOF 6
ENDMDL
MODEL 7
REMARK VINA RESULT:      -8.7      2.657      9.734
REMARK  Name = 
REMARK  6 active torsions:
REMARK  status: ('A' for Active; 'I' for Inactive)
REMARK    1  A    between atoms: C_2  and  C_4
REMARK    2  A    between atoms: C_6  and  C_7
REMARK    3  A    between atoms: C_16  and  O_17
REMARK    4  A    between atoms: O_17  and  C_18
REMARK    5  A    between atoms: C_18  and  C_19
REMARK    6  A    between atoms: C_23  and  C_24
REMARK                            x       y       z     vdW  Elec       q    Type
REMARK                         _______ _______ _______ _____ _____    ______ ____
ROOT
ATOM      1  C   UNL     1      36.341  -2.963  15.194  0.00  0.00    +0.000 A 
ATOM      2  C   UNL     1      37.519  -3.169  14.476  0.00  0.00    +0.000 A 
ATOM      3  C   UNL     1      38.386  -2.152  14.143  0.00  0.00    +0.000 A 
ATOM      4  C   UNL     1      38.057  -0.873  14.552  0.00  0.00    +0.000 A 
ATOM      5  C   UNL     1      38.911   0.170  14.236  0.00  0.00    +0.000 A 
ATOM      6  C   UNL     1      38.584   1.445  14.643  0.00  0.00    +0.000 A 
ATOM      7  C   UNL     1      37.419   1.727  15.364  0.00  0.00    +0.000 A 
ATOM      8  C   UNL     1      36.571   0.700  15.680  0.00  0.00    +0.000 A 
ATOM      9  C   UNL     1      36.898  -0.590  15.272  0.00  0.00    +0.000 A 
ATOM     10  C   UNL     1      36.076  -1.664  15.568  0.00  0.00    +0.000 A 
ENDROOT
BRANCH   3  11
ATOM     11  C   UNL     1      39.610  -2.435  13.355  0.00  0.00    +0.000 A 
ATOM     12  C   UNL     1      40.827  -2.606  13.981  0.00  0.00    +0.000 A 
ATOM     13  C   UNL     1      41.965  -2.875  13.215  0.00  0.00    +0.000 A 
ATOM     14  C   UNL     1      41.880  -2.973  11.856  0.00  0.00    +0.000 A 
ATOM     15  C   UNL     1      40.664  -2.803  11.235  0.00  0.00    +0.000 A 
ATOM     16  C   UNL     1      39.531  -2.533  12.005  0.00  0.00    +0.000 A 
ENDBRANCH   3  11
BRANCH   1  18
ATOM     17  C   UNL     1      34.025  -3.971  15.100  0.00  0.00    +0.000 C 
ATOM     18  C   UNL     1      35.445  -4.068  15.518  0.00  0.00    +0.000 C 
ATOM     19  O   UNL     1      35.849  -5.059  16.121  0.00  0.00    +0.000 OA
ENDBRANCH   1  18
BRANCH   7  20
ATOM     20  O   UNL     1      37.226   3.046  15.697  0.00  0.00    +0.000 OA
BRANCH  20  21
ATOM     21  C   UNL     1      37.364   3.669  16.916  0.00  0.00    +0.000 C 
BRANCH  21  22
ATOM     22  C   UNL     1      38.507   4.593  16.939  0.00  0.00    +0.000 A 
ATOM     23  C   UNL     1      39.269   4.818  15.824  0.00  0.00    +0.000 A 
ATOM     24  C   UNL     1      40.369   5.663  15.809  0.00  0.00    +0.000 A 
ATOM     25  C   UNL     1      40.691   6.290  16.980  0.00  0.00    +0.000 A 
ATOM     26  C   UNL     1      39.964   6.112  18.153  0.00  0.00    +0.000 A 
ATOM     27  C   UNL     1      38.878   5.262  18.103  0.00  0.00    +0.000 A 
BRANCH  26  28
ATOM     28  C   UNL     1      40.387   6.825  19.388  0.00  0.00    +0.000 C 
ATOM     29  O   UNL     1      41.275   6.038  20.130  0.00  0.00    +0.000 OA
ATOM     30  C   UNL     1      39.212   7.284  20.204  0.00  0.00    +0.000 C 
ATOM     31  C   UNL     1      38.346   8.168  19.346  0.00  0.00    +0.000 C 
ATOM     32  O   UNL     1      39.030   8.770  18.294  0.00  0.00    +0.000 OA
ATOM     33  C   UNL     1      40.249   9.230  18.772  0.00  0.00    +0.000 C 
ATOM     34  C   UNL     1      41.188   8.053  18.959  0.00  0.00    +0.000 C 
ENDBRANCH  26  28
ENDBRANCH  21  22
ENDBRANCH  20  21
ENDBRANCH   7  20
TORSDOF 6
ENDMDL
MODEL 8
REMARK VINA RESULT:      -8.7      3.934      7.474
REMARK  Name = 
REMARK  6 active torsions:
REMARK  status: ('A' for Active; 'I' for Inactive)
REMARK    1  A    between atoms: C_2  and  C_4
REMARK    2  A    between atoms: C_6  and  C_7
REMARK    3  A    between atoms: C_16  and  O_17
REMARK    4  A    between atoms: O_17  and  C_18
REMARK    5  A    between atoms: C_18  and  C_19
REMARK    6  A    between atoms: C_23  and  C_24
REMARK                            x       y       z     vdW  Elec       q    Type
REMARK                         _______ _______ _______ _____ _____    ______ ____
ROOT
ATOM      1  C   UNL     1      40.497  -1.844  11.037  0.00  0.00    +0.000 A 
ATOM      2  C   UNL     1      41.678  -1.656  11.755  0.00  0.00    +0.000 A 
ATOM      3  C   UNL     1      41.775  -1.861  13.114  0.00  0.00    +0.000 A 
ATOM      4  C   UNL     1      40.636  -2.278  13.779  0.00  0.00    +0.000 A 
ATOM      5  C   UNL     1      40.702  -2.498  15.144  0.00  0.00    +0.000 A 
ATOM      6  C   UNL     1      39.569  -2.913  15.808  0.00  0.00    +0.000 A 
ATOM      7  C   UNL     1      38.350  -3.122  15.154  0.00  0.00    +0.000 A 
ATOM      8  C   UNL     1      38.279  -2.907  13.803  0.00  0.00    +0.000 A 
ATOM      9  C   UNL     1      39.421  -2.488  13.128  0.00  0.00    +0.000 A 
ATOM     10  C   UNL     1      39.403  -2.259  11.763  0.00  0.00    +0.000 A 
ENDROOT
BRANCH   3  11
ATOM     11  C   UNL     1      43.054  -1.617  13.822  0.00  0.00    +0.000 A 
ATOM     12  C   UNL     1      44.058  -2.562  13.810  0.00  0.00    +0.000 A 
ATOM     13  C   UNL     1      45.256  -2.305  14.483  0.00  0.00    +0.000 A 
ATOM     14  C   UNL     1      45.440  -1.127  15.149  0.00  0.00    +0.000 A 
ATOM     15  C   UNL     1      44.435  -0.186  15.158  0.00  0.00    +0.000 A 
ATOM     16  C   UNL     1      43.241  -0.448  14.485  0.00  0.00    +0.000 A 
ENDBRANCH   3  11
BRANCH   1  18
ATOM     17  C   UNL     1      40.147  -0.232   9.123  0.00  0.00    +0.000 C 
ATOM     18  C   UNL     1      40.435  -1.606   9.599  0.00  0.00    +0.000 C 
ATOM     19  O   UNL     1      40.619  -2.517   8.794  0.00  0.00    +0.000 OA
ENDBRANCH   1  18
BRANCH   7  20
ATOM     20  O   UNL     1      37.307  -3.532  15.948  0.00  0.00    +0.000 OA
BRANCH  20  21
ATOM     21  C   UNL     1      36.043  -3.003  16.072  0.00  0.00    +0.000 C 
BRANCH  21  22
ATOM     22  C   UNL     1      36.051  -1.701  16.753  0.00  0.00    +0.000 A 
ATOM     23  C   UNL     1      36.323  -1.594  18.090  0.00  0.00    +0.000 A 
ATOM     24  C   UNL     1      36.320  -0.388  18.776  0.00  0.00    +0.000 A 
ATOM     25  C   UNL     1      36.023   0.737  18.059  0.00  0.00    +0.000 A 
ATOM     26  C   UNL     1      35.738   0.708  16.698  0.00  0.00    +0.000 A 
ATOM     27  C   UNL     1      35.761  -0.521  16.072  0.00  0.00    +0.000 A 
BRANCH  26  28
ATOM     28  C   UNL     1      35.415   1.978  15.994  0.00  0.00    +0.000 C 
ATOM     29  O   UNL     1      34.089   2.352  16.236  0.00  0.00    +0.000 OA
ATOM     30  C   UNL     1      35.730   1.903  14.526  0.00  0.00    +0.000 C 
ATOM     31  C   UNL     1      37.185   1.554  14.362  0.00  0.00    +0.000 C 
ATOM     32  O   UNL     1      37.970   1.903  15.456  0.00  0.00    +0.000 OA
ATOM     33  C   UNL     1      37.594   3.172  15.878  0.00  0.00    +0.000 C 
ATOM     34  C   UNL     1      36.271   3.079  16.616  0.00  0.00    +0.000 C 
ENDBRANCH  26  28
ENDBRANCH  21  22
ENDBRANCH  20  21
ENDBRANCH   7  20
TORSDOF 6
ENDMDL
MODEL 9
REMARK VINA RESULT:      -8.6      2.428      4.008
REMARK  Name = 
REMARK  6 active torsions:
REMARK  status: ('A' for Active; 'I' for Inactive)
REMARK    1  A    between atoms: C_2  and  C_4
REMARK    2  A    between atoms: C_6  and  C_7
REMARK    3  A    between atoms: C_16  and  O_17
REMARK    4  A    between atoms: O_17  and  C_18
REMARK    5  A    between atoms: C_18  and  C_19
REMARK    6  A    between atoms: C_23  and  C_24
REMARK                            x       y       z     vdW  Elec       q    Type
REMARK                         _______ _______ _______ _____ _____    ______ ____
ROOT
ATOM      1  C   UNL     1      36.603   6.957  14.651  0.00  0.00    +0.000 A 
ATOM      2  C   UNL     1      37.553   7.019  15.670  0.00  0.00    +0.000 A 
ATOM      3  C   UNL     1      38.456   6.009  15.922  0.00  0.00    +0.000 A 
ATOM      4  C   UNL     1      38.404   4.890  15.112  0.00  0.00    +0.000 A 
ATOM      5  C   UNL     1      39.301   3.860  15.336  0.00  0.00    +0.000 A 
ATOM      6  C   UNL     1      39.250   2.745  14.529  0.00  0.00    +0.000 A 
ATOM      7  C   UNL     1      38.324   2.612  13.489  0.00  0.00    +0.000 A 
ATOM      8  C   UNL     1      37.434   3.628  13.262  0.00  0.00    +0.000 A 
ATOM      9  C   UNL     1      37.483   4.758  14.073  0.00  0.00    +0.000 A 
ATOM     10  C   UNL     1      36.608   5.814  13.884  0.00  0.00    +0.000 A 
ENDROOT
BRANCH   3  11
ATOM     11  C   UNL     1      39.424   6.126  17.039  0.00  0.00    +0.000 A 
ATOM     12  C   UNL     1      39.013   5.970  18.346  0.00  0.00    +0.000 A 
ATOM     13  C   UNL     1      39.947   6.082  19.381  0.00  0.00    +0.000 A 
ATOM     14  C   UNL     1      41.260   6.341  19.106  0.00  0.00    +0.000 A 
ATOM     15  C   UNL     1      41.665   6.495  17.801  0.00  0.00    +0.000 A 
ATOM     16  C   UNL     1      40.729   6.384  16.772  0.00  0.00    +0.000 A 
ENDBRANCH   3  11
BRANCH   1  18
ATOM     17  C   UNL     1      35.773   9.265  15.263  0.00  0.00    +0.000 C 
ATOM     18  C   UNL     1      35.659   8.046  14.425  0.00  0.00    +0.000 C 
ATOM     19  O   UNL     1      34.788   7.965  13.561  0.00  0.00    +0.000 OA
ENDBRANCH   1  18
BRANCH   7  20
ATOM     20  O   UNL     1      38.391   1.442  12.773  0.00  0.00    +0.000 OA
BRANCH  20  21
ATOM     21  C   UNL     1      37.612   0.311  12.871  0.00  0.00    +0.000 C 
BRANCH  21  22
ATOM     22  C   UNL     1      37.774  -0.361  14.168  0.00  0.00    +0.000 A 
ATOM     23  C   UNL     1      38.975  -0.892  14.555  0.00  0.00    +0.000 A 
ATOM     24  C   UNL     1      39.165  -1.553  15.760  0.00  0.00    +0.000 A 
ATOM     25  C   UNL     1      38.082  -1.672  16.585  0.00  0.00    +0.000 A 
ATOM     26  C   UNL     1      36.830  -1.158  16.260  0.00  0.00    +0.000 A 
ATOM     27  C   UNL     1      36.706  -0.507  15.050  0.00  0.00    +0.000 A 
BRANCH  26  28
ATOM     28  C   UNL     1      35.700  -1.339  17.210  0.00  0.00    +0.000 C 
ATOM     29  O   UNL     1      35.148  -2.618  17.081  0.00  0.00    +0.000 OA
ATOM     30  C   UNL     1      34.669  -0.254  17.071  0.00  0.00    +0.000 C 
ATOM     31  C   UNL     1      35.339   1.077  17.283  0.00  0.00    +0.000 C 
ATOM     32  O   UNL     1      36.502   1.004  18.042  0.00  0.00    +0.000 OA
ATOM     33  C   UNL     1      36.271   0.154  19.116  0.00  0.00    +0.000 C 
ATOM     34  C   UNL     1      36.274  -1.282  18.625  0.00  0.00    +0.000 C 
ENDBRANCH  26  28
ENDBRANCH  21  22
ENDBRANCH  20  21
ENDBRANCH   7  20
TORSDOF 6
ENDMDL
MODEL 10
REMARK VINA RESULT:      -8.5      2.657      4.883
REMARK  Name = 
REMARK  6 active torsions:
REMARK  status: ('A' for Active; 'I' for Inactive)
REMARK    1  A    between atoms: C_2  and  C_4
REMARK    2  A    between atoms: C_6  and  C_7
REMARK    3  A    between atoms: C_16  and  O_17
REMARK    4  A    between atoms: O_17  and  C_18
REMARK    5  A    between atoms: C_18  and  C_19
REMARK    6  A    between atoms: C_23  and  C_24
REMARK                            x       y       z     vdW  Elec       q    Type
REMARK                         _______ _______ _______ _____ _____    ______ ____
ROOT
ATOM      1  C   UNL     1      38.435   5.094  16.683  0.00  0.00    +0.000 A 
ATOM      2  C   UNL     1      37.970   5.471  15.424  0.00  0.00    +0.000 A 
ATOM      3  C   UNL     1      36.971   4.796  14.756  0.00  0.00    +0.000 A 
ATOM      4  C   UNL     1      36.414   3.697  15.383  0.00  0.00    +0.000 A 
ATOM      5  C   UNL     1      35.405   3.000  14.741  0.00  0.00    +0.000 A 
ATOM      6  C   UNL     1      34.848   1.906  15.365  0.00  0.00    +0.000 A 
ATOM      7  C   UNL     1      35.266   1.469  16.627  0.00  0.00    +0.000 A 
ATOM      8  C   UNL     1      36.263   2.154  17.268  0.00  0.00    +0.000 A 
ATOM      9  C   UNL     1      36.826   3.262  16.642  0.00  0.00    +0.000 A 
ATOM     10  C   UNL     1      37.835   3.991  17.248  0.00  0.00    +0.000 A 
ENDROOT
BRANCH   3  11
ATOM     11  C   UNL     1      36.540   5.232  13.406  0.00  0.00    +0.000 A 
ATOM     12  C   UNL     1      37.151   4.732  12.275  0.00  0.00    +0.000 A 
ATOM     13  C   UNL     1      36.722   5.157  11.015  0.00  0.00    +0.000 A 
ATOM     14  C   UNL     1      35.705   6.060  10.895  0.00  0.00    +0.000 A 
ATOM     15  C   UNL     1      35.098   6.557  12.026  0.00  0.00    +0.000 A 
ATOM     16  C   UNL     1      35.530   6.129  13.282  0.00  0.00    +0.000 A 
ENDBRANCH   3  11
BRANCH   1  18
ATOM     17  C   UNL     1      39.560   5.801  18.833  0.00  0.00    +0.000 C 
ATOM     18  C   UNL     1      39.502   5.832  17.352  0.00  0.00    +0.000 C 
ATOM     19  O   UNL     1      40.337   6.465  16.710  0.00  0.00    +0.000 OA
ENDBRANCH   1  18
BRANCH   7  20
ATOM     20  O   UNL     1      34.621   0.360  17.120  0.00  0.00    +0.000 OA
BRANCH  20  21
ATOM     21  C   UNL     1      34.791  -0.966  16.795  0.00  0.00    +0.000 C 
BRANCH  21  22
ATOM     22  C   UNL     1      36.201  -1.297  16.542  0.00  0.00    +0.000 A 
ATOM     23  C   UNL     1      37.024  -1.733  17.545  0.00  0.00    +0.000 A 
ATOM     24  C   UNL     1      38.365  -2.034  17.354  0.00  0.00    +0.000 A 
ATOM     25  C   UNL     1      38.868  -1.877  16.093  0.00  0.00    +0.000 A 
ATOM     26  C   UNL     1      38.092  -1.440  15.024  0.00  0.00    +0.000 A 
ATOM     27  C   UNL     1      36.765  -1.161  15.276  0.00  0.00    +0.000 A 
BRANCH  26  28
ATOM     28  C   UNL     1      38.719  -1.287  13.684  0.00  0.00    +0.000 C 
ATOM     29  O   UNL     1      38.735  -2.510  13.005  0.00  0.00    +0.000 OA
ATOM     30  C   UNL     1      40.083  -0.662  13.769  0.00  0.00    +0.000 C 
ATOM     31  C   UNL     1      39.960   0.671  14.459  0.00  0.00    +0.000 C 
ATOM     32  O   UNL     1      38.692   1.235  14.363  0.00  0.00    +0.000 OA
ATOM     33  C   UNL     1      38.238   1.073  13.060  0.00  0.00    +0.000 C 
ATOM     34  C   UNL     1      37.818  -0.372  12.856  0.00  0.00    +0.000 C 
ENDBRANCH  26  28
ENDBRANCH  21  22
ENDBRANCH  20  21
ENDBRANCH   7  20
TORSDOF 6
ENDMDL
