MODEL 1
REMARK VINA RESULT:      -6.6      0.000      0.000
REMARK  Name = 
REMARK  2 active torsions:
REMARK  status: ('A' for Active; 'I' for Inactive)
REMARK    1  A    between atoms: C_11  and  C_12
REMARK    2  A    between atoms: N_15  and  C_16
REMARK                            x       y       z     vdW  Elec       q    Type
REMARK                         _______ _______ _______ _____ _____    ______ ____
ROOT
ATOM      1  C   UNL     1      31.980  24.357  24.485  0.00  0.00    +0.000 C 
ATOM      2  C   UNL     1      30.622  23.803  24.657  0.00  0.00    +0.000 C 
ATOM      3  C   UNL     1      30.492  22.332  24.532  0.00  0.00    +0.000 C 
ATOM      4  C   UNL     1      29.732  24.430  23.399  0.00  0.00    +0.000 C 
ATOM      5  C   UNL     1      29.725  25.951  23.996  0.00  0.00    +0.000 C 
ATOM      6  C   UNL     1      30.013  25.839  25.400  0.00  0.00    +0.000 C 
ATOM      7  C   UNL     1      29.819  24.415  25.766  0.00  0.00    +0.000 C 
ATOM      8  C   UNL     1      30.262  23.983  27.088  0.00  0.00    +0.000 C 
ATOM      9  C   UNL     1      28.461  24.008  25.360  0.00  0.00    +0.000 A 
ATOM     10  C   UNL     1      28.338  24.002  24.034  0.00  0.00    +0.000 A 
ATOM     11  C   UNL     1      27.076  23.623  23.695  0.00  0.00    +0.000 A 
ATOM     12  N   UNL     1      26.424  23.396  24.862  0.00  0.00    +0.000 NA
ATOM     13  N   UNL     1      27.282  23.635  25.873  0.00  0.00    +0.000 N 
ENDROOT
BRANCH  13  14
ATOM     14  C   UNL     1      26.947  23.499  27.250  0.00  0.00    +0.000 A 
ATOM     15  C   UNL     1      26.106  24.383  27.894  0.00  0.00    +0.000 A 
ATOM     16  C   UNL     1      25.771  24.267  29.228  0.00  0.00    +0.000 A 
ATOM     17  C   UNL     1      26.302  23.215  29.957  0.00  0.00    +0.000 A 
ATOM     18  C   UNL     1      27.148  22.308  29.355  0.00  0.00    +0.000 A 
ATOM     19  C   UNL     1      27.456  22.462  28.016  0.00  0.00    +0.000 A 
ENDBRANCH  13  14
BRANCH  11  20
ATOM     20  C   UNL     1      26.533  23.490  22.336  0.00  0.00    +0.000 C 
ATOM     21  O   UNL     1      25.356  22.749  22.378  0.00  0.00    +0.000 OA
ENDBRANCH  11  20
TORSDOF 2
ENDMDL
MODEL 2
REMARK VINA RESULT:      -6.5      2.259      4.303
REMARK  Name = 
REMARK  2 active torsions:
REMARK  status: ('A' for Active; 'I' for Inactive)
REMARK    1  A    between atoms: C_11  and  C_12
REMARK    2  A    between atoms: N_15  and  C_16
REMARK                            x       y       z     vdW  Elec       q    Type
REMARK                         _______ _______ _______ _____ _____    ______ ____
ROOT
ATOM      1  C   UNL     1      25.041  25.460  25.874  0.00  0.00    +0.000 C 
ATOM      2  C   UNL     1      26.412  25.263  25.364  0.00  0.00    +0.000 C 
ATOM      3  C   UNL     1      27.170  26.490  25.024  0.00  0.00    +0.000 C 
ATOM      4  C   UNL     1      26.230  24.448  23.925  0.00  0.00    +0.000 C 
ATOM      5  C   UNL     1      25.758  23.052  24.630  0.00  0.00    +0.000 C 
ATOM      6  C   UNL     1      26.210  23.111  25.994  0.00  0.00    +0.000 C 
ATOM      7  C   UNL     1      27.209  24.204  26.068  0.00  0.00    +0.000 C 
ATOM      8  C   UNL     1      27.663  24.626  27.389  0.00  0.00    +0.000 C 
ATOM      9  C   UNL     1      28.256  23.952  25.060  0.00  0.00    +0.000 A 
ATOM     10  C   UNL     1      27.770  24.065  23.825  0.00  0.00    +0.000 A 
ATOM     11  C   UNL     1      28.760  23.826  22.922  0.00  0.00    +0.000 A 
ATOM     12  N   UNL     1      29.875  23.561  23.647  0.00  0.00    +0.000 NA
ATOM     13  N   UNL     1      29.553  23.641  24.952  0.00  0.00    +0.000 N 
ENDROOT
BRANCH  13  14
ATOM     14  C   UNL     1      30.476  23.422  26.014  0.00  0.00    +0.000 A 
ATOM     15  C   UNL     1      31.502  24.302  26.291  0.00  0.00    +0.000 A 
ATOM     16  C   UNL     1      32.407  24.105  27.316  0.00  0.00    +0.000 A 
ATOM     17  C   UNL     1      32.280  22.973  28.105  0.00  0.00    +0.000 A 
ATOM     18  C   UNL     1      31.270  22.065  27.864  0.00  0.00    +0.000 A 
ATOM     19  C   UNL     1      30.387  22.302  26.827  0.00  0.00    +0.000 A 
ENDBRANCH  13  14
BRANCH  11  20
ATOM     20  C   UNL     1      28.639  23.850  21.458  0.00  0.00    +0.000 C 
ATOM     21  O   UNL     1      29.750  24.487  20.912  0.00  0.00    +0.000 OA
ENDBRANCH  11  20
TORSDOF 2
ENDMDL
MODEL 3
REMARK VINA RESULT:      -6.4      1.895      2.835
REMARK  Name = 
REMARK  2 active torsions:
REMARK  status: ('A' for Active; 'I' for Inactive)
REMARK    1  A    between atoms: C_11  and  C_12
REMARK    2  A    between atoms: N_15  and  C_16
REMARK                            x       y       z     vdW  Elec       q    Type
REMARK                         _______ _______ _______ _____ _____    ______ ____
ROOT
ATOM      1  C   UNL     1      29.296  27.282  22.334  0.00  0.00    +0.000 C 
ATOM      2  C   UNL     1      28.945  25.979  22.931  0.00  0.00    +0.000 C 
ATOM      3  C   UNL     1      29.401  24.775  22.197  0.00  0.00    +0.000 C 
ATOM      4  C   UNL     1      27.283  25.914  22.891  0.00  0.00    +0.000 C 
ATOM      5  C   UNL     1      27.084  27.055  24.042  0.00  0.00    +0.000 C 
ATOM      6  C   UNL     1      28.324  27.122  24.769  0.00  0.00    +0.000 C 
ATOM      7  C   UNL     1      29.090  25.900  24.422  0.00  0.00    +0.000 C 
ATOM      8  C   UNL     1      30.483  25.824  24.850  0.00  0.00    +0.000 C 
ATOM      9  C   UNL     1      28.248  24.723  24.705  0.00  0.00    +0.000 A 
ATOM     10  C   UNL     1      27.203  24.671  23.881  0.00  0.00    +0.000 A 
ATOM     11  C   UNL     1      26.448  23.576  24.169  0.00  0.00    +0.000 A 
ATOM     12  N   UNL     1      27.068  22.954  25.203  0.00  0.00    +0.000 NA
ATOM     13  N   UNL     1      28.166  23.665  25.521  0.00  0.00    +0.000 N 
ENDROOT
BRANCH  13  14
ATOM     14  C   UNL     1      29.069  23.311  26.564  0.00  0.00    +0.000 A 
ATOM     15  C   UNL     1      28.942  23.805  27.846  0.00  0.00    +0.000 A 
ATOM     16  C   UNL     1      29.808  23.473  28.869  0.00  0.00    +0.000 A 
ATOM     17  C   UNL     1      30.853  22.604  28.599  0.00  0.00    +0.000 A 
ATOM     18  C   UNL     1      31.019  22.087  27.332  0.00  0.00    +0.000 A 
ATOM     19  C   UNL     1      30.128  22.446  26.337  0.00  0.00    +0.000 A 
ENDBRANCH  13  14
BRANCH  11  20
ATOM     20  C   UNL     1      25.212  23.157  23.494  0.00  0.00    +0.000 C 
ATOM     21  O   UNL     1      25.500  22.800  22.181  0.00  0.00    +0.000 OA
ENDBRANCH  11  20
TORSDOF 2
ENDMDL
MODEL 4
REMARK VINA RESULT:      -6.3      2.415      5.507
REMARK  Name = 
REMARK  2 active torsions:
REMARK  status: ('A' for Active; 'I' for Inactive)
REMARK    1  A    between atoms: C_11  and  C_12
REMARK    2  A    between atoms: N_15  and  C_16
REMARK                            x       y       z     vdW  Elec       q    Type
REMARK                         _______ _______ _______ _____ _____    ______ ____
ROOT
ATOM      1  C   UNL     1      30.690  24.068  26.701  0.00  0.00    +0.000 C 
ATOM      2  C   UNL     1      29.677  24.556  25.746  0.00  0.00    +0.000 C 
ATOM      3  C   UNL     1      28.691  25.529  26.273  0.00  0.00    +0.000 C 
ATOM      4  C   UNL     1      28.787  23.214  25.328  0.00  0.00    +0.000 C 
ATOM      5  C   UNL     1      29.992  22.528  24.464  0.00  0.00    +0.000 C 
ATOM      6  C   UNL     1      30.906  23.587  24.128  0.00  0.00    +0.000 C 
ATOM      7  C   UNL     1      30.192  24.863  24.371  0.00  0.00    +0.000 C 
ATOM      8  C   UNL     1      30.966  26.099  24.322  0.00  0.00    +0.000 C 
ATOM      9  C   UNL     1      28.929  24.846  23.609  0.00  0.00    +0.000 A 
ATOM     10  C   UNL     1      28.090  23.931  24.091  0.00  0.00    +0.000 A 
ATOM     11  C   UNL     1      26.938  23.941  23.366  0.00  0.00    +0.000 A 
ATOM     12  N   UNL     1      27.098  24.898  22.419  0.00  0.00    +0.000 NA
ATOM     13  N   UNL     1      28.319  25.443  22.578  0.00  0.00    +0.000 N 
ENDROOT
BRANCH  13  14
ATOM     14  C   UNL     1      28.838  26.486  21.758  0.00  0.00    +0.000 A 
ATOM     15  C   UNL     1      29.425  26.238  20.535  0.00  0.00    +0.000 A 
ATOM     16  C   UNL     1      29.934  27.237  19.728  0.00  0.00    +0.000 A 
ATOM     17  C   UNL     1      29.851  28.550  20.164  0.00  0.00    +0.000 A 
ATOM     18  C   UNL     1      29.272  28.844  21.381  0.00  0.00    +0.000 A 
ATOM     19  C   UNL     1      28.776  27.813  22.156  0.00  0.00    +0.000 A 
ENDBRANCH  13  14
BRANCH  11  20
ATOM     20  C   UNL     1      25.762  23.085  23.573  0.00  0.00    +0.000 C 
ATOM     21  O   UNL     1      25.239  22.711  22.339  0.00  0.00    +0.000 OA
ENDBRANCH  11  20
TORSDOF 2
ENDMDL
MODEL 5
REMARK VINA RESULT:      -6.1     29.275     30.851
REMARK  Name = 
REMARK  2 active torsions:
REMARK  status: ('A' for Active; 'I' for Inactive)
REMARK    1  A    between atoms: C_11  and  C_12
REMARK    2  A    between atoms: N_15  and  C_16
REMARK                            x       y       z     vdW  Elec       q    Type
REMARK                         _______ _______ _______ _____ _____    ______ ____
ROOT
ATOM      1  C   UNL     1      35.055  -7.881  29.214  0.00  0.00    +0.000 C 
ATOM      2  C   UNL     1      34.248  -7.544  30.403  0.00  0.00    +0.000 C 
ATOM      3  C   UNL     1      34.239  -8.544  31.496  0.00  0.00    +0.000 C 
ATOM      4  C   UNL     1      32.677  -7.476  29.859  0.00  0.00    +0.000 C 
ATOM      5  C   UNL     1      32.899  -6.101  29.005  0.00  0.00    +0.000 C 
ATOM      6  C   UNL     1      34.072  -5.468  29.548  0.00  0.00    +0.000 C 
ATOM      7  C   UNL     1      34.342  -6.116  30.854  0.00  0.00    +0.000 C 
ATOM      8  C   UNL     1      35.608  -5.817  31.515  0.00  0.00    +0.000 C 
ATOM      9  C   UNL     1      33.127  -6.024  31.684  0.00  0.00    +0.000 A 
ATOM     10  C   UNL     1      32.142  -6.762  31.176  0.00  0.00    +0.000 A 
ATOM     11  C   UNL     1      31.038  -6.654  31.964  0.00  0.00    +0.000 A 
ATOM     12  N   UNL     1      31.379  -5.820  32.978  0.00  0.00    +0.000 NA
ATOM     13  N   UNL     1      32.659  -5.443  32.795  0.00  0.00    +0.000 N 
ENDROOT
BRANCH  13  14
ATOM     14  C   UNL     1      33.362  -4.565  33.668  0.00  0.00    +0.000 A 
ATOM     15  C   UNL     1      34.104  -5.025  34.735  0.00  0.00    +0.000 A 
ATOM     16  C   UNL     1      34.791  -4.188  35.592  0.00  0.00    +0.000 A 
ATOM     17  C   UNL     1      34.734  -2.821  35.372  0.00  0.00    +0.000 A 
ATOM     18  C   UNL     1      34.004  -2.315  34.317  0.00  0.00    +0.000 A 
ATOM     19  C   UNL     1      33.332  -3.190  33.485  0.00  0.00    +0.000 A 
ENDBRANCH  13  14
BRANCH  11  20
ATOM     20  C   UNL     1      29.739  -7.309  31.754  0.00  0.00    +0.000 C 
ATOM     21  O   UNL     1      29.262  -6.994  30.485  0.00  0.00    +0.000 OA
ENDBRANCH  11  20
TORSDOF 2
ENDMDL
MODEL 6
REMARK VINA RESULT:      -6.0      2.467      5.399
REMARK  Name = 
REMARK  2 active torsions:
REMARK  status: ('A' for Active; 'I' for Inactive)
REMARK    1  A    between atoms: C_11  and  C_12
REMARK    2  A    between atoms: N_15  and  C_16
REMARK                            x       y       z     vdW  Elec       q    Type
REMARK                         _______ _______ _______ _____ _____    ______ ____
ROOT
ATOM      1  C   UNL     1      24.631  25.723  25.348  0.00  0.00    +0.000 C 
ATOM      2  C   UNL     1      25.621  24.742  25.835  0.00  0.00    +0.000 C 
ATOM      3  C   UNL     1      25.491  23.362  25.312  0.00  0.00    +0.000 C 
ATOM      4  C   UNL     1      25.346  24.619  27.471  0.00  0.00    +0.000 C 
ATOM      5  C   UNL     1      25.921  26.111  27.808  0.00  0.00    +0.000 C 
ATOM      6  C   UNL     1      26.752  26.488  26.696  0.00  0.00    +0.000 C 
ATOM      7  C   UNL     1      27.030  25.251  25.929  0.00  0.00    +0.000 C 
ATOM      8  C   UNL     1      27.668  25.386  24.624  0.00  0.00    +0.000 C 
ATOM      9  C   UNL     1      27.608  24.250  26.845  0.00  0.00    +0.000 A 
ATOM     10  C   UNL     1      26.713  23.854  27.749  0.00  0.00    +0.000 A 
ATOM     11  C   UNL     1      27.278  22.934  28.577  0.00  0.00    +0.000 A 
ATOM     12  N   UNL     1      28.556  22.778  28.150  0.00  0.00    +0.000 NA
ATOM     13  N   UNL     1      28.744  23.588  27.091  0.00  0.00    +0.000 N 
ENDROOT
BRANCH  13  14
ATOM     14  C   UNL     1      29.972  23.691  26.377  0.00  0.00    +0.000 A 
ATOM     15  C   UNL     1      30.285  22.856  25.325  0.00  0.00    +0.000 A 
ATOM     16  C   UNL     1      31.471  22.941  24.622  0.00  0.00    +0.000 A 
ATOM     17  C   UNL     1      32.390  23.911  24.988  0.00  0.00    +0.000 A 
ATOM     18  C   UNL     1      32.120  24.768  26.034  0.00  0.00    +0.000 A 
ATOM     19  C   UNL     1      30.921  24.646  26.710  0.00  0.00    +0.000 A 
ENDBRANCH  13  14
BRANCH  11  20
ATOM     20  C   UNL     1      26.631  22.252  29.706  0.00  0.00    +0.000 C 
ATOM     21  O   UNL     1      26.048  23.197  30.545  0.00  0.00    +0.000 OA
ENDBRANCH  11  20
TORSDOF 2
ENDMDL
MODEL 7
REMARK VINA RESULT:      -5.9     33.406     35.216
REMARK  Name = 
REMARK  2 active torsions:
REMARK  status: ('A' for Active; 'I' for Inactive)
REMARK    1  A    between atoms: C_11  and  C_12
REMARK    2  A    between atoms: N_15  and  C_16
REMARK                            x       y       z     vdW  Elec       q    Type
REMARK                         _______ _______ _______ _____ _____    ______ ____
ROOT
ATOM      1  C   UNL     1      15.517 -12.102  25.070  0.00  0.00    +0.000 C 
ATOM      2  C   UNL     1      16.460 -11.423  25.980  0.00  0.00    +0.000 C 
ATOM      3  C   UNL     1      17.809 -12.025  26.097  0.00  0.00    +0.000 C 
ATOM      4  C   UNL     1      15.784 -11.563  27.494  0.00  0.00    +0.000 C 
ATOM      5  C   UNL     1      14.563 -10.525  27.182  0.00  0.00    +0.000 C 
ATOM      6  C   UNL     1      14.980  -9.729  26.059  0.00  0.00    +0.000 C 
ATOM      7  C   UNL     1      16.442  -9.924  25.915  0.00  0.00    +0.000 C 
ATOM      8  C   UNL     1      17.085  -9.404  24.712  0.00  0.00    +0.000 C 
ATOM      9  C   UNL     1      17.088  -9.600  27.200  0.00  0.00    +0.000 A 
ATOM     10  C   UNL     1      16.754 -10.481  28.141  0.00  0.00    +0.000 A 
ATOM     11  C   UNL     1      17.365 -10.152  29.312  0.00  0.00    +0.000 A 
ATOM     12  N   UNL     1      18.089  -9.034  29.058  0.00  0.00    +0.000 NA
ATOM     13  N   UNL     1      17.911  -8.707  27.763  0.00  0.00    +0.000 N 
ENDROOT
BRANCH  13  14
ATOM     14  C   UNL     1      18.520  -7.583  27.136  0.00  0.00    +0.000 A 
ATOM     15  C   UNL     1      18.018  -6.305  27.267  0.00  0.00    +0.000 A 
ATOM     16  C   UNL     1      18.595  -5.204  26.665  0.00  0.00    +0.000 A 
ATOM     17  C   UNL     1      19.732  -5.389  25.895  0.00  0.00    +0.000 A 
ATOM     18  C   UNL     1      20.268  -6.649  25.735  0.00  0.00    +0.000 A 
ATOM     19  C   UNL     1      19.658  -7.722  26.356  0.00  0.00    +0.000 A 
ENDBRANCH  13  14
BRANCH  11  20
ATOM     20  C   UNL     1      17.257 -10.868  30.591  0.00  0.00    +0.000 C 
ATOM     21  O   UNL     1      16.712 -10.020  31.551  0.00  0.00    +0.000 OA
ENDBRANCH  11  20
TORSDOF 2
ENDMDL
MODEL 8
REMARK VINA RESULT:      -5.8     31.762     33.458
REMARK  Name = 
REMARK  2 active torsions:
REMARK  status: ('A' for Active; 'I' for Inactive)
REMARK    1  A    between atoms: C_11  and  C_12
REMARK    2  A    between atoms: N_15  and  C_16
REMARK                            x       y       z     vdW  Elec       q    Type
REMARK                         _______ _______ _______ _____ _____    ______ ____
ROOT
ATOM      1  C   UNL     1      19.422 -11.665  27.465  0.00  0.00    +0.000 C 
ATOM      2  C   UNL     1      19.845 -10.280  27.179  0.00  0.00    +0.000 C 
ATOM      3  C   UNL     1      20.582  -9.582  28.258  0.00  0.00    +0.000 C 
ATOM      4  C   UNL     1      18.432  -9.423  26.988  0.00  0.00    +0.000 C 
ATOM      5  C   UNL     1      18.049 -10.127  25.565  0.00  0.00    +0.000 C 
ATOM      6  C   UNL     1      19.271 -10.672  25.037  0.00  0.00    +0.000 C 
ATOM      7  C   UNL     1      20.381 -10.049  25.797  0.00  0.00    +0.000 C 
ATOM      8  C   UNL     1      21.723 -10.593  25.615  0.00  0.00    +0.000 C 
ATOM      9  C   UNL     1      20.246  -8.583  25.706  0.00  0.00    +0.000 A 
ATOM     10  C   UNL     1      19.160  -8.161  26.352  0.00  0.00    +0.000 A 
ATOM     11  C   UNL     1      19.066  -6.807  26.247  0.00  0.00    +0.000 A 
ATOM     12  N   UNL     1      20.135  -6.410  25.513  0.00  0.00    +0.000 NA
ATOM     13  N   UNL     1      20.848  -7.506  25.189  0.00  0.00    +0.000 N 
ENDROOT
BRANCH  13  14
ATOM     14  C   UNL     1      22.045  -7.476  24.418  0.00  0.00    +0.000 A 
ATOM     15  C   UNL     1      22.180  -8.182  23.241  0.00  0.00    +0.000 A 
ATOM     16  C   UNL     1      23.334  -8.165  22.481  0.00  0.00    +0.000 A 
ATOM     17  C   UNL     1      24.406  -7.404  22.919  0.00  0.00    +0.000 A 
ATOM     18  C   UNL     1      24.316  -6.683  24.091  0.00  0.00    +0.000 A 
ATOM     19  C   UNL     1      23.142  -6.729  24.820  0.00  0.00    +0.000 A 
ENDBRANCH  13  14
BRANCH  11  20
ATOM     20  C   UNL     1      18.015  -5.953  26.817  0.00  0.00    +0.000 C 
ATOM     21  O   UNL     1      18.316  -4.618  26.564  0.00  0.00    +0.000 OA
ENDBRANCH  11  20
TORSDOF 2
ENDMDL
MODEL 9
REMARK VINA RESULT:      -5.8     33.383     35.238
REMARK  Name = 
REMARK  2 active torsions:
REMARK  status: ('A' for Active; 'I' for Inactive)
REMARK    1  A    between atoms: C_11  and  C_12
REMARK    2  A    between atoms: N_15  and  C_16
REMARK                            x       y       z     vdW  Elec       q    Type
REMARK                         _______ _______ _______ _____ _____    ______ ____
ROOT
ATOM      1  C   UNL     1      18.794 -12.043  30.549  0.00  0.00    +0.000 C 
ATOM      2  C   UNL     1      18.030 -11.057  29.761  0.00  0.00    +0.000 C 
ATOM      3  C   UNL     1      17.150 -10.143  30.527  0.00  0.00    +0.000 C 
ATOM      4  C   UNL     1      17.005 -11.958  28.810  0.00  0.00    +0.000 C 
ATOM      5  C   UNL     1      18.196 -12.538  27.855  0.00  0.00    +0.000 C 
ATOM      6  C   UNL     1      19.312 -11.642  28.005  0.00  0.00    +0.000 C 
ATOM      7  C   UNL     1      18.789 -10.409  28.641  0.00  0.00    +0.000 C 
ATOM      8  C   UNL     1      19.754  -9.421  29.111  0.00  0.00    +0.000 C 
ATOM      9  C   UNL     1      17.669  -9.901  27.826  0.00  0.00    +0.000 A 
ATOM     10  C   UNL     1      16.629 -10.731  27.870  0.00  0.00    +0.000 A 
ATOM     11  C   UNL     1      15.616 -10.233  27.109  0.00  0.00    +0.000 A 
ATOM     12  N   UNL     1      16.072  -9.064  26.594  0.00  0.00    +0.000 NA
ATOM     13  N   UNL     1      17.328  -8.873  27.040  0.00  0.00    +0.000 N 
ENDROOT
BRANCH  13  14
ATOM     14  C   UNL     1      18.128  -7.743  26.705  0.00  0.00    +0.000 A 
ATOM     15  C   UNL     1      19.265  -7.850  25.932  0.00  0.00    +0.000 A 
ATOM     16  C   UNL     1      20.052  -6.765  25.598  0.00  0.00    +0.000 A 
ATOM     17  C   UNL     1      19.685  -5.511  26.058  0.00  0.00    +0.000 A 
ATOM     18  C   UNL     1      18.556  -5.358  26.835  0.00  0.00    +0.000 A 
ATOM     19  C   UNL     1      17.797  -6.470  27.145  0.00  0.00    +0.000 A 
ENDBRANCH  13  14
BRANCH  11  20
ATOM     20  C   UNL     1      14.297 -10.844  26.891  0.00  0.00    +0.000 C 
ATOM     21  O   UNL     1      13.367  -9.849  26.608  0.00  0.00    +0.000 OA
ENDBRANCH  11  20
TORSDOF 2
ENDMDL
MODEL 10
REMARK VINA RESULT:      -5.7     33.155     34.866
REMARK  Name = 
REMARK  2 active torsions:
REMARK  status: ('A' for Active; 'I' for Inactive)
REMARK    1  A    between atoms: C_11  and  C_12
REMARK    2  A    between atoms: N_15  and  C_16
REMARK                            x       y       z     vdW  Elec       q    Type
REMARK                         _______ _______ _______ _____ _____    ______ ____
ROOT
ATOM      1  C   UNL     1      19.182 -11.584  28.012  0.00  0.00    +0.000 C 
ATOM      2  C   UNL     1      18.634 -10.504  27.167  0.00  0.00    +0.000 C 
ATOM      3  C   UNL     1      19.137 -10.439  25.775  0.00  0.00    +0.000 C 
ATOM      4  C   UNL     1      19.141  -9.091  27.883  0.00  0.00    +0.000 C 
ATOM      5  C   UNL     1      18.162  -9.249  29.181  0.00  0.00    +0.000 C 
ATOM      6  C   UNL     1      17.118 -10.161  28.796  0.00  0.00    +0.000 C 
ATOM      7  C   UNL     1      17.161 -10.262  27.318  0.00  0.00    +0.000 C 
ATOM      8  C   UNL     1      16.352 -11.296  26.680  0.00  0.00    +0.000 C 
ATOM      9  C   UNL     1      17.061  -8.904  26.751  0.00  0.00    +0.000 A 
ATOM     10  C   UNL     1      18.143  -8.183  27.039  0.00  0.00    +0.000 A 
ATOM     11  C   UNL     1      18.018  -6.938  26.504  0.00  0.00    +0.000 A 
ATOM     12  N   UNL     1      16.817  -6.918  25.875  0.00  0.00    +0.000 NA
ATOM     13  N   UNL     1      16.242  -8.126  26.034  0.00  0.00    +0.000 N 
ENDROOT
BRANCH  13  14
ATOM     14  C   UNL     1      14.967  -8.476  25.505  0.00  0.00    +0.000 A 
ATOM     15  C   UNL     1      13.816  -8.424  26.264  0.00  0.00    +0.000 A 
ATOM     16  C   UNL     1      12.571  -8.760  25.768  0.00  0.00    +0.000 A 
ATOM     17  C   UNL     1      12.471  -9.168  24.448  0.00  0.00    +0.000 A 
ATOM     18  C   UNL     1      13.596  -9.236  23.652  0.00  0.00    +0.000 A 
ATOM     19  C   UNL     1      14.821  -8.890  24.190  0.00  0.00    +0.000 A 
ENDBRANCH  13  14
BRANCH  11  20
ATOM     20  C   UNL     1      18.990  -5.840  26.594  0.00  0.00    +0.000 C 
ATOM     21  O   UNL     1      18.319  -4.622  26.555  0.00  0.00    +0.000 OA
ENDBRANCH  11  20
TORSDOF 2
ENDMDL
