MODEL 1
REMARK VINA RESULT:      -6.1      0.000      0.000
REMARK  Name = 
REMARK  4 active torsions:
REMARK  status: ('A' for Active; 'I' for Inactive)
REMARK    1  A    between atoms: C_2  and  N_3
REMARK    2  A    between atoms: C_2  and  C_15
REMARK    3  A    between atoms: C_4  and  C_6
REMARK    4  A    between atoms: C_11  and  N_12
REMARK                            x       y       z     vdW  Elec       q    Type
REMARK                         _______ _______ _______ _____ _____    ______ ____
ROOT
ATOM      1  N   UNL     1      26.417  24.472  26.640  0.00  0.00    +0.000 NA
ATOM      2  C   UNL     1      26.760  23.425  25.793  0.00  0.00    +0.000 C 
ATOM      3  O   UNL     1      25.832  22.695  25.406  0.00  0.00    +0.000 OA
ENDROOT
BRANCH   2   4
ATOM      4  C   UNL     1      28.138  23.162  25.351  0.00  0.00    +0.000 A 
ATOM      5  C   UNL     1      29.027  22.563  26.255  0.00  0.00    +0.000 A 
ATOM      6  C   UNL     1      30.330  22.331  25.861  0.00  0.00    +0.000 A 
ATOM      7  C   UNL     1      30.750  22.682  24.604  0.00  0.00    +0.000 A 
ATOM      8  C   UNL     1      29.869  23.268  23.733  0.00  0.00    +0.000 A 
ATOM      9  C   UNL     1      28.549  23.507  24.114  0.00  0.00    +0.000 A 
BRANCH   9  10
ATOM     10  N   UNL     1      27.683  24.101  23.179  0.00  0.00    +0.000 N 
ATOM     11  O   UNL     1      27.518  25.358  23.153  0.00  0.00    +0.000 OA
ATOM     12  O   UNL     1      26.980  23.349  22.268  0.00  0.00    +0.000 OA
ENDBRANCH   9  10
ENDBRANCH   2   4
BRANCH   1  14
ATOM     13  C   UNL     1      25.290  24.886  28.662  0.00  0.00    +0.000 C 
ATOM     14  C   UNL     1      24.943  24.688  27.065  0.00  0.00    +0.000 C 
BRANCH  14  15
ATOM     15  C   UNL     1      24.810  26.330  26.655  0.00  0.00    +0.000 C 
ATOM     16  C   UNL     1      24.397  26.057  25.152  0.00  0.00    +0.000 C 
ATOM     17  C   UNL     1      23.385  27.338  24.953  0.00  0.00    +0.000 C 
ATOM     18  C   UNL     1      24.068  28.396  26.015  0.00  0.00    +0.000 C 
ATOM     19  C   UNL     1      23.393  28.250  27.242  0.00  0.00    +0.000 C 
ATOM     20  C   UNL     1      23.307  26.625  27.345  0.00  0.00    +0.000 C 
ATOM     21  C   UNL     1      22.392  26.590  25.997  0.00  0.00    +0.000 C 
ENDBRANCH  14  15
ENDBRANCH   1  14
TORSDOF 4
ENDMDL
MODEL 2
REMARK VINA RESULT:      -6.0      2.573      4.859
REMARK  Name = 
REMARK  4 active torsions:
REMARK  status: ('A' for Active; 'I' for Inactive)
REMARK    1  A    between atoms: C_2  and  N_3
REMARK    2  A    between atoms: C_2  and  C_15
REMARK    3  A    between atoms: C_4  and  C_6
REMARK    4  A    between atoms: C_11  and  N_12
REMARK                            x       y       z     vdW  Elec       q    Type
REMARK                         _______ _______ _______ _____ _____    ______ ____
ROOT
ATOM      1  N   UNL     1      27.892  23.975  25.972  0.00  0.00    +0.000 NA
ATOM      2  C   UNL     1      27.000  24.162  24.923  0.00  0.00    +0.000 C 
ATOM      3  O   UNL     1      26.087  23.327  24.811  0.00  0.00    +0.000 OA
ENDROOT
BRANCH   2   4
ATOM      4  C   UNL     1      27.095  25.282  23.974  0.00  0.00    +0.000 A 
ATOM      5  C   UNL     1      26.416  26.472  24.276  0.00  0.00    +0.000 A 
ATOM      6  C   UNL     1      26.479  27.524  23.383  0.00  0.00    +0.000 A 
ATOM      7  C   UNL     1      27.191  27.408  22.218  0.00  0.00    +0.000 A 
ATOM      8  C   UNL     1      27.847  26.238  21.938  0.00  0.00    +0.000 A 
ATOM      9  C   UNL     1      27.797  25.167  22.829  0.00  0.00    +0.000 A 
BRANCH   9  10
ATOM     10  N   UNL     1      28.496  23.993  22.499  0.00  0.00    +0.000 N 
ATOM     11  O   UNL     1      27.930  23.058  21.856  0.00  0.00    +0.000 OA
ATOM     12  O   UNL     1      29.809  23.808  22.862  0.00  0.00    +0.000 OA
ENDBRANCH   9  10
ENDBRANCH   2   4
BRANCH   1  14
ATOM     13  C   UNL     1      29.318  22.335  26.872  0.00  0.00    +0.000 C 
ATOM     14  C   UNL     1      27.731  22.771  26.933  0.00  0.00    +0.000 C 
BRANCH  14  15
ATOM     15  C   UNL     1      27.785  23.622  28.401  0.00  0.00    +0.000 C 
ATOM     16  C   UNL     1      26.220  23.849  28.479  0.00  0.00    +0.000 C 
ATOM     17  C   UNL     1      26.055  23.767  30.114  0.00  0.00    +0.000 C 
ATOM     18  C   UNL     1      27.541  24.311  30.568  0.00  0.00    +0.000 C 
ATOM     19  C   UNL     1      28.362  23.182  30.749  0.00  0.00    +0.000 C 
ATOM     20  C   UNL     1      27.963  22.308  29.431  0.00  0.00    +0.000 C 
ATOM     21  C   UNL     1      26.431  22.193  29.974  0.00  0.00    +0.000 C 
ENDBRANCH  14  15
ENDBRANCH   1  14
TORSDOF 4
ENDMDL
MODEL 3
REMARK VINA RESULT:      -5.9     29.080     31.592
REMARK  Name = 
REMARK  4 active torsions:
REMARK  status: ('A' for Active; 'I' for Inactive)
REMARK    1  A    between atoms: C_2  and  N_3
REMARK    2  A    between atoms: C_2  and  C_15
REMARK    3  A    between atoms: C_4  and  C_6
REMARK    4  A    between atoms: C_11  and  N_12
REMARK                            x       y       z     vdW  Elec       q    Type
REMARK                         _______ _______ _______ _____ _____    ______ ____
ROOT
ATOM      1  N   UNL     1      33.695  -4.860  32.961  0.00  0.00    +0.000 NA
ATOM      2  C   UNL     1      33.017  -5.746  32.132  0.00  0.00    +0.000 C 
ATOM      3  O   UNL     1      31.937  -6.190  32.556  0.00  0.00    +0.000 OA
ENDROOT
BRANCH   2   4
ATOM      4  C   UNL     1      33.516  -6.158  30.811  0.00  0.00    +0.000 A 
ATOM      5  C   UNL     1      33.014  -5.508  29.675  0.00  0.00    +0.000 A 
ATOM      6  C   UNL     1      33.458  -5.900  28.427  0.00  0.00    +0.000 A 
ATOM      7  C   UNL     1      34.374  -6.911  28.300  0.00  0.00    +0.000 A 
ATOM      8  C   UNL     1      34.853  -7.537  29.421  0.00  0.00    +0.000 A 
ATOM      9  C   UNL     1      34.418  -7.153  30.688  0.00  0.00    +0.000 A 
BRANCH   9  10
ATOM     10  N   UNL     1      34.948  -7.821  31.805  0.00  0.00    +0.000 N 
ATOM     11  O   UNL     1      34.382  -8.853  32.275  0.00  0.00    +0.000 OA
ATOM     12  O   UNL     1      36.089  -7.381  32.435  0.00  0.00    +0.000 OA
ENDBRANCH   9  10
ENDBRANCH   2   4
BRANCH   1  14
ATOM     13  C   UNL     1      33.993  -5.577  35.181  0.00  0.00    +0.000 C 
ATOM     14  C   UNL     1      33.109  -4.470  34.341  0.00  0.00    +0.000 C 
BRANCH  14  15
ATOM     15  C   UNL     1      34.087  -3.117  34.647  0.00  0.00    +0.000 C 
ATOM     16  C   UNL     1      33.499  -2.257  33.456  0.00  0.00    +0.000 C 
ATOM     17  C   UNL     1      33.600  -0.777  34.166  0.00  0.00    +0.000 C 
ATOM     18  C   UNL     1      34.886  -1.037  35.162  0.00  0.00    +0.000 C 
ATOM     19  C   UNL     1      34.372  -1.431  36.412  0.00  0.00    +0.000 C 
ATOM     20  C   UNL     1      33.224  -2.489  35.943  0.00  0.00    +0.000 C 
ATOM     21  C   UNL     1      32.435  -1.289  35.174  0.00  0.00    +0.000 C 
ENDBRANCH  14  15
ENDBRANCH   1  14
TORSDOF 4
ENDMDL
MODEL 4
REMARK VINA RESULT:      -5.9     21.930     23.845
REMARK  Name = 
REMARK  4 active torsions:
REMARK  status: ('A' for Active; 'I' for Inactive)
REMARK    1  A    between atoms: C_2  and  N_3
REMARK    2  A    between atoms: C_2  and  C_15
REMARK    3  A    between atoms: C_4  and  C_6
REMARK    4  A    between atoms: C_11  and  N_12
REMARK                            x       y       z     vdW  Elec       q    Type
REMARK                         _______ _______ _______ _____ _____    ______ ____
ROOT
ATOM      1  N   UNL     1      24.507   3.041  17.023  0.00  0.00    +0.000 NA
ATOM      2  C   UNL     1      23.638   2.559  17.995  0.00  0.00    +0.000 C 
ATOM      3  O   UNL     1      24.115   2.368  19.125  0.00  0.00    +0.000 OA
ENDROOT
BRANCH   2   4
ATOM      4  C   UNL     1      22.216   2.279  17.738  0.00  0.00    +0.000 A 
ATOM      5  C   UNL     1      21.263   3.210  18.176  0.00  0.00    +0.000 A 
ATOM      6  C   UNL     1      19.924   2.950  17.961  0.00  0.00    +0.000 A 
ATOM      7  C   UNL     1      19.530   1.798  17.331  0.00  0.00    +0.000 A 
ATOM      8  C   UNL     1      20.475   0.898  16.911  0.00  0.00    +0.000 A 
ATOM      9  C   UNL     1      21.831   1.145  17.117  0.00  0.00    +0.000 A 
BRANCH   9  10
ATOM     10  N   UNL     1      22.759   0.195  16.658  0.00  0.00    +0.000 N 
ATOM     11  O   UNL     1      23.162   0.208  15.456  0.00  0.00    +0.000 OA
ATOM     12  O   UNL     1      23.259  -0.784  17.484  0.00  0.00    +0.000 OA
ENDBRANCH   9  10
ENDBRANCH   2   4
BRANCH   1  14
ATOM     13  C   UNL     1      26.585   2.295  16.215  0.00  0.00    +0.000 C 
ATOM     14  C   UNL     1      25.993   3.313  17.365  0.00  0.00    +0.000 C 
BRANCH  14  15
ATOM     15  C   UNL     1      26.180   4.764  16.504  0.00  0.00    +0.000 C 
ATOM     16  C   UNL     1      25.331   5.630  17.520  0.00  0.00    +0.000 C 
ATOM     17  C   UNL     1      26.168   7.039  17.380  0.00  0.00    +0.000 C 
ATOM     18  C   UNL     1      26.710   6.884  15.833  0.00  0.00    +0.000 C 
ATOM     19  C   UNL     1      27.992   6.307  15.895  0.00  0.00    +0.000 C 
ATOM     20  C   UNL     1      27.739   5.136  17.001  0.00  0.00    +0.000 C 
ATOM     21  C   UNL     1      27.393   6.270  18.119  0.00  0.00    +0.000 C 
ENDBRANCH  14  15
ENDBRANCH   1  14
TORSDOF 4
ENDMDL
MODEL 5
REMARK VINA RESULT:      -5.9     26.965     29.986
REMARK  Name = 
REMARK  4 active torsions:
REMARK  status: ('A' for Active; 'I' for Inactive)
REMARK    1  A    between atoms: C_2  and  N_3
REMARK    2  A    between atoms: C_2  and  C_15
REMARK    3  A    between atoms: C_4  and  C_6
REMARK    4  A    between atoms: C_11  and  N_12
REMARK                            x       y       z     vdW  Elec       q    Type
REMARK                         _______ _______ _______ _____ _____    ______ ____
ROOT
ATOM      1  N   UNL     1      33.221  -2.787  34.083  0.00  0.00    +0.000 NA
ATOM      2  C   UNL     1      34.130  -1.793  34.427  0.00  0.00    +0.000 C 
ATOM      3  O   UNL     1      35.119  -2.147  35.090  0.00  0.00    +0.000 OA
ENDROOT
BRANCH   2   4
ATOM      4  C   UNL     1      33.967  -0.383  34.041  0.00  0.00    +0.000 A 
ATOM      5  C   UNL     1      34.263  -0.014  32.721  0.00  0.00    +0.000 A 
ATOM      6  C   UNL     1      34.135   1.311  32.350  0.00  0.00    +0.000 A 
ATOM      7  C   UNL     1      33.728   2.252  33.259  0.00  0.00    +0.000 A 
ATOM      8  C   UNL     1      33.445   1.874  34.546  0.00  0.00    +0.000 A 
ATOM      9  C   UNL     1      33.566   0.542  34.937  0.00  0.00    +0.000 A 
BRANCH   9  10
ATOM     10  N   UNL     1      33.253   0.206  36.265  0.00  0.00    +0.000 N 
ATOM     11  O   UNL     1      33.944   0.654  37.229  0.00  0.00    +0.000 OA
ATOM     12  O   UNL     1      32.199  -0.622  36.572  0.00  0.00    +0.000 OA
ENDBRANCH   9  10
ENDBRANCH   2   4
BRANCH   1  14
ATOM     13  C   UNL     1      32.227  -4.264  35.619  0.00  0.00    +0.000 C 
ATOM     14  C   UNL     1      33.457  -4.253  34.525  0.00  0.00    +0.000 C 
BRANCH  14  15
ATOM     15  C   UNL     1      32.639  -5.025  33.254  0.00  0.00    +0.000 C 
ATOM     16  C   UNL     1      33.726  -4.666  32.161  0.00  0.00    +0.000 C 
ATOM     17  C   UNL     1      33.594  -6.027  31.247  0.00  0.00    +0.000 C 
ATOM     18  C   UNL     1      32.018  -6.403  31.538  0.00  0.00    +0.000 C 
ATOM     19  C   UNL     1      31.996  -7.309  32.615  0.00  0.00    +0.000 C 
ATOM     20  C   UNL     1      33.072  -6.606  33.619  0.00  0.00    +0.000 C 
ATOM     21  C   UNL     1      34.244  -6.818  32.507  0.00  0.00    +0.000 C 
ENDBRANCH  14  15
ENDBRANCH   1  14
TORSDOF 4
ENDMDL
MODEL 6
REMARK VINA RESULT:      -5.8      3.107      4.666
REMARK  Name = 
REMARK  4 active torsions:
REMARK  status: ('A' for Active; 'I' for Inactive)
REMARK    1  A    between atoms: C_2  and  N_3
REMARK    2  A    between atoms: C_2  and  C_15
REMARK    3  A    between atoms: C_4  and  C_6
REMARK    4  A    between atoms: C_11  and  N_12
REMARK                            x       y       z     vdW  Elec       q    Type
REMARK                         _______ _______ _______ _____ _____    ______ ____
ROOT
ATOM      1  N   UNL     1      28.438  23.391  25.885  0.00  0.00    +0.000 NA
ATOM      2  C   UNL     1      27.608  23.397  24.770  0.00  0.00    +0.000 C 
ATOM      3  O   UNL     1      26.664  22.590  24.773  0.00  0.00    +0.000 OA
ENDROOT
BRANCH   2   4
ATOM      4  C   UNL     1      27.802  24.300  23.625  0.00  0.00    +0.000 A 
ATOM      5  C   UNL     1      28.598  23.863  22.557  0.00  0.00    +0.000 A 
ATOM      6  C   UNL     1      28.806  24.710  21.485  0.00  0.00    +0.000 A 
ATOM      7  C   UNL     1      28.244  25.959  21.465  0.00  0.00    +0.000 A 
ATOM      8  C   UNL     1      27.469  26.371  22.518  0.00  0.00    +0.000 A 
ATOM      9  C   UNL     1      27.246  25.529  23.607  0.00  0.00    +0.000 A 
BRANCH   9  10
ATOM     10  N   UNL     1      26.435  25.996  24.655  0.00  0.00    +0.000 N 
ATOM     11  O   UNL     1      26.919  26.714  25.582  0.00  0.00    +0.000 OA
ATOM     12  O   UNL     1      25.097  25.689  24.724  0.00  0.00    +0.000 OA
ENDBRANCH   9  10
ENDBRANCH   2   4
BRANCH   1  14
ATOM     13  C   UNL     1      29.766  22.086  27.322  0.00  0.00    +0.000 C 
ATOM     14  C   UNL     1      28.174  22.411  27.055  0.00  0.00    +0.000 C 
BRANCH  14  15
ATOM     15  C   UNL     1      27.964  23.556  28.290  0.00  0.00    +0.000 C 
ATOM     16  C   UNL     1      26.390  23.624  28.141  0.00  0.00    +0.000 C 
ATOM     17  C   UNL     1      26.017  23.875  29.723  0.00  0.00    +0.000 C 
ATOM     18  C   UNL     1      27.382  24.661  30.205  0.00  0.00    +0.000 C 
ATOM     19  C   UNL     1      28.260  23.692  30.726  0.00  0.00    +0.000 C 
ATOM     20  C   UNL     1      28.110  22.519  29.602  0.00  0.00    +0.000 C 
ATOM     21  C   UNL     1      26.534  22.358  29.984  0.00  0.00    +0.000 C 
ENDBRANCH  14  15
ENDBRANCH   1  14
TORSDOF 4
ENDMDL
MODEL 7
REMARK VINA RESULT:      -5.7      3.142      5.419
REMARK  Name = 
REMARK  4 active torsions:
REMARK  status: ('A' for Active; 'I' for Inactive)
REMARK    1  A    between atoms: C_2  and  N_3
REMARK    2  A    between atoms: C_2  and  C_15
REMARK    3  A    between atoms: C_4  and  C_6
REMARK    4  A    between atoms: C_11  and  N_12
REMARK                            x       y       z     vdW  Elec       q    Type
REMARK                         _______ _______ _______ _____ _____    ______ ____
ROOT
ATOM      1  N   UNL     1      28.562  24.065  26.419  0.00  0.00    +0.000 NA
ATOM      2  C   UNL     1      28.711  22.878  27.126  0.00  0.00    +0.000 C 
ATOM      3  O   UNL     1      27.916  21.963  26.854  0.00  0.00    +0.000 OA
ENDROOT
BRANCH   2   4
ATOM      4  C   UNL     1      29.749  22.674  28.148  0.00  0.00    +0.000 A 
ATOM      5  C   UNL     1      31.045  22.344  27.728  0.00  0.00    +0.000 A 
ATOM      6  C   UNL     1      32.024  22.127  28.678  0.00  0.00    +0.000 A 
ATOM      7  C   UNL     1      31.734  22.232  30.013  0.00  0.00    +0.000 A 
ATOM      8  C   UNL     1      30.461  22.555  30.407  0.00  0.00    +0.000 A 
ATOM      9  C   UNL     1      29.462  22.778  29.462  0.00  0.00    +0.000 A 
BRANCH   9  10
ATOM     10  N   UNL     1      28.176  23.116  29.919  0.00  0.00    +0.000 N 
ATOM     11  O   UNL     1      27.838  24.329  30.071  0.00  0.00    +0.000 OA
ATOM     12  O   UNL     1      27.242  22.154  30.223  0.00  0.00    +0.000 OA
ENDBRANCH   9  10
ENDBRANCH   2   4
BRANCH   1  14
ATOM     13  C   UNL     1      26.909  25.662  25.917  0.00  0.00    +0.000 C 
ATOM     14  C   UNL     1      27.445  24.209  25.355  0.00  0.00    +0.000 C 
BRANCH  14  15
ATOM     15  C   UNL     1      28.398  24.796  24.079  0.00  0.00    +0.000 C 
ATOM     16  C   UNL     1      28.675  23.369  23.455  0.00  0.00    +0.000 C 
ATOM     17  C   UNL     1      28.716  23.812  21.871  0.00  0.00    +0.000 C 
ATOM     18  C   UNL     1      29.249  25.362  22.033  0.00  0.00    +0.000 C 
ATOM     19  C   UNL     1      28.112  26.192  22.076  0.00  0.00    +0.000 C 
ATOM     20  C   UNL     1      27.157  25.338  23.086  0.00  0.00    +0.000 C 
ATOM     21  C   UNL     1      27.127  24.110  22.015  0.00  0.00    +0.000 C 
ENDBRANCH  14  15
ENDBRANCH   1  14
TORSDOF 4
ENDMDL
MODEL 8
REMARK VINA RESULT:      -5.7      3.518      6.734
REMARK  Name = 
REMARK  4 active torsions:
REMARK  status: ('A' for Active; 'I' for Inactive)
REMARK    1  A    between atoms: C_2  and  N_3
REMARK    2  A    between atoms: C_2  and  C_15
REMARK    3  A    between atoms: C_4  and  C_6
REMARK    4  A    between atoms: C_11  and  N_12
REMARK                            x       y       z     vdW  Elec       q    Type
REMARK                         _______ _______ _______ _____ _____    ______ ____
ROOT
ATOM      1  N   UNL     1      30.312  23.850  26.052  0.00  0.00    +0.000 NA
ATOM      2  C   UNL     1      29.737  23.091  25.040  0.00  0.00    +0.000 C 
ATOM      3  O   UNL     1      30.453  22.220  24.520  0.00  0.00    +0.000 OA
ENDROOT
BRANCH   2   4
ATOM      4  C   UNL     1      28.351  23.275  24.582  0.00  0.00    +0.000 A 
ATOM      5  C   UNL     1      27.313  22.750  25.366  0.00  0.00    +0.000 A 
ATOM      6  C   UNL     1      26.009  22.896  24.937  0.00  0.00    +0.000 A 
ATOM      7  C   UNL     1      25.730  23.543  23.762  0.00  0.00    +0.000 A 
ATOM      8  C   UNL     1      26.757  24.050  23.007  0.00  0.00    +0.000 A 
ATOM      9  C   UNL     1      28.079  23.913  23.426  0.00  0.00    +0.000 A 
BRANCH   9  10
ATOM     10  N   UNL     1      29.093  24.459  22.620  0.00  0.00    +0.000 N 
ATOM     11  O   UNL     1      29.430  23.903  21.532  0.00  0.00    +0.000 OA
ATOM     12  O   UNL     1      29.761  25.606  22.979  0.00  0.00    +0.000 OA
ENDBRANCH   9  10
ENDBRANCH   2   4
BRANCH   1  14
ATOM     13  C   UNL     1      32.291  25.119  26.105  0.00  0.00    +0.000 C 
ATOM     14  C   UNL     1      31.779  23.600  26.482  0.00  0.00    +0.000 C 
BRANCH  14  15
ATOM     15  C   UNL     1      31.586  23.834  28.153  0.00  0.00    +0.000 C 
ATOM     16  C   UNL     1      31.041  22.374  28.427  0.00  0.00    +0.000 C 
ATOM     17  C   UNL     1      31.693  22.160  29.922  0.00  0.00    +0.000 C 
ATOM     18  C   UNL     1      31.732  23.725  30.432  0.00  0.00    +0.000 C 
ATOM     19  C   UNL     1      33.005  24.236  30.118  0.00  0.00    +0.000 C 
ATOM     20  C   UNL     1      33.193  23.659  28.604  0.00  0.00    +0.000 C 
ATOM     21  C   UNL     1      33.138  22.136  29.180  0.00  0.00    +0.000 C 
ENDBRANCH  14  15
ENDBRANCH   1  14
TORSDOF 4
ENDMDL
MODEL 9
REMARK VINA RESULT:      -5.6      2.055      6.772
REMARK  Name = 
REMARK  4 active torsions:
REMARK  status: ('A' for Active; 'I' for Inactive)
REMARK    1  A    between atoms: C_2  and  N_3
REMARK    2  A    between atoms: C_2  and  C_15
REMARK    3  A    between atoms: C_4  and  C_6
REMARK    4  A    between atoms: C_11  and  N_12
REMARK                            x       y       z     vdW  Elec       q    Type
REMARK                         _______ _______ _______ _____ _____    ______ ____
ROOT
ATOM      1  N   UNL     1      27.175  25.011  26.104  0.00  0.00    +0.000 NA
ATOM      2  C   UNL     1      25.987  24.527  26.638  0.00  0.00    +0.000 C 
ATOM      3  O   UNL     1      25.512  23.507  26.110  0.00  0.00    +0.000 OA
ENDROOT
BRANCH   2   4
ATOM      4  C   UNL     1      25.297  25.157  27.774  0.00  0.00    +0.000 A 
ATOM      5  C   UNL     1      24.268  26.072  27.505  0.00  0.00    +0.000 A 
ATOM      6  C   UNL     1      23.626  26.688  28.562  0.00  0.00    +0.000 A 
ATOM      7  C   UNL     1      23.989  26.412  29.854  0.00  0.00    +0.000 A 
ATOM      8  C   UNL     1      24.998  25.517  30.099  0.00  0.00    +0.000 A 
ATOM      9  C   UNL     1      25.655  24.884  29.045  0.00  0.00    +0.000 A 
BRANCH   9  10
ATOM     10  N   UNL     1      26.675  23.966  29.350  0.00  0.00    +0.000 N 
ATOM     11  O   UNL     1      27.872  24.354  29.507  0.00  0.00    +0.000 OA
ATOM     12  O   UNL     1      26.421  22.622  29.483  0.00  0.00    +0.000 OA
ENDBRANCH   9  10
ENDBRANCH   2   4
BRANCH   1  14
ATOM     13  C   UNL     1      27.845  25.624  23.935  0.00  0.00    +0.000 C 
ATOM     14  C   UNL     1      27.846  24.294  24.906  0.00  0.00    +0.000 C 
BRANCH  14  15
ATOM     15  C   UNL     1      29.457  24.397  25.432  0.00  0.00    +0.000 C 
ATOM     16  C   UNL     1      29.350  23.169  26.424  0.00  0.00    +0.000 C 
ATOM     17  C   UNL     1      30.883  22.597  26.253  0.00  0.00    +0.000 C 
ATOM     18  C   UNL     1      31.662  24.003  25.894  0.00  0.00    +0.000 C 
ATOM     19  C   UNL     1      31.709  24.108  24.491  0.00  0.00    +0.000 C 
ATOM     20  C   UNL     1      30.186  23.667  24.107  0.00  0.00    +0.000 C 
ATOM     21  C   UNL     1      30.457  22.190  24.740  0.00  0.00    +0.000 C 
ENDBRANCH  14  15
ENDBRANCH   1  14
TORSDOF 4
ENDMDL
MODEL 10
REMARK VINA RESULT:      -5.6     33.769     35.386
REMARK  Name = 
REMARK  4 active torsions:
REMARK  status: ('A' for Active; 'I' for Inactive)
REMARK    1  A    between atoms: C_2  and  N_3
REMARK    2  A    between atoms: C_2  and  C_15
REMARK    3  A    between atoms: C_4  and  C_6
REMARK    4  A    between atoms: C_11  and  N_12
REMARK                            x       y       z     vdW  Elec       q    Type
REMARK                         _______ _______ _______ _____ _____    ______ ____
ROOT
ATOM      1  N   UNL     1      18.972  -9.652  28.385  0.00  0.00    +0.000 NA
ATOM      2  C   UNL     1      18.494  -9.036  27.235  0.00  0.00    +0.000 C 
ATOM      3  O   UNL     1      17.727  -9.704  26.522  0.00  0.00    +0.000 OA
ENDROOT
BRANCH   2   4
ATOM      4  C   UNL     1      18.851  -7.663  26.848  0.00  0.00    +0.000 A 
ATOM      5  C   UNL     1      18.061  -6.608  27.326  0.00  0.00    +0.000 A 
ATOM      6  C   UNL     1      18.371  -5.314  26.952  0.00  0.00    +0.000 A 
ATOM      7  C   UNL     1      19.435  -5.065  26.125  0.00  0.00    +0.000 A 
ATOM      8  C   UNL     1      20.196  -6.108  25.666  0.00  0.00    +0.000 A 
ATOM      9  C   UNL     1      19.899  -7.419  26.034  0.00  0.00    +0.000 A 
BRANCH   9  10
ATOM     10  N   UNL     1      20.717  -8.451  25.543  0.00  0.00    +0.000 N 
ATOM     11  O   UNL     1      20.464  -9.009  24.433  0.00  0.00    +0.000 OA
ATOM     12  O   UNL     1      21.812  -8.899  26.244  0.00  0.00    +0.000 OA
ENDBRANCH   9  10
ENDBRANCH   2   4
BRANCH   1  14
ATOM     13  C   UNL     1      20.017 -11.759  28.355  0.00  0.00    +0.000 C 
ATOM     14  C   UNL     1      18.554 -11.103  28.730  0.00  0.00    +0.000 C 
BRANCH  14  15
ATOM     15  C   UNL     1      18.765 -11.024  30.413  0.00  0.00    +0.000 C 
ATOM     16  C   UNL     1      17.433 -10.210  30.674  0.00  0.00    +0.000 C 
ATOM     17  C   UNL     1      17.044 -10.863  32.133  0.00  0.00    +0.000 C 
ATOM     18  C   UNL     1      18.552 -11.232  32.680  0.00  0.00    +0.000 C 
ATOM     19  C   UNL     1      18.811 -12.569  32.323  0.00  0.00    +0.000 C 
ATOM     20  C   UNL     1      18.260 -12.581  30.789  0.00  0.00    +0.000 C 
ATOM     21  C   UNL     1      16.759 -12.245  31.327  0.00  0.00    +0.000 C 
ENDBRANCH  14  15
ENDBRANCH   1  14
TORSDOF 4
ENDMDL
