MODEL 1
REMARK VINA RESULT:      -7.0      0.000      0.000
REMARK  Name = 
REMARK  4 active torsions:
REMARK  status: ('A' for Active; 'I' for Inactive)
REMARK    1  A    between atoms: C_2  and  C_3
REMARK    2  A    between atoms: C_3  and  C_4
REMARK    3  A    between atoms: C_3  and  C_15
REMARK    4  A    between atoms: N_6  and  C_7
REMARK                            x       y       z     vdW  Elec       q    Type
REMARK                         _______ _______ _______ _____ _____    ______ ____
ROOT
ATOM      1  C   UNL     1      15.471  12.671  36.210  0.00  0.00    +0.000 C 
ATOM      2  O   UNL     1      16.402  13.367  35.870  0.00  0.00    +0.000 OA
ATOM      3  N   UNL     1      14.317  12.435  35.414  0.00  0.00    +0.000 NA
ENDROOT
BRANCH   3   4
ATOM      4  C   UNL     1      14.223  13.041  34.134  0.00  0.00    +0.000 A 
ATOM      5  C   UNL     1      14.806  12.544  32.988  0.00  0.00    +0.000 A 
ATOM      6  C   UNL     1      14.687  13.169  31.770  0.00  0.00    +0.000 A 
ATOM      7  C   UNL     1      15.323  12.620  30.541  0.00  0.00    +0.000 C 
ATOM      8  C   UNL     1      13.970  14.328  31.648  0.00  0.00    +0.000 A 
ATOM      9  C   UNL     1      13.365  14.862  32.786  0.00  0.00    +0.000 A 
ATOM     10  C   UNL     1      13.503  14.209  34.007  0.00  0.00    +0.000 A 
ATOM     11  O   UNL     1      12.887  14.767  35.121  0.00  0.00    +0.000 OA
ENDBRANCH   3   4
BRANCH   1  12
ATOM     12  C   UNL     1      15.461  11.930  37.638  0.00  0.00    +0.000 C 
BRANCH  12  13
ATOM     13  C   UNL     1      16.551  10.852  37.297  0.00  0.00    +0.000 A 
ATOM     14  C   UNL     1      17.455  10.617  38.279  0.00  0.00    +0.000 A 
ATOM     15  C   UNL     1      18.453   9.660  37.996  0.00  0.00    +0.000 A 
ATOM     16  C   UNL     1      18.493   9.009  36.784  0.00  0.00    +0.000 A 
ATOM     17  C   UNL     1      17.563   9.268  35.810  0.00  0.00    +0.000 A 
ATOM     18  C   UNL     1      16.580  10.220  36.106  0.00  0.00    +0.000 A 
ENDBRANCH  12  13
BRANCH  12  20
ATOM     19  C   UNL     1      13.517  10.893  38.670  0.00  0.00    +0.000 C 
ATOM     20  C   UNL     1      14.163  10.962  37.302  0.00  0.00    +0.000 C 
ENDBRANCH  12  20
ENDBRANCH   1  12
TORSDOF 4
ENDMDL
MODEL 2
REMARK VINA RESULT:      -6.8      2.021      6.111
REMARK  Name = 
REMARK  4 active torsions:
REMARK  status: ('A' for Active; 'I' for Inactive)
REMARK    1  A    between atoms: C_2  and  C_3
REMARK    2  A    between atoms: C_3  and  C_4
REMARK    3  A    between atoms: C_3  and  C_15
REMARK    4  A    between atoms: N_6  and  C_7
REMARK                            x       y       z     vdW  Elec       q    Type
REMARK                         _______ _______ _______ _____ _____    ______ ____
ROOT
ATOM      1  C   UNL     1      16.034  11.464  35.933  0.00  0.00    +0.000 C 
ATOM      2  O   UNL     1      16.709  12.466  36.019  0.00  0.00    +0.000 OA
ATOM      3  N   UNL     1      16.417  10.197  36.452  0.00  0.00    +0.000 NA
ENDROOT
BRANCH   3   4
ATOM      4  C   UNL     1      17.663  10.069  37.118  0.00  0.00    +0.000 A 
ATOM      5  C   UNL     1      18.883   9.972  36.484  0.00  0.00    +0.000 A 
ATOM      6  C   UNL     1      20.065   9.850  37.174  0.00  0.00    +0.000 A 
ATOM      7  C   UNL     1      21.375   9.746  36.474  0.00  0.00    +0.000 C 
ATOM      8  C   UNL     1      20.074   9.820  38.542  0.00  0.00    +0.000 A 
ATOM      9  C   UNL     1      18.858   9.915  39.220  0.00  0.00    +0.000 A 
ATOM     10  C   UNL     1      17.676  10.038  38.496  0.00  0.00    +0.000 A 
ATOM     11  O   UNL     1      16.483  10.132  39.203  0.00  0.00    +0.000 OA
ENDBRANCH   3   4
BRANCH   1  12
ATOM     12  C   UNL     1      14.601  11.481  35.200  0.00  0.00    +0.000 C 
BRANCH  12  13
ATOM     13  C   UNL     1      15.145  11.523  33.727  0.00  0.00    +0.000 A 
ATOM     14  C   UNL     1      14.750  12.595  32.999  0.00  0.00    +0.000 A 
ATOM     15  C   UNL     1      15.215  12.653  31.667  0.00  0.00    +0.000 A 
ATOM     16  C   UNL     1      16.025  11.668  31.152  0.00  0.00    +0.000 A 
ATOM     17  C   UNL     1      16.408  10.595  31.914  0.00  0.00    +0.000 A 
ATOM     18  C   UNL     1      15.938  10.551  33.233  0.00  0.00    +0.000 A 
ENDBRANCH  12  13
BRANCH  12  20
ATOM     19  C   UNL     1      13.151  13.141  36.230  0.00  0.00    +0.000 C 
ATOM     20  C   UNL     1      14.376  13.113  35.339  0.00  0.00    +0.000 C 
ENDBRANCH  12  20
ENDBRANCH   1  12
TORSDOF 4
ENDMDL
MODEL 3
REMARK VINA RESULT:      -6.6      2.542      4.223
REMARK  Name = 
REMARK  4 active torsions:
REMARK  status: ('A' for Active; 'I' for Inactive)
REMARK    1  A    between atoms: C_2  and  C_3
REMARK    2  A    between atoms: C_3  and  C_4
REMARK    3  A    between atoms: C_3  and  C_15
REMARK    4  A    between atoms: N_6  and  C_7
REMARK                            x       y       z     vdW  Elec       q    Type
REMARK                         _______ _______ _______ _____ _____    ______ ____
ROOT
ATOM      1  C   UNL     1      18.122  11.482  37.542  0.00  0.00    +0.000 C 
ATOM      2  O   UNL     1      18.324  12.647  37.278  0.00  0.00    +0.000 OA
ATOM      3  N   UNL     1      17.219  10.647  36.830  0.00  0.00    +0.000 NA
ENDROOT
BRANCH   3   4
ATOM      4  C   UNL     1      16.494  11.185  35.735  0.00  0.00    +0.000 A 
ATOM      5  C   UNL     1      15.453  12.080  35.852  0.00  0.00    +0.000 A 
ATOM      6  C   UNL     1      14.780  12.575  34.760  0.00  0.00    +0.000 A 
ATOM      7  C   UNL     1      13.656  13.541  34.902  0.00  0.00    +0.000 C 
ATOM      8  C   UNL     1      15.126  12.189  33.494  0.00  0.00    +0.000 A 
ATOM      9  C   UNL     1      16.176  11.283  33.336  0.00  0.00    +0.000 A 
ATOM     10  C   UNL     1      16.840  10.799  34.459  0.00  0.00    +0.000 A 
ATOM     11  O   UNL     1      17.881   9.899  34.265  0.00  0.00    +0.000 OA
ENDBRANCH   3   4
BRANCH   1  12
ATOM     12  C   UNL     1      18.884  10.757  38.760  0.00  0.00    +0.000 C 
BRANCH  12  13
ATOM     13  C   UNL     1      20.300  10.693  38.083  0.00  0.00    +0.000 A 
ATOM     14  C   UNL     1      21.211  11.570  38.569  0.00  0.00    +0.000 A 
ATOM     15  C   UNL     1      22.489  11.541  37.971  0.00  0.00    +0.000 A 
ATOM     16  C   UNL     1      22.780  10.664  36.952  0.00  0.00    +0.000 A 
ATOM     17  C   UNL     1      21.836   9.787  36.481  0.00  0.00    +0.000 A 
ATOM     18  C   UNL     1      20.573   9.829  37.084  0.00  0.00    +0.000 A 
ENDBRANCH  12  13
BRANCH  12  20
ATOM     19  C   UNL     1      18.240   8.613  39.710  0.00  0.00    +0.000 C 
ATOM     20  C   UNL     1      18.431   9.225  38.337  0.00  0.00    +0.000 C 
ENDBRANCH  12  20
ENDBRANCH   1  12
TORSDOF 4
ENDMDL
MODEL 4
REMARK VINA RESULT:      -6.6      2.376      4.036
REMARK  Name = 
REMARK  4 active torsions:
REMARK  status: ('A' for Active; 'I' for Inactive)
REMARK    1  A    between atoms: C_2  and  C_3
REMARK    2  A    between atoms: C_3  and  C_4
REMARK    3  A    between atoms: C_3  and  C_15
REMARK    4  A    between atoms: N_6  and  C_7
REMARK                            x       y       z     vdW  Elec       q    Type
REMARK                         _______ _______ _______ _____ _____    ______ ____
ROOT
ATOM      1  C   UNL     1      18.193   9.780  36.709  0.00  0.00    +0.000 C 
ATOM      2  O   UNL     1      17.640   8.821  36.217  0.00  0.00    +0.000 OA
ATOM      3  N   UNL     1      17.920  11.129  36.352  0.00  0.00    +0.000 NA
ENDROOT
BRANCH   3   4
ATOM      4  C   UNL     1      16.942  11.399  35.360  0.00  0.00    +0.000 A 
ATOM      5  C   UNL     1      17.032  11.001  34.044  0.00  0.00    +0.000 A 
ATOM      6  C   UNL     1      16.057  11.286  33.119  0.00  0.00    +0.000 A 
ATOM      7  C   UNL     1      16.169  10.850  31.700  0.00  0.00    +0.000 C 
ATOM      8  C   UNL     1      14.939  11.989  33.478  0.00  0.00    +0.000 A 
ATOM      9  C   UNL     1      14.812  12.409  34.802  0.00  0.00    +0.000 A 
ATOM     10  C   UNL     1      15.815  12.106  35.719  0.00  0.00    +0.000 A 
ATOM     11  O   UNL     1      15.656  12.540  37.029  0.00  0.00    +0.000 OA
ENDBRANCH   3   4
BRANCH   1  12
ATOM     12  C   UNL     1      19.320   9.604  37.844  0.00  0.00    +0.000 C 
BRANCH  12  13
ATOM     13  C   UNL     1      18.359   9.124  38.989  0.00  0.00    +0.000 A 
ATOM     14  C   UNL     1      18.646   7.907  39.509  0.00  0.00    +0.000 A 
ATOM     15  C   UNL     1      17.792   7.445  40.534  0.00  0.00    +0.000 A 
ATOM     16  C   UNL     1      16.729   8.203  40.970  0.00  0.00    +0.000 A 
ATOM     17  C   UNL     1      16.464   9.432  40.424  0.00  0.00    +0.000 A 
ATOM     18  C   UNL     1      17.320   9.875  39.408  0.00  0.00    +0.000 A 
ENDBRANCH  12  13
BRANCH  12  20
ATOM     19  C   UNL     1      20.826  11.423  38.429  0.00  0.00    +0.000 C 
ATOM     20  C   UNL     1      19.334  11.194  38.297  0.00  0.00    +0.000 C 
ENDBRANCH  12  20
ENDBRANCH   1  12
TORSDOF 4
ENDMDL
MODEL 5
REMARK VINA RESULT:      -6.4      2.528      4.030
REMARK  Name = 
REMARK  4 active torsions:
REMARK  status: ('A' for Active; 'I' for Inactive)
REMARK    1  A    between atoms: C_2  and  C_3
REMARK    2  A    between atoms: C_3  and  C_4
REMARK    3  A    between atoms: C_3  and  C_15
REMARK    4  A    between atoms: N_6  and  C_7
REMARK                            x       y       z     vdW  Elec       q    Type
REMARK                         _______ _______ _______ _____ _____    ______ ____
ROOT
ATOM      1  C   UNL     1      18.187  11.355  37.674  0.00  0.00    +0.000 C 
ATOM      2  O   UNL     1      18.401  12.515  37.394  0.00  0.00    +0.000 OA
ATOM      3  N   UNL     1      17.210  10.546  37.032  0.00  0.00    +0.000 NA
ENDROOT
BRANCH   3   4
ATOM      4  C   UNL     1      16.421  11.106  35.993  0.00  0.00    +0.000 A 
ATOM      5  C   UNL     1      16.729  11.034  34.652  0.00  0.00    +0.000 A 
ATOM      6  C   UNL     1      15.932  11.593  33.682  0.00  0.00    +0.000 A 
ATOM      7  C   UNL     1      16.278  11.508  32.236  0.00  0.00    +0.000 C 
ATOM      8  C   UNL     1      14.782  12.253  34.019  0.00  0.00    +0.000 A 
ATOM      9  C   UNL     1      14.437  12.346  35.368  0.00  0.00    +0.000 A 
ATOM     10  C   UNL     1      15.262  11.771  36.330  0.00  0.00    +0.000 A 
ATOM     11  O   UNL     1      14.888  11.882  37.663  0.00  0.00    +0.000 OA
ENDBRANCH   3   4
BRANCH   1  12
ATOM     12  C   UNL     1      19.016  10.609  38.833  0.00  0.00    +0.000 C 
BRANCH  12  13
ATOM     13  C   UNL     1      20.416  10.659  38.123  0.00  0.00    +0.000 A 
ATOM     14  C   UNL     1      20.563   9.807  37.081  0.00  0.00    +0.000 A 
ATOM     15  C   UNL     1      21.816   9.823  36.431  0.00  0.00    +0.000 A 
ATOM     16  C   UNL     1      22.823  10.665  36.844  0.00  0.00    +0.000 A 
ATOM     17  C   UNL     1      22.644  11.517  37.904  0.00  0.00    +0.000 A 
ATOM     18  C   UNL     1      21.396  11.488  38.539  0.00  0.00    +0.000 A 
ENDBRANCH  12  13
BRANCH  12  20
ATOM     19  C   UNL     1      18.439   8.401  39.677  0.00  0.00    +0.000 C 
ATOM     20  C   UNL     1      18.635   9.079  38.337  0.00  0.00    +0.000 C 
ENDBRANCH  12  20
ENDBRANCH   1  12
TORSDOF 4
ENDMDL
MODEL 6
REMARK VINA RESULT:      -6.4      2.403      6.214
REMARK  Name = 
REMARK  4 active torsions:
REMARK  status: ('A' for Active; 'I' for Inactive)
REMARK    1  A    between atoms: C_2  and  C_3
REMARK    2  A    between atoms: C_3  and  C_4
REMARK    3  A    between atoms: C_3  and  C_15
REMARK    4  A    between atoms: N_6  and  C_7
REMARK                            x       y       z     vdW  Elec       q    Type
REMARK                         _______ _______ _______ _____ _____    ______ ____
ROOT
ATOM      1  C   UNL     1      16.381  11.827  35.584  0.00  0.00    +0.000 C 
ATOM      2  O   UNL     1      17.152  12.404  34.849  0.00  0.00    +0.000 OA
ATOM      3  N   UNL     1      16.714  11.366  36.887  0.00  0.00    +0.000 NA
ENDROOT
BRANCH   3   4
ATOM      4  C   UNL     1      18.026  11.581  37.384  0.00  0.00    +0.000 A 
ATOM      5  C   UNL     1      18.525  12.805  37.771  0.00  0.00    +0.000 A 
ATOM      6  C   UNL     1      19.805  12.963  38.246  0.00  0.00    +0.000 A 
ATOM      7  C   UNL     1      20.331  14.293  38.661  0.00  0.00    +0.000 C 
ATOM      8  C   UNL     1      20.646  11.889  38.354  0.00  0.00    +0.000 A 
ATOM      9  C   UNL     1      20.176  10.632  37.971  0.00  0.00    +0.000 A 
ATOM     10  C   UNL     1      18.875  10.501  37.494  0.00  0.00    +0.000 A 
ATOM     11  O   UNL     1      18.440   9.235  37.122  0.00  0.00    +0.000 OA
ENDBRANCH   3   4
BRANCH   1  12
ATOM     12  C   UNL     1      14.866  11.525  35.135  0.00  0.00    +0.000 C 
BRANCH  12  13
ATOM     13  C   UNL     1      15.112  11.598  33.585  0.00  0.00    +0.000 A 
ATOM     14  C   UNL     1      15.761  10.533  33.056  0.00  0.00    +0.000 A 
ATOM     15  C   UNL     1      16.005  10.577  31.666  0.00  0.00    +0.000 A 
ATOM     16  C   UNL     1      15.600  11.649  30.904  0.00  0.00    +0.000 A 
ATOM     17  C   UNL     1      14.944  12.712  31.469  0.00  0.00    +0.000 A 
ATOM     18  C   UNL     1      14.710  12.655  32.849  0.00  0.00    +0.000 A 
ENDBRANCH  12  13
BRANCH  12  20
ATOM     19  C   UNL     1      13.238  12.900  36.310  0.00  0.00    +0.000 C 
ATOM     20  C   UNL     1      14.343  13.086  35.291  0.00  0.00    +0.000 C 
ENDBRANCH  12  20
ENDBRANCH   1  12
TORSDOF 4
ENDMDL
MODEL 7
REMARK VINA RESULT:      -6.2      3.143      6.799
REMARK  Name = 
REMARK  4 active torsions:
REMARK  status: ('A' for Active; 'I' for Inactive)
REMARK    1  A    between atoms: C_2  and  C_3
REMARK    2  A    between atoms: C_3  and  C_4
REMARK    3  A    between atoms: C_3  and  C_15
REMARK    4  A    between atoms: N_6  and  C_7
REMARK                            x       y       z     vdW  Elec       q    Type
REMARK                         _______ _______ _______ _____ _____    ______ ____
ROOT
ATOM      1  C   UNL     1      17.958  10.720  37.141  0.00  0.00    +0.000 C 
ATOM      2  O   UNL     1      18.295  11.883  37.132  0.00  0.00    +0.000 OA
ATOM      3  N   UNL     1      18.843   9.633  37.381  0.00  0.00    +0.000 NA
ENDROOT
BRANCH   3   4
ATOM      4  C   UNL     1      20.215   9.899  37.627  0.00  0.00    +0.000 A 
ATOM      5  C   UNL     1      21.197   9.904  36.660  0.00  0.00    +0.000 A 
ATOM      6  C   UNL     1      22.514  10.167  36.949  0.00  0.00    +0.000 A 
ATOM      7  C   UNL     1      23.564  10.169  35.893  0.00  0.00    +0.000 C 
ATOM      8  C   UNL     1      22.906  10.440  38.231  0.00  0.00    +0.000 A 
ATOM      9  C   UNL     1      21.940  10.444  39.238  0.00  0.00    +0.000 A 
ATOM     10  C   UNL     1      20.613  10.174  38.917  0.00  0.00    +0.000 A 
ATOM     11  O   UNL     1      19.677  10.186  39.944  0.00  0.00    +0.000 OA
ENDBRANCH   3   4
BRANCH   1  12
ATOM     12  C   UNL     1      16.430  10.291  36.876  0.00  0.00    +0.000 C 
BRANCH  12  13
ATOM     13  C   UNL     1      16.394  10.662  35.350  0.00  0.00    +0.000 A 
ATOM     14  C   UNL     1      15.488  11.610  35.009  0.00  0.00    +0.000 A 
ATOM     15  C   UNL     1      15.427  11.955  33.642  0.00  0.00    +0.000 A 
ATOM     16  C   UNL     1      16.250  11.354  32.717  0.00  0.00    +0.000 A 
ATOM     17  C   UNL     1      17.158  10.398  33.093  0.00  0.00    +0.000 A 
ATOM     18  C   UNL     1      17.206  10.065  34.453  0.00  0.00    +0.000 A 
ENDBRANCH  12  13
BRANCH  12  20
ATOM     19  C   UNL     1      14.687  11.186  38.317  0.00  0.00    +0.000 C 
ATOM     20  C   UNL     1      15.775  11.714  37.405  0.00  0.00    +0.000 C 
ENDBRANCH  12  20
ENDBRANCH   1  12
TORSDOF 4
ENDMDL
MODEL 8
REMARK VINA RESULT:      -6.2      3.226      6.679
REMARK  Name = 
REMARK  4 active torsions:
REMARK  status: ('A' for Active; 'I' for Inactive)
REMARK    1  A    between atoms: C_2  and  C_3
REMARK    2  A    between atoms: C_3  and  C_4
REMARK    3  A    between atoms: C_3  and  C_15
REMARK    4  A    between atoms: N_6  and  C_7
REMARK                            x       y       z     vdW  Elec       q    Type
REMARK                         _______ _______ _______ _____ _____    ______ ____
ROOT
ATOM      1  C   UNL     1      17.658  11.487  37.219  0.00  0.00    +0.000 C 
ATOM      2  O   UNL     1      17.760  12.653  36.904  0.00  0.00    +0.000 OA
ATOM      3  N   UNL     1      18.696  10.731  37.829  0.00  0.00    +0.000 NA
ENDROOT
BRANCH   3   4
ATOM      4  C   UNL     1      19.941  11.356  38.099  0.00  0.00    +0.000 A 
ATOM      5  C   UNL     1      20.105  12.455  38.914  0.00  0.00    +0.000 A 
ATOM      6  C   UNL     1      21.334  13.025  39.144  0.00  0.00    +0.000 A 
ATOM      7  C   UNL     1      21.495  14.213  40.027  0.00  0.00    +0.000 C 
ATOM      8  C   UNL     1      22.461  12.513  38.562  0.00  0.00    +0.000 A 
ATOM      9  C   UNL     1      22.335  11.400  37.729  0.00  0.00    +0.000 A 
ATOM     10  C   UNL     1      21.078  10.842  37.514  0.00  0.00    +0.000 A 
ATOM     11  O   UNL     1      20.989   9.735  36.680  0.00  0.00    +0.000 OA
ENDBRANCH   3   4
BRANCH   1  12
ATOM     12  C   UNL     1      16.296  10.670  36.965  0.00  0.00    +0.000 C 
BRANCH  12  13
ATOM     13  C   UNL     1      16.249  10.863  35.407  0.00  0.00    +0.000 A 
ATOM     14  C   UNL     1      17.180  10.167  34.713  0.00  0.00    +0.000 A 
ATOM     15  C   UNL     1      17.168  10.330  33.311  0.00  0.00    +0.000 A 
ATOM     16  C   UNL     1      16.253  11.155  32.697  0.00  0.00    +0.000 A 
ATOM     17  C   UNL     1      15.322  11.847  33.428  0.00  0.00    +0.000 A 
ATOM     18  C   UNL     1      15.347  11.675  34.818  0.00  0.00    +0.000 A 
ENDBRANCH  12  13
BRANCH  12  20
ATOM     19  C   UNL     1      14.308  11.244  38.244  0.00  0.00    +0.000 C 
ATOM     20  C   UNL     1      15.288  11.933  37.317  0.00  0.00    +0.000 C 
ENDBRANCH  12  20
ENDBRANCH   1  12
TORSDOF 4
ENDMDL
MODEL 9
REMARK VINA RESULT:      -6.1      2.707      4.812
REMARK  Name = 
REMARK  4 active torsions:
REMARK  status: ('A' for Active; 'I' for Inactive)
REMARK    1  A    between atoms: C_2  and  C_3
REMARK    2  A    between atoms: C_3  and  C_4
REMARK    3  A    between atoms: C_3  and  C_15
REMARK    4  A    between atoms: N_6  and  C_7
REMARK                            x       y       z     vdW  Elec       q    Type
REMARK                         _______ _______ _______ _____ _____    ______ ____
ROOT
ATOM      1  C   UNL     1      18.194  10.407  37.667  0.00  0.00    +0.000 C 
ATOM      2  O   UNL     1      18.369  11.595  37.825  0.00  0.00    +0.000 OA
ATOM      3  N   UNL     1      17.216   9.853  36.797  0.00  0.00    +0.000 NA
ENDROOT
BRANCH   3   4
ATOM      4  C   UNL     1      16.377  10.724  36.054  0.00  0.00    +0.000 A 
ATOM      5  C   UNL     1      15.270  11.367  36.563  0.00  0.00    +0.000 A 
ATOM      6  C   UNL     1      14.488  12.202  35.803  0.00  0.00    +0.000 A 
ATOM      7  C   UNL     1      13.294  12.890  36.367  0.00  0.00    +0.000 C 
ATOM      8  C   UNL     1      14.785  12.430  34.487  0.00  0.00    +0.000 A 
ATOM      9  C   UNL     1      15.899  11.796  33.935  0.00  0.00    +0.000 A 
ATOM     10  C   UNL     1      16.674  10.955  34.728  0.00  0.00    +0.000 A 
ATOM     11  O   UNL     1      17.776  10.340  34.147  0.00  0.00    +0.000 OA
ENDBRANCH   3   4
BRANCH   1  12
ATOM     12  C   UNL     1      19.082   9.320  38.453  0.00  0.00    +0.000 C 
BRANCH  12  13
ATOM     13  C   UNL     1      18.342   9.437  39.834  0.00  0.00    +0.000 A 
ATOM     14  C   UNL     1      19.152   9.576  40.910  0.00  0.00    +0.000 A 
ATOM     15  C   UNL     1      18.514   9.672  42.166  0.00  0.00    +0.000 A 
ATOM     16  C   UNL     1      17.143   9.627  42.274  0.00  0.00    +0.000 A 
ATOM     17  C   UNL     1      16.349   9.486  41.165  0.00  0.00    +0.000 A 
ATOM     18  C   UNL     1      16.998   9.391  39.927  0.00  0.00    +0.000 A 
ENDBRANCH  12  13
BRANCH  12  20
ATOM     19  C   UNL     1      21.360   9.917  37.843  0.00  0.00    +0.000 C 
ATOM     20  C   UNL     1      20.306  10.365  38.834  0.00  0.00    +0.000 C 
ENDBRANCH  12  20
ENDBRANCH   1  12
TORSDOF 4
ENDMDL
MODEL 10
REMARK VINA RESULT:      -6.0     21.403     24.064
REMARK  Name = 
REMARK  4 active torsions:
REMARK  status: ('A' for Active; 'I' for Inactive)
REMARK    1  A    between atoms: C_2  and  C_3
REMARK    2  A    between atoms: C_3  and  C_4
REMARK    3  A    between atoms: C_3  and  C_15
REMARK    4  A    between atoms: N_6  and  C_7
REMARK                            x       y       z     vdW  Elec       q    Type
REMARK                         _______ _______ _______ _____ _____    ______ ____
ROOT
ATOM      1  C   UNL     1      33.177  -2.369  34.860  0.00  0.00    +0.000 C 
ATOM      2  O   UNL     1      31.988  -2.421  34.631  0.00  0.00    +0.000 OA
ATOM      3  N   UNL     1      34.120  -3.334  34.413  0.00  0.00    +0.000 NA
ENDROOT
BRANCH   3   4
ATOM      4  C   UNL     1      33.668  -4.441  33.648  0.00  0.00    +0.000 A 
ATOM      5  C   UNL     1      33.504  -4.432  32.280  0.00  0.00    +0.000 A 
ATOM      6  C   UNL     1      33.063  -5.531  31.583  0.00  0.00    +0.000 A 
ATOM      7  C   UNL     1      32.890  -5.505  30.104  0.00  0.00    +0.000 C 
ATOM      8  C   UNL     1      32.766  -6.697  32.234  0.00  0.00    +0.000 A 
ATOM      9  C   UNL     1      32.920  -6.745  33.620  0.00  0.00    +0.000 A 
ATOM     10  C   UNL     1      33.368  -5.617  34.301  0.00  0.00    +0.000 A 
ATOM     11  O   UNL     1      33.510  -5.700  35.681  0.00  0.00    +0.000 OA
ENDBRANCH   3   4
BRANCH   1  12
ATOM     12  C   UNL     1      33.810  -1.163  35.717  0.00  0.00    +0.000 C 
BRANCH  12  13
ATOM     13  C   UNL     1      33.877  -0.117  34.546  0.00  0.00    +0.000 A 
ATOM     14  C   UNL     1      33.477   1.136  34.870  0.00  0.00    +0.000 A 
ATOM     15  C   UNL     1      33.518   2.094  33.834  0.00  0.00    +0.000 A 
ATOM     16  C   UNL     1      33.943   1.758  32.569  0.00  0.00    +0.000 A 
ATOM     17  C   UNL     1      34.342   0.480  32.272  0.00  0.00    +0.000 A 
ATOM     18  C   UNL     1      34.296  -0.459  33.310  0.00  0.00    +0.000 A 
ENDBRANCH  12  13
BRANCH  12  20
ATOM     19  C   UNL     1      35.961  -1.115  36.852  0.00  0.00    +0.000 C 
ATOM     20  C   UNL     1      35.376  -1.673  35.571  0.00  0.00    +0.000 C 
ENDBRANCH  12  20
ENDBRANCH   1  12
TORSDOF 4
ENDMDL
