MODEL 1
REMARK VINA RESULT:      -6.2      0.000      0.000
REMARK  Name = 
REMARK  4 active torsions:
REMARK  status: ('A' for Active; 'I' for Inactive)
REMARK    1  A    between atoms: C_2  and  O_3
REMARK    2  A    between atoms: O_3  and  C_4
REMARK    3  A    between atoms: C_4  and  C_6
REMARK    4  A    between atoms: C_17  and  C_18
REMARK                            x       y       z     vdW  Elec       q    Type
REMARK                         _______ _______ _______ _____ _____    ______ ____
ROOT
ATOM      1  C   UNL     1      17.895   9.147  39.202  0.00  0.00    +0.000 C 
ATOM      2  C   UNL     1      16.907   9.656  39.812  0.00  0.00    +0.000 C 
ATOM      3  N   UNL     1      16.801   9.313  41.221  0.00  0.00    +0.000 NA
ATOM      4  O   UNL     1      15.998  10.471  39.201  0.00  0.00    +0.000 OA
ATOM      5  C   UNL     1      16.161  10.754  37.870  0.00  0.00    +0.000 C 
ATOM      6  C   UNL     1      17.112  10.301  37.178  0.00  0.00    +0.000 C 
ATOM      7  C   UNL     1      17.241  10.638  35.736  0.00  0.00    +0.000 C 
ATOM      8  O   UNL     1      17.667   9.804  34.893  0.00  0.00    +0.000 OA
ATOM      9  C   UNL     1      16.847  12.001  35.332  0.00  0.00    +0.000 C 
ATOM     10  C   UNL     1      15.817  12.612  36.227  0.00  0.00    +0.000 C 
ATOM     11  C   UNL     1      15.164  11.654  37.157  0.00  0.00    +0.000 C 
ATOM     12  C   UNL     1      18.262   9.336  37.688  0.00  0.00    +0.000 C 
ENDROOT
BRANCH  12  13
ATOM     13  C   UNL     1      19.457  10.337  37.845  0.00  0.00    +0.000 A 
ATOM     14  C   UNL     1      19.446  11.579  38.356  0.00  0.00    +0.000 A 
ATOM     15  C   UNL     1      20.603  12.230  38.379  0.00  0.00    +0.000 A 
ATOM     16  C   UNL     1      21.716  11.617  37.892  0.00  0.00    +0.000 A 
ATOM     17  S   UNL     1      21.058  10.086  37.404  0.00  0.00    +0.000 S 
ENDBRANCH  12  13
BRANCH   1  18
ATOM     18  C   UNL     1      18.872   8.260  39.893  0.00  0.00    +0.000 C 
ATOM     19  O   UNL     1      19.770   8.754  40.614  0.00  0.00    +0.000 OA
BRANCH  18  20
ATOM     20  O   UNL     1      18.822   6.895  39.767  0.00  0.00    +0.000 OA
BRANCH  20  22
ATOM     21  C   UNL     1      17.344   5.839  41.270  0.00  0.00    +0.000 C 
ATOM     22  C   UNL     1      18.793   6.078  40.924  0.00  0.00    +0.000 C 
ENDBRANCH  20  22
ENDBRANCH  18  20
ENDBRANCH   1  18
TORSDOF 4
ENDMDL
MODEL 2
REMARK VINA RESULT:      -6.1     20.163     22.808
REMARK  Name = 
REMARK  4 active torsions:
REMARK  status: ('A' for Active; 'I' for Inactive)
REMARK    1  A    between atoms: C_2  and  O_3
REMARK    2  A    between atoms: O_3  and  C_4
REMARK    3  A    between atoms: C_4  and  C_6
REMARK    4  A    between atoms: C_17  and  C_18
REMARK                            x       y       z     vdW  Elec       q    Type
REMARK                         _______ _______ _______ _____ _____    ______ ____
ROOT
ATOM      1  C   UNL     1      27.023  24.228  23.378  0.00  0.00    +0.000 C 
ATOM      2  C   UNL     1      25.989  23.532  23.612  0.00  0.00    +0.000 C 
ATOM      3  N   UNL     1      25.445  22.818  22.467  0.00  0.00    +0.000 NA
ATOM      4  O   UNL     1      25.415  23.448  24.848  0.00  0.00    +0.000 OA
ATOM      5  C   UNL     1      25.982  24.146  25.883  0.00  0.00    +0.000 C 
ATOM      6  C   UNL     1      27.012  24.861  25.752  0.00  0.00    +0.000 C 
ATOM      7  C   UNL     1      27.586  25.599  26.908  0.00  0.00    +0.000 C 
ATOM      8  O   UNL     1      28.104  26.740  26.778  0.00  0.00    +0.000 OA
ATOM      9  C   UNL     1      27.523  24.933  28.223  0.00  0.00    +0.000 C 
ATOM     10  C   UNL     1      26.385  23.972  28.347  0.00  0.00    +0.000 C 
ATOM     11  C   UNL     1      25.366  24.081  27.271  0.00  0.00    +0.000 C 
ATOM     12  C   UNL     1      27.821  25.099  24.410  0.00  0.00    +0.000 C 
ENDROOT
BRANCH  12  13
ATOM     13  C   UNL     1      29.057  24.161  24.624  0.00  0.00    +0.000 A 
ATOM     14  C   UNL     1      29.081  22.903  25.093  0.00  0.00    +0.000 A 
ATOM     15  C   UNL     1      30.269  22.316  25.180  0.00  0.00    +0.000 A 
ATOM     16  C   UNL     1      31.377  23.007  24.798  0.00  0.00    +0.000 A 
ATOM     17  S   UNL     1      30.668  24.516  24.311  0.00  0.00    +0.000 S 
ENDBRANCH  12  13
BRANCH   1  18
ATOM     18  C   UNL     1      27.628  24.300  22.019  0.00  0.00    +0.000 C 
ATOM     19  O   UNL     1      28.124  23.276  21.494  0.00  0.00    +0.000 OA
BRANCH  18  20
ATOM     20  O   UNL     1      27.663  25.472  21.306  0.00  0.00    +0.000 OA
BRANCH  20  22
ATOM     21  C   UNL     1      29.118  27.282  21.709  0.00  0.00    +0.000 C 
ATOM     22  C   UNL     1      28.907  26.022  20.908  0.00  0.00    +0.000 C 
ENDBRANCH  20  22
ENDBRANCH  18  20
ENDBRANCH   1  18
TORSDOF 4
ENDMDL
MODEL 3
REMARK VINA RESULT:      -5.8     20.837     23.462
REMARK  Name = 
REMARK  4 active torsions:
REMARK  status: ('A' for Active; 'I' for Inactive)
REMARK    1  A    between atoms: C_2  and  O_3
REMARK    2  A    between atoms: O_3  and  C_4
REMARK    3  A    between atoms: C_4  and  C_6
REMARK    4  A    between atoms: C_17  and  C_18
REMARK                            x       y       z     vdW  Elec       q    Type
REMARK                         _______ _______ _______ _____ _____    ______ ____
ROOT
ATOM      1  C   UNL     1      28.220  23.921  22.793  0.00  0.00    +0.000 C 
ATOM      2  C   UNL     1      29.446  23.983  22.476  0.00  0.00    +0.000 C 
ATOM      3  N   UNL     1      29.718  24.451  21.126  0.00  0.00    +0.000 NA
ATOM      4  O   UNL     1      30.452  23.639  23.332  0.00  0.00    +0.000 OA
ATOM      5  C   UNL     1      30.123  23.207  24.592  0.00  0.00    +0.000 C 
ATOM      6  C   UNL     1      28.935  23.116  25.002  0.00  0.00    +0.000 C 
ATOM      7  C   UNL     1      28.633  22.640  26.378  0.00  0.00    +0.000 C 
ATOM      8  O   UNL     1      27.625  21.927  26.629  0.00  0.00    +0.000 OA
ATOM      9  C   UNL     1      29.570  23.043  27.444  0.00  0.00    +0.000 C 
ATOM     10  C   UNL     1      30.958  23.294  26.950  0.00  0.00    +0.000 C 
ATOM     11  C   UNL     1      31.218  22.810  25.569  0.00  0.00    +0.000 C 
ATOM     12  C   UNL     1      27.629  23.455  24.170  0.00  0.00    +0.000 C 
ENDROOT
BRANCH  12  13
ATOM     13  C   UNL     1      27.242  24.853  24.760  0.00  0.00    +0.000 A 
ATOM     14  C   UNL     1      28.049  25.876  25.088  0.00  0.00    +0.000 A 
ATOM     15  C   UNL     1      27.470  26.967  25.575  0.00  0.00    +0.000 A 
ATOM     16  C   UNL     1      26.116  26.991  25.714  0.00  0.00    +0.000 A 
ATOM     17  S   UNL     1      25.700  25.410  25.127  0.00  0.00    +0.000 S 
ENDBRANCH  12  13
BRANCH   1  18
ATOM     18  C   UNL     1      27.143  24.305  21.838  0.00  0.00    +0.000 C 
ATOM     19  O   UNL     1      26.174  23.535  21.639  0.00  0.00    +0.000 OA
BRANCH  18  20
ATOM     20  O   UNL     1      27.174  25.495  21.157  0.00  0.00    +0.000 OA
BRANCH  20  22
ATOM     21  C   UNL     1      28.182  27.579  21.601  0.00  0.00    +0.000 C 
ATOM     22  C   UNL     1      26.972  26.714  21.851  0.00  0.00    +0.000 C 
ENDBRANCH  20  22
ENDBRANCH  18  20
ENDBRANCH   1  18
TORSDOF 4
ENDMDL
MODEL 4
REMARK VINA RESULT:      -5.8     17.920     19.710
REMARK  Name = 
REMARK  4 active torsions:
REMARK  status: ('A' for Active; 'I' for Inactive)
REMARK    1  A    between atoms: C_2  and  O_3
REMARK    2  A    between atoms: O_3  and  C_4
REMARK    3  A    between atoms: C_4  and  C_6
REMARK    4  A    between atoms: C_17  and  C_18
REMARK                            x       y       z     vdW  Elec       q    Type
REMARK                         _______ _______ _______ _____ _____    ______ ____
ROOT
ATOM      1  C   UNL     1      26.411  23.571  29.286  0.00  0.00    +0.000 C 
ATOM      2  C   UNL     1      25.673  24.527  29.672  0.00  0.00    +0.000 C 
ATOM      3  N   UNL     1      25.650  24.755  31.109  0.00  0.00    +0.000 NA
ATOM      4  O   UNL     1      24.946  25.297  28.812  0.00  0.00    +0.000 OA
ATOM      5  C   UNL     1      25.016  25.028  27.470  0.00  0.00    +0.000 C 
ATOM      6  C   UNL     1      25.723  24.103  26.987  0.00  0.00    +0.000 C 
ATOM      7  C   UNL     1      25.762  23.851  25.522  0.00  0.00    +0.000 C 
ATOM      8  O   UNL     1      25.848  22.687  25.049  0.00  0.00    +0.000 OA
ATOM      9  C   UNL     1      25.697  25.032  24.641  0.00  0.00    +0.000 C 
ATOM     10  C   UNL     1      24.980  26.192  25.254  0.00  0.00    +0.000 C 
ATOM     11  C   UNL     1      24.213  25.862  26.484  0.00  0.00    +0.000 C 
ATOM     12  C   UNL     1      26.630  23.094  27.807  0.00  0.00    +0.000 C 
ENDROOT
BRANCH  12  13
ATOM     13  C   UNL     1      28.057  23.692  27.562  0.00  0.00    +0.000 A 
ATOM     14  C   UNL     1      28.468  24.962  27.713  0.00  0.00    +0.000 A 
ATOM     15  C   UNL     1      29.743  25.217  27.438  0.00  0.00    +0.000 A 
ATOM     16  C   UNL     1      30.547  24.201  27.025  0.00  0.00    +0.000 A 
ATOM     17  S   UNL     1      29.428  22.872  27.044  0.00  0.00    +0.000 S 
ENDBRANCH  12  13
BRANCH   1  18
ATOM     18  C   UNL     1      27.195  22.747  30.247  0.00  0.00    +0.000 C 
ATOM     19  O   UNL     1      26.834  21.578  30.516  0.00  0.00    +0.000 OA
BRANCH  18  20
ATOM     20  O   UNL     1      28.322  23.232  30.860  0.00  0.00    +0.000 OA
BRANCH  20  22
ATOM     21  C   UNL     1      30.672  23.211  30.662  0.00  0.00    +0.000 C 
ATOM     22  C   UNL     1      29.455  22.396  31.023  0.00  0.00    +0.000 C 
ENDBRANCH  20  22
ENDBRANCH  18  20
ENDBRANCH   1  18
TORSDOF 4
ENDMDL
MODEL 5
REMARK VINA RESULT:      -5.5     21.108     22.593
REMARK  Name = 
REMARK  4 active torsions:
REMARK  status: ('A' for Active; 'I' for Inactive)
REMARK    1  A    between atoms: C_2  and  O_3
REMARK    2  A    between atoms: O_3  and  C_4
REMARK    3  A    between atoms: C_4  and  C_6
REMARK    4  A    between atoms: C_17  and  C_18
REMARK                            x       y       z     vdW  Elec       q    Type
REMARK                         _______ _______ _______ _____ _____    ______ ____
ROOT
ATOM      1  C   UNL     1      18.587  -7.320  25.934  0.00  0.00    +0.000 C 
ATOM      2  C   UNL     1      19.219  -6.226  26.051  0.00  0.00    +0.000 C 
ATOM      3  N   UNL     1      18.494  -5.158  26.722  0.00  0.00    +0.000 NA
ATOM      4  O   UNL     1      20.489  -6.049  25.586  0.00  0.00    +0.000 OA
ATOM      5  C   UNL     1      21.113  -7.100  24.964  0.00  0.00    +0.000 C 
ATOM      6  C   UNL     1      20.572  -8.228  24.803  0.00  0.00    +0.000 C 
ATOM      7  C   UNL     1      21.293  -9.334  24.120  0.00  0.00    +0.000 C 
ATOM      8  O   UNL     1      20.697 -10.153  23.371  0.00  0.00    +0.000 OA
ATOM      9  C   UNL     1      22.745  -9.433  24.361  0.00  0.00    +0.000 C 
ATOM     10  C   UNL     1      23.382  -8.122  24.693  0.00  0.00    +0.000 C 
ATOM     11  C   UNL     1      22.526  -6.936  24.428  0.00  0.00    +0.000 C 
ATOM     12  C   UNL     1      19.110  -8.636  25.258  0.00  0.00    +0.000 C 
ENDROOT
BRANCH  12  13
ATOM     13  C   UNL     1      19.410  -9.474  26.547  0.00  0.00    +0.000 A 
ATOM     14  C   UNL     1      20.277  -9.204  27.537  0.00  0.00    +0.000 A 
ATOM     15  C   UNL     1      20.347 -10.082  28.531  0.00  0.00    +0.000 A 
ATOM     16  C   UNL     1      19.554 -11.188  28.494  0.00  0.00    +0.000 A 
ATOM     17  S   UNL     1      18.708 -10.931  26.999  0.00  0.00    +0.000 S 
ENDBRANCH  12  13
BRANCH   1  18
ATOM     18  C   UNL     1      17.201  -7.485  26.452  0.00  0.00    +0.000 C 
ATOM     19  O   UNL     1      17.007  -7.724  27.666  0.00  0.00    +0.000 OA
BRANCH  18  20
ATOM     20  O   UNL     1      16.107  -7.383  25.631  0.00  0.00    +0.000 OA
BRANCH  20  22
ATOM     21  C   UNL     1      14.089  -8.578  25.865  0.00  0.00    +0.000 C 
ATOM     22  C   UNL     1      15.439  -8.553  25.193  0.00  0.00    +0.000 C 
ENDBRANCH  20  22
ENDBRANCH  18  20
ENDBRANCH   1  18
TORSDOF 4
ENDMDL
MODEL 6
REMARK VINA RESULT:      -5.4     19.419     21.638
REMARK  Name = 
REMARK  4 active torsions:
REMARK  status: ('A' for Active; 'I' for Inactive)
REMARK    1  A    between atoms: C_2  and  O_3
REMARK    2  A    between atoms: O_3  and  C_4
REMARK    3  A    between atoms: C_4  and  C_6
REMARK    4  A    between atoms: C_17  and  C_18
REMARK                            x       y       z     vdW  Elec       q    Type
REMARK                         _______ _______ _______ _____ _____    ______ ____
ROOT
ATOM      1  C   UNL     1      27.917  24.190  26.919  0.00  0.00    +0.000 C 
ATOM      2  C   UNL     1      27.571  25.376  27.203  0.00  0.00    +0.000 C 
ATOM      3  N   UNL     1      27.714  25.749  28.602  0.00  0.00    +0.000 NA
ATOM      4  O   UNL     1      27.097  26.254  26.272  0.00  0.00    +0.000 OA
ATOM      5  C   UNL     1      26.990  25.837  24.971  0.00  0.00    +0.000 C 
ATOM      6  C   UNL     1      27.312  24.680  24.587  0.00  0.00    +0.000 C 
ATOM      7  C   UNL     1      27.175  24.277  23.163  0.00  0.00    +0.000 C 
ATOM      8  O   UNL     1      26.833  23.111  22.831  0.00  0.00    +0.000 OA
ATOM      9  C   UNL     1      27.460  25.309  22.148  0.00  0.00    +0.000 C 
ATOM     10  C   UNL     1      27.217  26.702  22.633  0.00  0.00    +0.000 C 
ATOM     11  C   UNL     1      26.460  26.787  23.909  0.00  0.00    +0.000 C 
ATOM     12  C   UNL     1      27.872  23.514  25.503  0.00  0.00    +0.000 C 
ENDROOT
BRANCH  12  13
ATOM     13  C   UNL     1      29.399  23.556  25.159  0.00  0.00    +0.000 A 
ATOM     14  C   UNL     1      30.211  22.538  24.829  0.00  0.00    +0.000 A 
ATOM     15  C   UNL     1      31.481  22.838  24.580  0.00  0.00    +0.000 A 
ATOM     16  C   UNL     1      31.884  24.134  24.671  0.00  0.00    +0.000 A 
ATOM     17  S   UNL     1      30.396  24.908  25.122  0.00  0.00    +0.000 S 
ENDBRANCH  12  13
BRANCH   1  18
ATOM     18  C   UNL     1      28.432  23.253  27.955  0.00  0.00    +0.000 C 
ATOM     19  O   UNL     1      29.645  23.265  28.269  0.00  0.00    +0.000 OA
BRANCH  18  20
ATOM     20  O   UNL     1      27.609  22.359  28.592  0.00  0.00    +0.000 OA
BRANCH  20  22
ATOM     21  C   UNL     1      26.340  21.626  30.439  0.00  0.00    +0.000 C 
ATOM     22  C   UNL     1      27.645  22.245  30.004  0.00  0.00    +0.000 C 
ENDBRANCH  20  22
ENDBRANCH  18  20
ENDBRANCH   1  18
TORSDOF 4
ENDMDL
MODEL 7
REMARK VINA RESULT:      -5.3     19.790     22.111
REMARK  Name = 
REMARK  4 active torsions:
REMARK  status: ('A' for Active; 'I' for Inactive)
REMARK    1  A    between atoms: C_2  and  O_3
REMARK    2  A    between atoms: O_3  and  C_4
REMARK    3  A    between atoms: C_4  and  C_6
REMARK    4  A    between atoms: C_17  and  C_18
REMARK                            x       y       z     vdW  Elec       q    Type
REMARK                         _______ _______ _______ _____ _____    ______ ____
ROOT
ATOM      1  C   UNL     1      25.980  25.882  25.662  0.00  0.00    +0.000 C 
ATOM      2  C   UNL     1      26.401  27.026  25.311  0.00  0.00    +0.000 C 
ATOM      3  N   UNL     1      26.177  28.094  26.273  0.00  0.00    +0.000 NA
ATOM      4  O   UNL     1      27.024  27.253  24.118  0.00  0.00    +0.000 OA
ATOM      5  C   UNL     1      27.204  26.199  23.260  0.00  0.00    +0.000 C 
ATOM      6  C   UNL     1      26.825  25.025  23.519  0.00  0.00    +0.000 C 
ATOM      7  C   UNL     1      27.044  23.917  22.551  0.00  0.00    +0.000 C 
ATOM      8  O   UNL     1      26.203  22.991  22.400  0.00  0.00    +0.000 OA
ATOM      9  C   UNL     1      28.296  23.949  21.773  0.00  0.00    +0.000 C 
ATOM     10  C   UNL     1      28.838  25.328  21.576  0.00  0.00    +0.000 C 
ATOM     11  C   UNL     1      27.888  26.418  21.920  0.00  0.00    +0.000 C 
ATOM     12  C   UNL     1      26.079  24.552  24.835  0.00  0.00    +0.000 C 
ENDROOT
BRANCH  12  13
ATOM     13  C   UNL     1      27.245  23.859  25.619  0.00  0.00    +0.000 A 
ATOM     14  C   UNL     1      27.278  22.626  26.151  0.00  0.00    +0.000 A 
ATOM     15  C   UNL     1      28.397  22.270  26.773  0.00  0.00    +0.000 A 
ATOM     16  C   UNL     1      29.428  23.155  26.837  0.00  0.00    +0.000 A 
ATOM     17  S   UNL     1      28.751  24.507  25.983  0.00  0.00    +0.000 S 
ENDBRANCH  12  13
BRANCH   1  18
ATOM     18  C   UNL     1      25.304  25.662  26.971  0.00  0.00    +0.000 C 
ATOM     19  O   UNL     1      24.057  25.554  27.026  0.00  0.00    +0.000 OA
BRANCH  18  20
ATOM     20  O   UNL     1      26.013  25.571  28.141  0.00  0.00    +0.000 OA
BRANCH  20  22
ATOM     21  C   UNL     1      26.144  23.679  29.542  0.00  0.00    +0.000 C 
ATOM     22  C   UNL     1      25.420  24.977  29.284  0.00  0.00    +0.000 C 
ENDBRANCH  20  22
ENDBRANCH  18  20
ENDBRANCH   1  18
TORSDOF 4
ENDMDL
MODEL 8
REMARK VINA RESULT:      -5.2     19.981     22.225
REMARK  Name = 
REMARK  4 active torsions:
REMARK  status: ('A' for Active; 'I' for Inactive)
REMARK    1  A    between atoms: C_2  and  O_3
REMARK    2  A    between atoms: O_3  and  C_4
REMARK    3  A    between atoms: C_4  and  C_6
REMARK    4  A    between atoms: C_17  and  C_18
REMARK                            x       y       z     vdW  Elec       q    Type
REMARK                         _______ _______ _______ _____ _____    ______ ____
ROOT
ATOM      1  C   UNL     1      30.495  24.345  25.386  0.00  0.00    +0.000 C 
ATOM      2  C   UNL     1      30.750  23.696  24.327  0.00  0.00    +0.000 C 
ATOM      3  N   UNL     1      32.112  23.195  24.216  0.00  0.00    +0.000 NA
ATOM      4  O   UNL     1      29.823  23.473  23.352  0.00  0.00    +0.000 OA
ATOM      5  C   UNL     1      28.557  23.973  23.523  0.00  0.00    +0.000 C 
ATOM      6  C   UNL     1      28.204  24.627  24.541  0.00  0.00    +0.000 C 
ATOM      7  C   UNL     1      26.819  25.148  24.677  0.00  0.00    +0.000 C 
ATOM      8  O   UNL     1      26.576  26.258  25.222  0.00  0.00    +0.000 OA
ATOM      9  C   UNL     1      25.734  24.304  24.143  0.00  0.00    +0.000 C 
ATOM     10  C   UNL     1      26.169  23.416  23.022  0.00  0.00    +0.000 C 
ATOM     11  C   UNL     1      27.501  23.750  22.453  0.00  0.00    +0.000 C 
ATOM     12  C   UNL     1      29.124  25.001  25.777  0.00  0.00    +0.000 C 
ENDROOT
BRANCH  12  13
ATOM     13  C   UNL     1      28.646  23.960  26.844  0.00  0.00    +0.000 A 
ATOM     14  C   UNL     1      28.496  22.632  26.708  0.00  0.00    +0.000 A 
ATOM     15  C   UNL     1      28.072  21.962  27.775  0.00  0.00    +0.000 A 
ATOM     16  C   UNL     1      27.817  22.643  28.924  0.00  0.00    +0.000 A 
ATOM     17  S   UNL     1      28.201  24.265  28.435  0.00  0.00    +0.000 S 
ENDBRANCH  12  13
BRANCH   1  18
ATOM     18  C   UNL     1      31.528  24.572  26.436  0.00  0.00    +0.000 C 
ATOM     19  O   UNL     1      31.973  25.725  26.643  0.00  0.00    +0.000 OA
BRANCH  18  20
ATOM     20  O   UNL     1      32.017  23.543  27.199  0.00  0.00    +0.000 OA
BRANCH  20  22
ATOM     21  C   UNL     1      31.590  22.233  29.113  0.00  0.00    +0.000 C 
ATOM     22  C   UNL     1      31.942  23.613  28.613  0.00  0.00    +0.000 C 
ENDBRANCH  20  22
ENDBRANCH  18  20
ENDBRANCH   1  18
TORSDOF 4
ENDMDL
MODEL 9
REMARK VINA RESULT:      -5.1     21.750     23.184
REMARK  Name = 
REMARK  4 active torsions:
REMARK  status: ('A' for Active; 'I' for Inactive)
REMARK    1  A    between atoms: C_2  and  O_3
REMARK    2  A    between atoms: O_3  and  C_4
REMARK    3  A    between atoms: C_4  and  C_6
REMARK    4  A    between atoms: C_17  and  C_18
REMARK                            x       y       z     vdW  Elec       q    Type
REMARK                         _______ _______ _______ _____ _____    ______ ____
ROOT
ATOM      1  C   UNL     1      21.775  -7.963  24.894  0.00  0.00    +0.000 C 
ATOM      2  C   UNL     1      21.501  -6.762  24.594  0.00  0.00    +0.000 C 
ATOM      3  N   UNL     1      22.340  -6.170  23.563  0.00  0.00    +0.000 NA
ATOM      4  O   UNL     1      20.492  -6.061  25.187  0.00  0.00    +0.000 OA
ATOM      5  C   UNL     1      19.739  -6.681  26.151  0.00  0.00    +0.000 C 
ATOM      6  C   UNL     1      19.930  -7.873  26.516  0.00  0.00    +0.000 C 
ATOM      7  C   UNL     1      19.085  -8.498  27.567  0.00  0.00    +0.000 C 
ATOM      8  O   UNL     1      19.558  -9.313  28.403  0.00  0.00    +0.000 OA
ATOM      9  C   UNL     1      17.659  -8.122  27.588  0.00  0.00    +0.000 C 
ATOM     10  C   UNL     1      17.395  -6.761  27.027  0.00  0.00    +0.000 C 
ATOM     11  C   UNL     1      18.611  -5.927  26.837  0.00  0.00    +0.000 C 
ATOM     12  C   UNL     1      21.047  -8.852  25.963  0.00  0.00    +0.000 C 
ENDROOT
BRANCH  12  13
ATOM     13  C   UNL     1      20.211  -9.763  25.001  0.00  0.00    +0.000 A 
ATOM     14  C   UNL     1      19.280  -9.399  24.104  0.00  0.00    +0.000 A 
ATOM     15  C   UNL     1      18.709 -10.371  23.402  0.00  0.00    +0.000 A 
ATOM     16  C   UNL     1      19.089 -11.659  23.625  0.00  0.00    +0.000 A 
ATOM     17  S   UNL     1      20.285 -11.435  24.865  0.00  0.00    +0.000 S 
ENDBRANCH  12  13
BRANCH   1  18
ATOM     18  C   UNL     1      22.882  -8.705  24.229  0.00  0.00    +0.000 C 
ATOM     19  O   UNL     1      22.668  -9.342  23.172  0.00  0.00    +0.000 OA
BRANCH  18  20
ATOM     20  O   UNL     1      24.153  -8.716  24.744  0.00  0.00    +0.000 OA
BRANCH  20  22
ATOM     21  C   UNL     1      25.714  -7.494  23.467  0.00  0.00    +0.000 C 
ATOM     22  C   UNL     1      25.266  -8.874  23.880  0.00  0.00    +0.000 C 
ENDBRANCH  20  22
ENDBRANCH  18  20
ENDBRANCH   1  18
TORSDOF 4
ENDMDL
MODEL 10
REMARK VINA RESULT:      -5.1      2.905      4.868
REMARK  Name = 
REMARK  4 active torsions:
REMARK  status: ('A' for Active; 'I' for Inactive)
REMARK    1  A    between atoms: C_2  and  O_3
REMARK    2  A    between atoms: O_3  and  C_4
REMARK    3  A    between atoms: C_4  and  C_6
REMARK    4  A    between atoms: C_17  and  C_18
REMARK                            x       y       z     vdW  Elec       q    Type
REMARK                         _______ _______ _______ _____ _____    ______ ____
ROOT
ATOM      1  C   UNL     1      20.817  12.391  39.210  0.00  0.00    +0.000 C 
ATOM      2  C   UNL     1      20.218  13.320  38.588  0.00  0.00    +0.000 C 
ATOM      3  N   UNL     1      20.782  14.650  38.760  0.00  0.00    +0.000 NA
ATOM      4  O   UNL     1      19.119  13.102  37.808  0.00  0.00    +0.000 OA
ATOM      5  C   UNL     1      18.642  11.823  37.689  0.00  0.00    +0.000 C 
ATOM      6  C   UNL     1      19.169  10.832  38.263  0.00  0.00    +0.000 C 
ATOM      7  C   UNL     1      18.610   9.464  38.102  0.00  0.00    +0.000 C 
ATOM      8  O   UNL     1      18.607   8.631  39.047  0.00  0.00    +0.000 OA
ATOM      9  C   UNL     1      18.056   9.122  36.778  0.00  0.00    +0.000 C 
ATOM     10  C   UNL     1      17.552  10.308  36.021  0.00  0.00    +0.000 C 
ATOM     11  C   UNL     1      17.416  11.545  36.833  0.00  0.00    +0.000 C 
ATOM     12  C   UNL     1      20.437  10.869  39.214  0.00  0.00    +0.000 C 
ENDROOT
BRANCH  12  13
ATOM     13  C   UNL     1      21.555  10.331  38.259  0.00  0.00    +0.000 A 
ATOM     14  C   UNL     1      21.779  10.646  36.972  0.00  0.00    +0.000 A 
ATOM     15  C   UNL     1      22.804  10.046  36.376  0.00  0.00    +0.000 A 
ATOM     16  C   UNL     1      23.556   9.162  37.085  0.00  0.00    +0.000 A 
ATOM     17  S   UNL     1      22.756   9.216  38.626  0.00  0.00    +0.000 S 
ENDBRANCH  12  13
BRANCH   1  18
ATOM     18  C   UNL     1      22.015  12.658  40.054  0.00  0.00    +0.000 C 
ATOM     19  O   UNL     1      21.974  12.449  41.289  0.00  0.00    +0.000 OA
BRANCH  18  20
ATOM     20  O   UNL     1      23.184  13.131  39.517  0.00  0.00    +0.000 OA
BRANCH  20  22
ATOM     21  C   UNL     1      25.078  12.330  38.363  0.00  0.00    +0.000 C 
ATOM     22  C   UNL     1      24.392  12.413  39.704  0.00  0.00    +0.000 C 
ENDBRANCH  20  22
ENDBRANCH  18  20
ENDBRANCH   1  18
TORSDOF 4
ENDMDL
