MODEL 1
REMARK VINA RESULT:      -8.1      0.000      0.000
REMARK  Name = 
REMARK  8 active torsions:
REMARK  status: ('A' for Active; 'I' for Inactive)
REMARK    1  A    between atoms: C_2  and  O_3
REMARK    2  A    between atoms: O_3  and  C_4
REMARK    3  A    between atoms: C_4  and  C_6
REMARK    4  A    between atoms: N_9  and  C_10
REMARK    5  A    between atoms: C_10  and  C_11
REMARK    6  A    between atoms: C_11  and  O_12
REMARK    7  A    between atoms: O_12  and  C_13
REMARK    8  A    between atoms: C_16  and  C_17
REMARK                            x       y       z     vdW  Elec       q    Type
REMARK                         _______ _______ _______ _____ _____    ______ ____
ROOT
ATOM      1  C   UNL     1      36.869  -1.209  16.594  0.00  0.00    +0.000 A 
ATOM      2  C   UNL     1      35.909  -0.213  16.399  0.00  0.00    +0.000 A 
ATOM      3  C   UNL     1      34.549  -0.199  16.994  0.00  0.00    +0.000 C 
ATOM      4  N   UNL     1      36.415   0.717  15.594  0.00  0.00    +0.000 N 
ATOM      5  C   UNL     1      37.665   0.379  15.249  0.00  0.00    +0.000 A 
ATOM      6  C   UNL     1      38.576   1.023  14.444  0.00  0.00    +0.000 A 
ATOM      7  C   UNL     1      39.840   0.466  14.230  0.00  0.00    +0.000 A 
ATOM      8  C   UNL     1      40.150  -0.731  14.838  0.00  0.00    +0.000 A 
ATOM      9  O   UNL     1      41.391  -1.308  14.646  0.00  0.00    +0.000 OA
ATOM     10  C   UNL     1      39.239  -1.375  15.644  0.00  0.00    +0.000 A 
ATOM     11  C   UNL     1      37.979  -0.822  15.859  0.00  0.00    +0.000 A 
ENDROOT
BRANCH   1  12
ATOM     12  C   UNL     1      36.761  -2.419  17.397  0.00  0.00    +0.000 C 
ATOM     13  O   UNL     1      37.390  -2.513  18.502  0.00  0.00    +0.000 OA
BRANCH  12  14
ATOM     14  O   UNL     1      35.974  -3.469  16.961  0.00  0.00    +0.000 OA
BRANCH  14  16
ATOM     15  C   UNL     1      36.316  -4.045  14.631  0.00  0.00    +0.000 C 
ATOM     16  C   UNL     1      36.537  -4.426  16.080  0.00  0.00    +0.000 C 
ENDBRANCH  14  16
ENDBRANCH  12  14
ENDBRANCH   1  12
BRANCH   4  17
ATOM     17  C   UNL     1      35.729   1.904  15.161  0.00  0.00    +0.000 C 
BRANCH  17  18
ATOM     18  C   UNL     1      36.045   2.983  16.201  0.00  0.00    +0.000 C 
BRANCH  18  19
ATOM     19  O   UNL     1      36.907   3.959  15.655  0.00  0.00    +0.000 OA
BRANCH  19  20
ATOM     20  C   UNL     1      37.958   4.511  16.369  0.00  0.00    +0.000 A 
ATOM     21  C   UNL     1      39.022   5.119  15.711  0.00  0.00    +0.000 A 
ATOM     22  C   UNL     1      40.067   5.668  16.424  0.00  0.00    +0.000 A 
ATOM     23  C   UNL     1      40.116   5.648  17.803  0.00  0.00    +0.000 A 
ATOM     24  C   UNL     1      39.060   5.043  18.469  0.00  0.00    +0.000 A 
ATOM     25  C   UNL     1      38.021   4.498  17.746  0.00  0.00    +0.000 A 
BRANCH  23  26
ATOM     26  C   UNL     1      41.227   6.231  18.543  0.00  0.00    +0.000 A 
ATOM     27  C   UNL     1      41.127   6.441  19.897  0.00  0.00    +0.000 A 
ATOM     28  C   UNL     1      42.157   6.987  20.615  0.00  0.00    +0.000 A 
ATOM     29  C   UNL     1      43.316   7.338  19.979  0.00  0.00    +0.000 A 
ATOM     30  C   UNL     1      43.428   7.134  18.626  0.00  0.00    +0.000 A 
ATOM     31  C   UNL     1      42.400   6.584  17.888  0.00  0.00    +0.000 A 
ENDBRANCH  23  26
ENDBRANCH  19  20
ENDBRANCH  18  19
ENDBRANCH  17  18
ENDBRANCH   4  17
TORSDOF 8
ENDMDL
MODEL 2
REMARK VINA RESULT:      -8.0      1.520      3.105
REMARK  Name = 
REMARK  8 active torsions:
REMARK  status: ('A' for Active; 'I' for Inactive)
REMARK    1  A    between atoms: C_2  and  O_3
REMARK    2  A    between atoms: O_3  and  C_4
REMARK    3  A    between atoms: C_4  and  C_6
REMARK    4  A    between atoms: N_9  and  C_10
REMARK    5  A    between atoms: C_10  and  C_11
REMARK    6  A    between atoms: C_11  and  O_12
REMARK    7  A    between atoms: O_12  and  C_13
REMARK    8  A    between atoms: C_16  and  C_17
REMARK                            x       y       z     vdW  Elec       q    Type
REMARK                         _______ _______ _______ _____ _____    ______ ____
ROOT
ATOM      1  C   UNL     1      37.129  -0.703  14.579  0.00  0.00    +0.000 A 
ATOM      2  C   UNL     1      36.630   0.411  13.898  0.00  0.00    +0.000 A 
ATOM      3  C   UNL     1      36.727   0.640  12.434  0.00  0.00    +0.000 C 
ATOM      4  N   UNL     1      36.054   1.227  14.776  0.00  0.00    +0.000 N 
ATOM      5  C   UNL     1      36.151   0.703  16.005  0.00  0.00    +0.000 A 
ATOM      6  C   UNL     1      35.709   1.178  17.218  0.00  0.00    +0.000 A 
ATOM      7  C   UNL     1      35.933   0.440  18.384  0.00  0.00    +0.000 A 
ATOM      8  C   UNL     1      36.599  -0.763  18.292  0.00  0.00    +0.000 A 
ATOM      9  O   UNL     1      36.835  -1.516  19.426  0.00  0.00    +0.000 OA
ATOM     10  C   UNL     1      37.040  -1.238  17.079  0.00  0.00    +0.000 A 
ATOM     11  C   UNL     1      36.820  -0.506  15.915  0.00  0.00    +0.000 A 
ENDROOT
BRANCH   1  12
ATOM     12  C   UNL     1      37.834  -1.852  14.029  0.00  0.00    +0.000 C 
ATOM     13  O   UNL     1      37.226  -2.961  13.871  0.00  0.00    +0.000 OA
BRANCH  12  14
ATOM     14  O   UNL     1      39.167  -1.741  13.679  0.00  0.00    +0.000 OA
BRANCH  14  16
ATOM     15  C   UNL     1      40.473  -2.953  15.323  0.00  0.00    +0.000 C 
ATOM     16  C   UNL     1      40.136  -1.612  14.705  0.00  0.00    +0.000 C 
ENDBRANCH  14  16
ENDBRANCH  12  14
ENDBRANCH   1  12
BRANCH   4  17
ATOM     17  C   UNL     1      35.422   2.479  14.458  0.00  0.00    +0.000 C 
BRANCH  17  18
ATOM     18  C   UNL     1      36.555   3.461  14.147  0.00  0.00    +0.000 C 
BRANCH  18  19
ATOM     19  O   UNL     1      36.482   4.585  14.999  0.00  0.00    +0.000 OA
BRANCH  19  20
ATOM     20  C   UNL     1      37.536   4.979  15.809  0.00  0.00    +0.000 A 
ATOM     21  C   UNL     1      37.801   4.315  17.002  0.00  0.00    +0.000 A 
ATOM     22  C   UNL     1      38.850   4.708  17.805  0.00  0.00    +0.000 A 
ATOM     23  C   UNL     1      39.682   5.759  17.478  0.00  0.00    +0.000 A 
ATOM     24  C   UNL     1      39.426   6.428  16.291  0.00  0.00    +0.000 A 
ATOM     25  C   UNL     1      38.375   6.027  15.495  0.00  0.00    +0.000 A 
BRANCH  23  26
ATOM     26  C   UNL     1      40.787   6.164  18.337  0.00  0.00    +0.000 A 
ATOM     27  C   UNL     1      40.605   6.288  19.693  0.00  0.00    +0.000 A 
ATOM     28  C   UNL     1      41.628   6.666  20.521  0.00  0.00    +0.000 A 
ATOM     29  C   UNL     1      42.863   6.930  19.996  0.00  0.00    +0.000 A 
ATOM     30  C   UNL     1      43.058   6.809  18.643  0.00  0.00    +0.000 A 
ATOM     31  C   UNL     1      42.038   6.429  17.795  0.00  0.00    +0.000 A 
ENDBRANCH  23  26
ENDBRANCH  19  20
ENDBRANCH  18  19
ENDBRANCH  17  18
ENDBRANCH   4  17
TORSDOF 8
ENDMDL
MODEL 3
REMARK VINA RESULT:      -7.6      1.837      2.559
REMARK  Name = 
REMARK  8 active torsions:
REMARK  status: ('A' for Active; 'I' for Inactive)
REMARK    1  A    between atoms: C_2  and  O_3
REMARK    2  A    between atoms: O_3  and  C_4
REMARK    3  A    between atoms: C_4  and  C_6
REMARK    4  A    between atoms: N_9  and  C_10
REMARK    5  A    between atoms: C_10  and  C_11
REMARK    6  A    between atoms: C_11  and  O_12
REMARK    7  A    between atoms: O_12  and  C_13
REMARK    8  A    between atoms: C_16  and  C_17
REMARK                            x       y       z     vdW  Elec       q    Type
REMARK                         _______ _______ _______ _____ _____    ______ ____
ROOT
ATOM      1  C   UNL     1      36.660  -0.312  16.016  0.00  0.00    +0.000 A 
ATOM      2  C   UNL     1      36.440   0.591  14.973  0.00  0.00    +0.000 A 
ATOM      3  C   UNL     1      35.338   1.584  14.911  0.00  0.00    +0.000 C 
ATOM      4  N   UNL     1      37.380   0.415  14.048  0.00  0.00    +0.000 N 
ATOM      5  C   UNL     1      38.209  -0.565  14.434  0.00  0.00    +0.000 A 
ATOM      6  C   UNL     1      39.316  -1.095  13.814  0.00  0.00    +0.000 A 
ATOM      7  C   UNL     1      40.032  -2.130  14.423  0.00  0.00    +0.000 A 
ATOM      8  C   UNL     1      39.608  -2.602  15.646  0.00  0.00    +0.000 A 
ATOM      9  O   UNL     1      40.294  -3.624  16.274  0.00  0.00    +0.000 OA
ATOM     10  C   UNL     1      38.501  -2.071  16.266  0.00  0.00    +0.000 A 
ATOM     11  C   UNL     1      37.785  -1.040  15.663  0.00  0.00    +0.000 A 
ENDROOT
BRANCH   1  12
ATOM     12  C   UNL     1      35.887  -0.481  17.238  0.00  0.00    +0.000 C 
ATOM     13  O   UNL     1      35.702   0.507  18.022  0.00  0.00    +0.000 OA
BRANCH  12  14
ATOM     14  O   UNL     1      35.351  -1.717  17.551  0.00  0.00    +0.000 OA
BRANCH  14  16
ATOM     15  C   UNL     1      34.555  -3.255  15.854  0.00  0.00    +0.000 C 
ATOM     16  C   UNL     1      34.206  -2.165  16.846  0.00  0.00    +0.000 C 
ENDBRANCH  14  16
ENDBRANCH  12  14
ENDBRANCH   1  12
BRANCH   4  17
ATOM     17  C   UNL     1      37.492   1.159  12.823  0.00  0.00    +0.000 C 
BRANCH  17  18
ATOM     18  C   UNL     1      38.460   2.310  13.112  0.00  0.00    +0.000 C 
BRANCH  18  19
ATOM     19  O   UNL     1      37.749   3.470  13.493  0.00  0.00    +0.000 OA
BRANCH  19  20
ATOM     20  C   UNL     1      38.030   4.169  14.657  0.00  0.00    +0.000 A 
ATOM     21  C   UNL     1      38.607   5.432  14.605  0.00  0.00    +0.000 A 
ATOM     22  C   UNL     1      38.884   6.125  15.765  0.00  0.00    +0.000 A 
ATOM     23  C   UNL     1      38.609   5.616  17.017  0.00  0.00    +0.000 A 
ATOM     24  C   UNL     1      38.034   4.356  17.080  0.00  0.00    +0.000 A 
ATOM     25  C   UNL     1      37.760   3.672  15.915  0.00  0.00    +0.000 A 
BRANCH  23  26
ATOM     26  C   UNL     1      38.908   6.360  18.234  0.00  0.00    +0.000 A 
ATOM     27  C   UNL     1      39.978   6.006  19.020  0.00  0.00    +0.000 A 
ATOM     28  C   UNL     1      40.279   6.690  20.168  0.00  0.00    +0.000 A 
ATOM     29  C   UNL     1      39.503   7.749  20.550  0.00  0.00    +0.000 A 
ATOM     30  C   UNL     1      38.431   8.112  19.773  0.00  0.00    +0.000 A 
ATOM     31  C   UNL     1      38.114   7.434  18.614  0.00  0.00    +0.000 A 
ENDBRANCH  23  26
ENDBRANCH  19  20
ENDBRANCH  18  19
ENDBRANCH  17  18
ENDBRANCH   4  17
TORSDOF 8
ENDMDL
MODEL 4
REMARK VINA RESULT:      -7.6      1.318      3.402
REMARK  Name = 
REMARK  8 active torsions:
REMARK  status: ('A' for Active; 'I' for Inactive)
REMARK    1  A    between atoms: C_2  and  O_3
REMARK    2  A    between atoms: O_3  and  C_4
REMARK    3  A    between atoms: C_4  and  C_6
REMARK    4  A    between atoms: N_9  and  C_10
REMARK    5  A    between atoms: C_10  and  C_11
REMARK    6  A    between atoms: C_11  and  O_12
REMARK    7  A    between atoms: O_12  and  C_13
REMARK    8  A    between atoms: C_16  and  C_17
REMARK                            x       y       z     vdW  Elec       q    Type
REMARK                         _______ _______ _______ _____ _____    ______ ____
ROOT
ATOM      1  C   UNL     1      39.226  -0.041  14.362  0.00  0.00    +0.000 A 
ATOM      2  C   UNL     1      38.219   0.905  14.155  0.00  0.00    +0.000 A 
ATOM      3  C   UNL     1      38.257   1.998  13.151  0.00  0.00    +0.000 C 
ATOM      4  N   UNL     1      37.222   0.662  15.002  0.00  0.00    +0.000 N 
ATOM      5  C   UNL     1      37.528  -0.400  15.759  0.00  0.00    +0.000 A 
ATOM      6  C   UNL     1      36.817  -1.018  16.762  0.00  0.00    +0.000 A 
ATOM      7  C   UNL     1      37.353  -2.130  17.418  0.00  0.00    +0.000 A 
ATOM      8  C   UNL     1      38.596  -2.589  17.042  0.00  0.00    +0.000 A 
ATOM      9  O   UNL     1      39.153  -3.686  17.671  0.00  0.00    +0.000 OA
ATOM     10  C   UNL     1      39.307  -1.971  16.039  0.00  0.00    +0.000 A 
ATOM     11  C   UNL     1      38.777  -0.863  15.383  0.00  0.00    +0.000 A 
ENDROOT
BRANCH   1  12
ATOM     12  C   UNL     1      40.500  -0.166  13.667  0.00  0.00    +0.000 C 
ATOM     13  O   UNL     1      41.564   0.297  14.192  0.00  0.00    +0.000 OA
BRANCH  12  14
ATOM     14  O   UNL     1      40.555  -0.790  12.434  0.00  0.00    +0.000 OA
BRANCH  14  16
ATOM     15  C   UNL     1      41.027  -3.159  12.228  0.00  0.00    +0.000 C 
ATOM     16  C   UNL     1      39.972  -2.074  12.289  0.00  0.00    +0.000 C 
ENDBRANCH  14  16
ENDBRANCH  12  14
ENDBRANCH   1  12
BRANCH   4  17
ATOM     17  C   UNL     1      36.004   1.420  15.092  0.00  0.00    +0.000 C 
BRANCH  17  18
ATOM     18  C   UNL     1      36.196   2.398  16.255  0.00  0.00    +0.000 C 
BRANCH  18  19
ATOM     19  O   UNL     1      36.751   3.612  15.793  0.00  0.00    +0.000 OA
BRANCH  19  20
ATOM     20  C   UNL     1      37.798   4.249  16.442  0.00  0.00    +0.000 A 
ATOM     21  C   UNL     1      37.898   4.218  17.828  0.00  0.00    +0.000 A 
ATOM     22  C   UNL     1      38.940   4.852  18.470  0.00  0.00    +0.000 A 
ATOM     23  C   UNL     1      39.925   5.538  17.789  0.00  0.00    +0.000 A 
ATOM     24  C   UNL     1      39.834   5.575  16.406  0.00  0.00    +0.000 A 
ATOM     25  C   UNL     1      38.789   4.937  15.774  0.00  0.00    +0.000 A 
BRANCH  23  26
ATOM     26  C   UNL     1      41.021   6.203  18.482  0.00  0.00    +0.000 A 
ATOM     27  C   UNL     1      42.137   6.608  17.790  0.00  0.00    +0.000 A 
ATOM     28  C   UNL     1      43.179   7.236  18.418  0.00  0.00    +0.000 A 
ATOM     29  C   UNL     1      43.119   7.468  19.764  0.00  0.00    +0.000 A 
ATOM     30  C   UNL     1      42.009   7.069  20.467  0.00  0.00    +0.000 A 
ATOM     31  C   UNL     1      40.950   6.435  19.849  0.00  0.00    +0.000 A 
ENDBRANCH  23  26
ENDBRANCH  19  20
ENDBRANCH  18  19
ENDBRANCH  17  18
ENDBRANCH   4  17
TORSDOF 8
ENDMDL
MODEL 5
REMARK VINA RESULT:      -7.5     25.563     28.596
REMARK  Name = 
REMARK  8 active torsions:
REMARK  status: ('A' for Active; 'I' for Inactive)
REMARK    1  A    between atoms: C_2  and  O_3
REMARK    2  A    between atoms: O_3  and  C_4
REMARK    3  A    between atoms: C_4  and  C_6
REMARK    4  A    between atoms: N_9  and  C_10
REMARK    5  A    between atoms: C_10  and  C_11
REMARK    6  A    between atoms: C_11  and  O_12
REMARK    7  A    between atoms: O_12  and  C_13
REMARK    8  A    between atoms: C_16  and  C_17
REMARK                            x       y       z     vdW  Elec       q    Type
REMARK                         _______ _______ _______ _____ _____    ______ ____
ROOT
ATOM      1  C   UNL     1      24.464  18.477  33.529  0.00  0.00    +0.000 A 
ATOM      2  C   UNL     1      24.608  19.010  34.813  0.00  0.00    +0.000 A 
ATOM      3  C   UNL     1      24.262  20.397  35.213  0.00  0.00    +0.000 C 
ATOM      4  N   UNL     1      25.102  18.070  35.614  0.00  0.00    +0.000 N 
ATOM      5  C   UNL     1      25.293  16.942  34.916  0.00  0.00    +0.000 A 
ATOM      6  C   UNL     1      25.779  15.717  35.312  0.00  0.00    +0.000 A 
ATOM      7  C   UNL     1      25.887  14.674  34.387  0.00  0.00    +0.000 A 
ATOM      8  C   UNL     1      25.499  14.898  33.084  0.00  0.00    +0.000 A 
ATOM      9  O   UNL     1      25.593  13.887  32.146  0.00  0.00    +0.000 OA
ATOM     10  C   UNL     1      25.012  16.122  32.689  0.00  0.00    +0.000 A 
ATOM     11  C   UNL     1      24.903  17.164  33.607  0.00  0.00    +0.000 A 
ENDROOT
BRANCH   1  12
ATOM     12  C   UNL     1      23.962  19.135  32.332  0.00  0.00    +0.000 C 
ATOM     13  O   UNL     1      24.728  19.315  31.330  0.00  0.00    +0.000 OA
BRANCH  12  14
ATOM     14  O   UNL     1      22.649  19.568  32.281  0.00  0.00    +0.000 OA
BRANCH  14  16
ATOM     15  C   UNL     1      22.547  21.987  32.408  0.00  0.00    +0.000 C 
ATOM     16  C   UNL     1      22.345  20.749  31.560  0.00  0.00    +0.000 C 
ENDBRANCH  14  16
ENDBRANCH  12  14
ENDBRANCH   1  12
BRANCH   4  17
ATOM     17  C   UNL     1      25.388  18.236  37.013  0.00  0.00    +0.000 C 
BRANCH  17  18
ATOM     18  C   UNL     1      24.095  17.891  37.756  0.00  0.00    +0.000 C 
BRANCH  18  19
ATOM     19  O   UNL     1      24.373  17.546  39.098  0.00  0.00    +0.000 OA
BRANCH  19  20
ATOM     20  C   UNL     1      25.106  16.422  39.444  0.00  0.00    +0.000 A 
ATOM     21  C   UNL     1      24.710  15.158  39.023  0.00  0.00    +0.000 A 
ATOM     22  C   UNL     1      25.442  14.042  39.368  0.00  0.00    +0.000 A 
ATOM     23  C   UNL     1      26.587  14.113  40.134  0.00  0.00    +0.000 A 
ATOM     24  C   UNL     1      26.991  15.369  40.560  0.00  0.00    +0.000 A 
ATOM     25  C   UNL     1      26.252  16.478  40.209  0.00  0.00    +0.000 A 
BRANCH  23  26
ATOM     26  C   UNL     1      27.350  12.924  40.491  0.00  0.00    +0.000 A 
ATOM     27  C   UNL     1      26.713  11.726  40.704  0.00  0.00    +0.000 A 
ATOM     28  C   UNL     1      27.408  10.595  41.040  0.00  0.00    +0.000 A 
ATOM     29  C   UNL     1      28.768  10.649  41.171  0.00  0.00    +0.000 A 
ATOM     30  C   UNL     1      29.417  11.841  40.961  0.00  0.00    +0.000 A 
ATOM     31  C   UNL     1      28.732  12.989  40.621  0.00  0.00    +0.000 A 
ENDBRANCH  23  26
ENDBRANCH  19  20
ENDBRANCH  18  19
ENDBRANCH  17  18
ENDBRANCH   4  17
TORSDOF 8
ENDMDL
MODEL 6
REMARK VINA RESULT:      -7.5      1.384      2.042
REMARK  Name = 
REMARK  8 active torsions:
REMARK  status: ('A' for Active; 'I' for Inactive)
REMARK    1  A    between atoms: C_2  and  O_3
REMARK    2  A    between atoms: O_3  and  C_4
REMARK    3  A    between atoms: C_4  and  C_6
REMARK    4  A    between atoms: N_9  and  C_10
REMARK    5  A    between atoms: C_10  and  C_11
REMARK    6  A    between atoms: C_11  and  O_12
REMARK    7  A    between atoms: O_12  and  C_13
REMARK    8  A    between atoms: C_16  and  C_17
REMARK                            x       y       z     vdW  Elec       q    Type
REMARK                         _______ _______ _______ _____ _____    ______ ____
ROOT
ATOM      1  C   UNL     1      36.910   0.006  15.664  0.00  0.00    +0.000 A 
ATOM      2  C   UNL     1      36.315   1.247  15.900  0.00  0.00    +0.000 A 
ATOM      3  C   UNL     1      34.993   1.460  16.541  0.00  0.00    +0.000 C 
ATOM      4  N   UNL     1      37.127   2.203  15.456  0.00  0.00    +0.000 N 
ATOM      5  C   UNL     1      38.230   1.647  14.937  0.00  0.00    +0.000 A 
ATOM      6  C   UNL     1      39.339   2.227  14.365  0.00  0.00    +0.000 A 
ATOM      7  C   UNL     1      40.381   1.426  13.888  0.00  0.00    +0.000 A 
ATOM      8  C   UNL     1      40.274   0.057  14.004  0.00  0.00    +0.000 A 
ATOM      9  O   UNL     1      41.287  -0.762  13.542  0.00  0.00    +0.000 OA
ATOM     10  C   UNL     1      39.166  -0.522  14.577  0.00  0.00    +0.000 A 
ATOM     11  C   UNL     1      38.125   0.272  15.053  0.00  0.00    +0.000 A 
ENDROOT
BRANCH   1  12
ATOM     12  C   UNL     1      36.391  -1.317  15.982  0.00  0.00    +0.000 C 
ATOM     13  O   UNL     1      35.944  -2.069  15.056  0.00  0.00    +0.000 OA
BRANCH  12  14
ATOM     14  O   UNL     1      36.381  -1.758  17.293  0.00  0.00    +0.000 OA
BRANCH  14  16
ATOM     15  C   UNL     1      38.521  -2.877  17.515  0.00  0.00    +0.000 C 
ATOM     16  C   UNL     1      37.600  -1.784  18.016  0.00  0.00    +0.000 C 
ENDBRANCH  14  16
ENDBRANCH  12  14
ENDBRANCH   1  12
BRANCH   4  17
ATOM     17  C   UNL     1      36.864   3.615  15.522  0.00  0.00    +0.000 C 
BRANCH  17  18
ATOM     18  C   UNL     1      37.438   4.093  16.859  0.00  0.00    +0.000 C 
BRANCH  18  19
ATOM     19  O   UNL     1      38.110   5.325  16.696  0.00  0.00    +0.000 OA
BRANCH  19  20
ATOM     20  C   UNL     1      39.239   5.662  17.426  0.00  0.00    +0.000 A 
ATOM     21  C   UNL     1      40.426   5.997  16.785  0.00  0.00    +0.000 A 
ATOM     22  C   UNL     1      41.546   6.333  17.514  0.00  0.00    +0.000 A 
ATOM     23  C   UNL     1      41.555   6.357  18.893  0.00  0.00    +0.000 A 
ATOM     24  C   UNL     1      40.376   6.023  19.543  0.00  0.00    +0.000 A 
ATOM     25  C   UNL     1      39.262   5.690  18.805  0.00  0.00    +0.000 A 
BRANCH  23  26
ATOM     26  C   UNL     1      42.748   6.713  19.651  0.00  0.00    +0.000 A 
ATOM     27  C   UNL     1      42.705   6.786  21.022  0.00  0.00    +0.000 A 
ATOM     28  C   UNL     1      43.812   7.119  21.756  0.00  0.00    +0.000 A 
ATOM     29  C   UNL     1      44.992   7.388  21.119  0.00  0.00    +0.000 A 
ATOM     30  C   UNL     1      45.048   7.319  19.749  0.00  0.00    +0.000 A 
ATOM     31  C   UNL     1      43.942   6.985  18.995  0.00  0.00    +0.000 A 
ENDBRANCH  23  26
ENDBRANCH  19  20
ENDBRANCH  18  19
ENDBRANCH  17  18
ENDBRANCH   4  17
TORSDOF 8
ENDMDL
MODEL 7
REMARK VINA RESULT:      -7.4      1.845      4.025
REMARK  Name = 
REMARK  8 active torsions:
REMARK  status: ('A' for Active; 'I' for Inactive)
REMARK    1  A    between atoms: C_2  and  O_3
REMARK    2  A    between atoms: O_3  and  C_4
REMARK    3  A    between atoms: C_4  and  C_6
REMARK    4  A    between atoms: N_9  and  C_10
REMARK    5  A    between atoms: C_10  and  C_11
REMARK    6  A    between atoms: C_11  and  O_12
REMARK    7  A    between atoms: O_12  and  C_13
REMARK    8  A    between atoms: C_16  and  C_17
REMARK                            x       y       z     vdW  Elec       q    Type
REMARK                         _______ _______ _______ _____ _____    ______ ____
ROOT
ATOM      1  C   UNL     1      37.674   0.456  14.290  0.00  0.00    +0.000 A 
ATOM      2  C   UNL     1      38.118   1.777  14.201  0.00  0.00    +0.000 A 
ATOM      3  C   UNL     1      39.182   2.269  13.290  0.00  0.00    +0.000 C 
ATOM      4  N   UNL     1      37.430   2.519  15.066  0.00  0.00    +0.000 N 
ATOM      5  C   UNL     1      36.554   1.746  15.721  0.00  0.00    +0.000 A 
ATOM      6  C   UNL     1      35.638   2.062  16.697  0.00  0.00    +0.000 A 
ATOM      7  C   UNL     1      34.819   1.067  17.239  0.00  0.00    +0.000 A 
ATOM      8  C   UNL     1      34.948  -0.225  16.777  0.00  0.00    +0.000 A 
ATOM      9  O   UNL     1      34.153  -1.231  17.292  0.00  0.00    +0.000 OA
ATOM     10  C   UNL     1      35.864  -0.541  15.800  0.00  0.00    +0.000 A 
ATOM     11  C   UNL     1      36.682   0.448  15.258  0.00  0.00    +0.000 A 
ENDROOT
BRANCH   1  12
ATOM     12  C   UNL     1      38.135  -0.702  13.537  0.00  0.00    +0.000 C 
ATOM     13  O   UNL     1      37.913  -0.781  12.285  0.00  0.00    +0.000 OA
BRANCH  12  14
ATOM     14  O   UNL     1      38.816  -1.719  14.182  0.00  0.00    +0.000 OA
BRANCH  14  16
ATOM     15  C   UNL     1      41.127  -0.993  14.282  0.00  0.00    +0.000 C 
ATOM     16  C   UNL     1      39.883  -1.383  15.052  0.00  0.00    +0.000 C 
ENDBRANCH  14  16
ENDBRANCH  12  14
ENDBRANCH   1  12
BRANCH   4  17
ATOM     17  C   UNL     1      37.599   3.933  15.266  0.00  0.00    +0.000 C 
BRANCH  17  18
ATOM     18  C   UNL     1      38.473   4.085  16.514  0.00  0.00    +0.000 C 
BRANCH  18  19
ATOM     19  O   UNL     1      38.727   5.449  16.777  0.00  0.00    +0.000 OA
BRANCH  19  20
ATOM     20  C   UNL     1      39.661   5.869  17.711  0.00  0.00    +0.000 A 
ATOM     21  C   UNL     1      39.302   6.051  19.042  0.00  0.00    +0.000 A 
ATOM     22  C   UNL     1      40.234   6.468  19.969  0.00  0.00    +0.000 A 
ATOM     23  C   UNL     1      41.549   6.723  19.637  0.00  0.00    +0.000 A 
ATOM     24  C   UNL     1      41.917   6.546  18.312  0.00  0.00    +0.000 A 
ATOM     25  C   UNL     1      40.978   6.128  17.393  0.00  0.00    +0.000 A 
BRANCH  23  26
ATOM     26  C   UNL     1      42.522   7.165  20.627  0.00  0.00    +0.000 A 
ATOM     27  C   UNL     1      42.856   8.493  20.731  0.00  0.00    +0.000 A 
ATOM     28  C   UNL     1      43.767   8.932  21.654  0.00  0.00    +0.000 A 
ATOM     29  C   UNL     1      44.366   8.036  22.495  0.00  0.00    +0.000 A 
ATOM     30  C   UNL     1      44.041   6.705  22.402  0.00  0.00    +0.000 A 
ATOM     31  C   UNL     1      43.124   6.246  21.478  0.00  0.00    +0.000 A 
ENDBRANCH  23  26
ENDBRANCH  19  20
ENDBRANCH  18  19
ENDBRANCH  17  18
ENDBRANCH   4  17
TORSDOF 8
ENDMDL
MODEL 8
REMARK VINA RESULT:      -7.2     25.013     28.015
REMARK  Name = 
REMARK  8 active torsions:
REMARK  status: ('A' for Active; 'I' for Inactive)
REMARK    1  A    between atoms: C_2  and  O_3
REMARK    2  A    between atoms: O_3  and  C_4
REMARK    3  A    between atoms: C_4  and  C_6
REMARK    4  A    between atoms: N_9  and  C_10
REMARK    5  A    between atoms: C_10  and  C_11
REMARK    6  A    between atoms: C_11  and  O_12
REMARK    7  A    between atoms: O_12  and  C_13
REMARK    8  A    between atoms: C_16  and  C_17
REMARK                            x       y       z     vdW  Elec       q    Type
REMARK                         _______ _______ _______ _____ _____    ______ ____
ROOT
ATOM      1  C   UNL     1      26.779  15.217  35.739  0.00  0.00    +0.000 A 
ATOM      2  C   UNL     1      28.126  15.559  35.878  0.00  0.00    +0.000 A 
ATOM      3  C   UNL     1      29.109  15.657  34.770  0.00  0.00    +0.000 C 
ATOM      4  N   UNL     1      28.380  15.783  37.165  0.00  0.00    +0.000 N 
ATOM      5  C   UNL     1      27.262  15.603  37.880  0.00  0.00    +0.000 A 
ATOM      6  C   UNL     1      27.036  15.719  39.232  0.00  0.00    +0.000 A 
ATOM      7  C   UNL     1      25.762  15.476  39.753  0.00  0.00    +0.000 A 
ATOM      8  C   UNL     1      24.747  15.122  38.891  0.00  0.00    +0.000 A 
ATOM      9  O   UNL     1      23.477  14.876  39.375  0.00  0.00    +0.000 OA
ATOM     10  C   UNL     1      24.973  15.006  37.539  0.00  0.00    +0.000 A 
ATOM     11  C   UNL     1      26.241  15.247  37.016  0.00  0.00    +0.000 A 
ENDROOT
BRANCH   1  12
ATOM     12  C   UNL     1      26.055  14.888  34.519  0.00  0.00    +0.000 C 
ATOM     13  O   UNL     1      26.299  13.800  33.902  0.00  0.00    +0.000 OA
BRANCH  12  14
ATOM     14  O   UNL     1      25.101  15.760  34.027  0.00  0.00    +0.000 OA
BRANCH  14  16
ATOM     15  C   UNL     1      24.689  18.146  33.911  0.00  0.00    +0.000 C 
ATOM     16  C   UNL     1      25.524  16.976  33.436  0.00  0.00    +0.000 C 
ENDBRANCH  14  16
ENDBRANCH  12  14
ENDBRANCH   1  12
BRANCH   4  17
ATOM     17  C   UNL     1      29.657  16.162  37.707  0.00  0.00    +0.000 C 
BRANCH  17  18
ATOM     18  C   UNL     1      30.443  14.862  37.894  0.00  0.00    +0.000 C 
BRANCH  18  19
ATOM     19  O   UNL     1      30.533  14.532  39.265  0.00  0.00    +0.000 OA
BRANCH  19  20
ATOM     20  C   UNL     1      30.011  13.358  39.787  0.00  0.00    +0.000 A 
ATOM     21  C   UNL     1      28.804  13.362  40.476  0.00  0.00    +0.000 A 
ATOM     22  C   UNL     1      28.287  12.194  40.993  0.00  0.00    +0.000 A 
ATOM     23  C   UNL     1      28.925  10.977  40.859  0.00  0.00    +0.000 A 
ATOM     24  C   UNL     1      30.130  10.962  40.174  0.00  0.00    +0.000 A 
ATOM     25  C   UNL     1      30.637  12.136  39.660  0.00  0.00    +0.000 A 
BRANCH  23  26
ATOM     26  C   UNL     1      28.367   9.749  41.411  0.00  0.00    +0.000 A 
ATOM     27  C   UNL     1      29.145   8.916  42.177  0.00  0.00    +0.000 A 
ATOM     28  C   UNL     1      28.643   7.757  42.708  0.00  0.00    +0.000 A 
ATOM     29  C   UNL     1      27.341   7.412  42.474  0.00  0.00    +0.000 A 
ATOM     30  C   UNL     1      26.554   8.236  41.710  0.00  0.00    +0.000 A 
ATOM     31  C   UNL     1      27.043   9.408  41.169  0.00  0.00    +0.000 A 
ENDBRANCH  23  26
ENDBRANCH  19  20
ENDBRANCH  18  19
ENDBRANCH  17  18
ENDBRANCH   4  17
TORSDOF 8
ENDMDL
MODEL 9
REMARK VINA RESULT:      -7.2      1.752      2.230
REMARK  Name = 
REMARK  8 active torsions:
REMARK  status: ('A' for Active; 'I' for Inactive)
REMARK    1  A    between atoms: C_2  and  O_3
REMARK    2  A    between atoms: O_3  and  C_4
REMARK    3  A    between atoms: C_4  and  C_6
REMARK    4  A    between atoms: N_9  and  C_10
REMARK    5  A    between atoms: C_10  and  C_11
REMARK    6  A    between atoms: C_11  and  O_12
REMARK    7  A    between atoms: O_12  and  C_13
REMARK    8  A    between atoms: C_16  and  C_17
REMARK                            x       y       z     vdW  Elec       q    Type
REMARK                         _______ _______ _______ _____ _____    ______ ____
ROOT
ATOM      1  C   UNL     1      36.256  -0.202  15.348  0.00  0.00    +0.000 A 
ATOM      2  C   UNL     1      35.751   1.094  15.479  0.00  0.00    +0.000 A 
ATOM      3  C   UNL     1      34.859   1.565  16.568  0.00  0.00    +0.000 C 
ATOM      4  N   UNL     1      36.202   1.833  14.469  0.00  0.00    +0.000 N 
ATOM      5  C   UNL     1      36.981   1.082  13.678  0.00  0.00    +0.000 A 
ATOM      6  C   UNL     1      37.661   1.405  12.527  0.00  0.00    +0.000 A 
ATOM      7  C   UNL     1      38.421   0.435  11.866  0.00  0.00    +0.000 A 
ATOM      8  C   UNL     1      38.473  -0.839  12.390  0.00  0.00    +0.000 A 
ATOM      9  O   UNL     1      39.216  -1.820  11.761  0.00  0.00    +0.000 OA
ATOM     10  C   UNL     1      37.793  -1.161  13.541  0.00  0.00    +0.000 A 
ATOM     11  C   UNL     1      37.035  -0.197  14.202  0.00  0.00    +0.000 A 
ENDROOT
BRANCH   1  12
ATOM     12  C   UNL     1      36.032  -1.347  16.219  0.00  0.00    +0.000 C 
ATOM     13  O   UNL     1      34.922  -1.972  16.183  0.00  0.00    +0.000 OA
BRANCH  12  14
ATOM     14  O   UNL     1      37.026  -1.759  17.088  0.00  0.00    +0.000 OA
BRANCH  14  16
ATOM     15  C   UNL     1      36.217  -0.689  19.107  0.00  0.00    +0.000 C 
ATOM     16  C   UNL     1      36.701  -1.965  18.452  0.00  0.00    +0.000 C 
ENDBRANCH  14  16
ENDBRANCH  12  14
ENDBRANCH   1  12
BRANCH   4  17
ATOM     17  C   UNL     1      35.903   3.223  14.257  0.00  0.00    +0.000 C 
BRANCH  17  18
ATOM     18  C   UNL     1      37.171   3.994  14.634  0.00  0.00    +0.000 C 
BRANCH  18  19
ATOM     19  O   UNL     1      37.580   3.661  15.945  0.00  0.00    +0.000 OA
BRANCH  19  20
ATOM     20  C   UNL     1      38.437   4.460  16.686  0.00  0.00    +0.000 A 
ATOM     21  C   UNL     1      39.475   5.150  16.070  0.00  0.00    +0.000 A 
ATOM     22  C   UNL     1      40.325   5.945  16.809  0.00  0.00    +0.000 A 
ATOM     23  C   UNL     1      40.197   6.100  18.175  0.00  0.00    +0.000 A 
ATOM     24  C   UNL     1      39.165   5.415  18.799  0.00  0.00    +0.000 A 
ATOM     25  C   UNL     1      38.320   4.624  18.050  0.00  0.00    +0.000 A 
BRANCH  23  26
ATOM     26  C   UNL     1      41.103   6.943  18.943  0.00  0.00    +0.000 A 
ATOM     27  C   UNL     1      41.192   8.288  18.680  0.00  0.00    +0.000 A 
ATOM     28  C   UNL     1      42.036   9.101  19.389  0.00  0.00    +0.000 A 
ATOM     29  C   UNL     1      42.813   8.572  20.382  0.00  0.00    +0.000 A 
ATOM     30  C   UNL     1      42.733   7.229  20.655  0.00  0.00    +0.000 A 
ATOM     31  C   UNL     1      41.888   6.395  19.950  0.00  0.00    +0.000 A 
ENDBRANCH  23  26
ENDBRANCH  19  20
ENDBRANCH  18  19
ENDBRANCH  17  18
ENDBRANCH   4  17
TORSDOF 8
ENDMDL
MODEL 10
REMARK VINA RESULT:      -7.1      2.102      3.915
REMARK  Name = 
REMARK  8 active torsions:
REMARK  status: ('A' for Active; 'I' for Inactive)
REMARK    1  A    between atoms: C_2  and  O_3
REMARK    2  A    between atoms: O_3  and  C_4
REMARK    3  A    between atoms: C_4  and  C_6
REMARK    4  A    between atoms: N_9  and  C_10
REMARK    5  A    between atoms: C_10  and  C_11
REMARK    6  A    between atoms: C_11  and  O_12
REMARK    7  A    between atoms: O_12  and  C_13
REMARK    8  A    between atoms: C_16  and  C_17
REMARK                            x       y       z     vdW  Elec       q    Type
REMARK                         _______ _______ _______ _____ _____    ______ ____
ROOT
ATOM      1  C   UNL     1      37.291   0.251  15.473  0.00  0.00    +0.000 A 
ATOM      2  C   UNL     1      38.363   0.396  14.588  0.00  0.00    +0.000 A 
ATOM      3  C   UNL     1      39.521  -0.525  14.481  0.00  0.00    +0.000 C 
ATOM      4  N   UNL     1      38.171   1.493  13.860  0.00  0.00    +0.000 N 
ATOM      5  C   UNL     1      37.023   2.078  14.226  0.00  0.00    +0.000 A 
ATOM      6  C   UNL     1      36.414   3.221  13.762  0.00  0.00    +0.000 A 
ATOM      7  C   UNL     1      35.197   3.639  14.309  0.00  0.00    +0.000 A 
ATOM      8  C   UNL     1      34.626   2.887  15.313  0.00  0.00    +0.000 A 
ATOM      9  O   UNL     1      33.424   3.273  15.874  0.00  0.00    +0.000 OA
ATOM     10  C   UNL     1      35.235   1.744  15.776  0.00  0.00    +0.000 A 
ATOM     11  C   UNL     1      36.447   1.325  15.234  0.00  0.00    +0.000 A 
ENDROOT
BRANCH   1  12
ATOM     12  C   UNL     1      37.072  -0.799  16.457  0.00  0.00    +0.000 C 
ATOM     13  O   UNL     1      37.772  -0.835  17.522  0.00  0.00    +0.000 OA
BRANCH  12  14
ATOM     14  O   UNL     1      36.103  -1.761  16.237  0.00  0.00    +0.000 OA
BRANCH  14  16
ATOM     15  C   UNL     1      37.060  -3.583  14.956  0.00  0.00    +0.000 C 
ATOM     16  C   UNL     1      36.076  -2.432  14.989  0.00  0.00    +0.000 C 
ENDBRANCH  14  16
ENDBRANCH  12  14
ENDBRANCH   1  12
BRANCH   4  17
ATOM     17  C   UNL     1      39.058   1.978  12.838  0.00  0.00    +0.000 C 
BRANCH  17  18
ATOM     18  C   UNL     1      39.262   3.469  13.122  0.00  0.00    +0.000 C 
BRANCH  18  19
ATOM     19  O   UNL     1      40.078   3.647  14.262  0.00  0.00    +0.000 OA
BRANCH  19  20
ATOM     20  C   UNL     1      39.736   4.502  15.299  0.00  0.00    +0.000 A 
ATOM     21  C   UNL     1      38.707   4.178  16.175  0.00  0.00    +0.000 A 
ATOM     22  C   UNL     1      38.369   5.029  17.206  0.00  0.00    +0.000 A 
ATOM     23  C   UNL     1      39.020   6.226  17.423  0.00  0.00    +0.000 A 
ATOM     24  C   UNL     1      40.048   6.559  16.554  0.00  0.00    +0.000 A 
ATOM     25  C   UNL     1      40.378   5.700  15.528  0.00  0.00    +0.000 A 
BRANCH  23  26
ATOM     26  C   UNL     1      38.652   7.117  18.517  0.00  0.00    +0.000 A 
ATOM     27  C   UNL     1      39.342   7.081  19.704  0.00  0.00    +0.000 A 
ATOM     28  C   UNL     1      39.016   7.908  20.746  0.00  0.00    +0.000 A 
ATOM     29  C   UNL     1      37.980   8.791  20.612  0.00  0.00    +0.000 A 
ATOM     30  C   UNL     1      37.283   8.836  19.431  0.00  0.00    +0.000 A 
ATOM     31  C   UNL     1      37.599   8.010  18.371  0.00  0.00    +0.000 A 
ENDBRANCH  23  26
ENDBRANCH  19  20
ENDBRANCH  18  19
ENDBRANCH  17  18
ENDBRANCH   4  17
TORSDOF 8
ENDMDL
