MODEL 1
REMARK VINA RESULT:      -7.0      0.000      0.000
REMARK  Name = 
REMARK  0 active torsions:
REMARK  status: ('A' for Active; 'I' for Inactive)
REMARK                            x       y       z     vdW  Elec       q    Type
REMARK                         _______ _______ _______ _____ _____    ______ ____
ROOT
ATOM      1  C   UNL     1      26.334  23.156  24.155  0.00  0.00    +0.000 C 
ATOM      2  C   UNL     1      27.691  23.516  24.439  0.00  0.00    +0.000 C 
ATOM      3  C   UNL     1      28.547  22.812  25.309  0.00  0.00    +0.000 C 
ATOM      4  C   UNL     1      29.107  23.289  26.518  0.00  0.00    +0.000 C 
ATOM      5  C   UNL     1      28.287  24.372  27.338  0.00  0.00    +0.000 C 
ATOM      6  C   UNL     1      27.488  23.228  28.306  0.00  0.00    +0.000 C 
ATOM      7  C   UNL     1      28.588  23.240  29.490  0.00  0.00    +0.000 C 
ATOM      8  C   UNL     1      27.946  22.152  30.399  0.00  0.00    +0.000 C 
ATOM      9  C   UNL     1      26.459  22.430  30.455  0.00  0.00    +0.000 C 
ATOM     10  O   UNL     1      25.717  21.506  30.819  0.00  0.00    +0.000 OA
ATOM     11  C   UNL     1      26.082  23.781  30.066  0.00  0.00    +0.000 C 
ATOM     12  C   UNL     1      26.557  24.315  28.958  0.00  0.00    +0.000 C 
ATOM     13  C   UNL     1      26.303  25.592  28.438  0.00  0.00    +0.000 C 
ATOM     14  C   UNL     1      26.551  25.917  27.015  0.00  0.00    +0.000 C 
ATOM     15  C   UNL     1      26.908  24.489  26.399  0.00  0.00    +0.000 C 
ATOM     16  C   UNL     1      27.787  25.019  25.079  0.00  0.00    +0.000 C 
ATOM     17  C   UNL     1      26.594  25.508  24.122  0.00  0.00    +0.000 C 
ATOM     18  C   UNL     1      27.046  25.013  22.763  0.00  0.00    +0.000 C 
ATOM     19  C   UNL     1      28.402  24.162  23.131  0.00  0.00    +0.000 C 
ATOM     20  O   UNL     1      28.008  22.990  22.226  0.00  0.00    +0.000 OA
ENDROOT
TORSDOF 0
ENDMDL
MODEL 2
REMARK VINA RESULT:      -6.7      1.788      2.982
REMARK  Name = 
REMARK  0 active torsions:
REMARK  status: ('A' for Active; 'I' for Inactive)
REMARK                            x       y       z     vdW  Elec       q    Type
REMARK                         _______ _______ _______ _____ _____    ______ ____
ROOT
ATOM      1  C   UNL     1      28.641  25.585  24.245  0.00  0.00    +0.000 C 
ATOM      2  C   UNL     1      27.890  24.374  24.094  0.00  0.00    +0.000 C 
ATOM      3  C   UNL     1      26.833  23.970  24.933  0.00  0.00    +0.000 C 
ATOM      4  C   UNL     1      26.805  22.830  25.772  0.00  0.00    +0.000 C 
ATOM      5  C   UNL     1      28.183  22.308  26.360  0.00  0.00    +0.000 C 
ATOM      6  C   UNL     1      28.064  23.210  27.794  0.00  0.00    +0.000 C 
ATOM      7  C   UNL     1      27.323  22.050  28.640  0.00  0.00    +0.000 C 
ATOM      8  C   UNL     1      27.124  22.838  29.967  0.00  0.00    +0.000 C 
ATOM      9  C   UNL     1      28.415  23.572  30.256  0.00  0.00    +0.000 C 
ATOM     10  O   UNL     1      28.369  24.523  31.050  0.00  0.00    +0.000 OA
ATOM     11  C   UNL     1      29.576  23.054  29.547  0.00  0.00    +0.000 C 
ATOM     12  C   UNL     1      29.519  22.820  28.250  0.00  0.00    +0.000 C 
ATOM     13  C   UNL     1      30.531  22.324  27.417  0.00  0.00    +0.000 C 
ATOM     14  C   UNL     1      30.485  22.495  25.948  0.00  0.00    +0.000 C 
ATOM     15  C   UNL     1      29.231  23.463  25.760  0.00  0.00    +0.000 C 
ATOM     16  C   UNL     1      28.859  23.058  24.181  0.00  0.00    +0.000 C 
ATOM     17  C   UNL     1      30.017  23.854  23.403  0.00  0.00    +0.000 C 
ATOM     18  C   UNL     1      29.275  24.421  22.211  0.00  0.00    +0.000 C 
ATOM     19  C   UNL     1      27.721  23.992  22.525  0.00  0.00    +0.000 C 
ATOM     20  O   UNL     1      27.180  25.376  22.153  0.00  0.00    +0.000 OA
ENDROOT
TORSDOF 0
ENDMDL
MODEL 3
REMARK VINA RESULT:      -6.7     19.663     21.875
REMARK  Name = 
REMARK  0 active torsions:
REMARK  status: ('A' for Active; 'I' for Inactive)
REMARK                            x       y       z     vdW  Elec       q    Type
REMARK                         _______ _______ _______ _____ _____    ______ ____
ROOT
ATOM      1  C   UNL     1      25.959   2.530  17.140  0.00  0.00    +0.000 C 
ATOM      2  C   UNL     1      25.092   3.546  16.621  0.00  0.00    +0.000 C 
ATOM      3  C   UNL     1      25.259   4.191  15.379  0.00  0.00    +0.000 C 
ATOM      4  C   UNL     1      25.526   5.565  15.167  0.00  0.00    +0.000 C 
ATOM      5  C   UNL     1      26.336   6.344  16.287  0.00  0.00    +0.000 C 
ATOM      6  C   UNL     1      27.851   6.069  15.569  0.00  0.00    +0.000 C 
ATOM      7  C   UNL     1      27.853   7.428  14.696  0.00  0.00    +0.000 C 
ATOM      8  C   UNL     1      29.202   7.211  13.953  0.00  0.00    +0.000 C 
ATOM      9  C   UNL     1      30.205   6.714  14.972  0.00  0.00    +0.000 C 
ATOM     10  O   UNL     1      31.222   6.148  14.547  0.00  0.00    +0.000 OA
ATOM     11  C   UNL     1      29.838   6.973  16.357  0.00  0.00    +0.000 C 
ATOM     12  C   UNL     1      28.628   6.679  16.794  0.00  0.00    +0.000 C 
ATOM     13  C   UNL     1      28.108   6.862  18.083  0.00  0.00    +0.000 C 
ATOM     14  C   UNL     1      26.911   6.128  18.551  0.00  0.00    +0.000 C 
ATOM     15  C   UNL     1      26.655   5.101  17.358  0.00  0.00    +0.000 C 
ATOM     16  C   UNL     1      25.025   4.839  17.622  0.00  0.00    +0.000 C 
ATOM     17  C   UNL     1      25.098   3.863  18.895  0.00  0.00    +0.000 C 
ATOM     18  C   UNL     1      24.028   2.838  18.578  0.00  0.00    +0.000 C 
ATOM     19  C   UNL     1      23.556   3.276  17.067  0.00  0.00    +0.000 C 
ATOM     20  O   UNL     1      23.566   1.831  16.558  0.00  0.00    +0.000 OA
ENDROOT
TORSDOF 0
ENDMDL
MODEL 4
REMARK VINA RESULT:      -6.6     20.683     22.690
REMARK  Name = 
REMARK  0 active torsions:
REMARK  status: ('A' for Active; 'I' for Inactive)
REMARK                            x       y       z     vdW  Elec       q    Type
REMARK                         _______ _______ _______ _____ _____    ______ ____
ROOT
ATOM      1  C   UNL     1      25.683   6.795  17.098  0.00  0.00    +0.000 C 
ATOM      2  C   UNL     1      26.439   5.752  16.471  0.00  0.00    +0.000 C 
ATOM      3  C   UNL     1      26.045   5.057  15.310  0.00  0.00    +0.000 C 
ATOM      4  C   UNL     1      25.743   3.678  15.209  0.00  0.00    +0.000 C 
ATOM      5  C   UNL     1      25.155   2.951  16.490  0.00  0.00    +0.000 C 
ATOM      6  C   UNL     1      23.533   3.209  16.055  0.00  0.00    +0.000 C 
ATOM      7  C   UNL     1      23.370   1.814  15.254  0.00  0.00    +0.000 C 
ATOM      8  C   UNL     1      21.906   2.011  14.766  0.00  0.00    +0.000 C 
ATOM      9  C   UNL     1      21.110   2.557  15.931  0.00  0.00    +0.000 C 
ATOM     10  O   UNL     1      20.032   3.113  15.679  0.00  0.00    +0.000 OA
ATOM     11  C   UNL     1      21.728   2.353  17.234  0.00  0.00    +0.000 C 
ATOM     12  C   UNL     1      22.997   2.655  17.426  0.00  0.00    +0.000 C 
ATOM     13  C   UNL     1      23.747   2.522  18.604  0.00  0.00    +0.000 C 
ATOM     14  C   UNL     1      25.010   3.265  18.811  0.00  0.00    +0.000 C 
ATOM     15  C   UNL     1      25.040   4.240  17.549  0.00  0.00    +0.000 C 
ATOM     16  C   UNL     1      26.691   4.501  17.495  0.00  0.00    +0.000 C 
ATOM     17  C   UNL     1      26.855   5.529  18.718  0.00  0.00    +0.000 C 
ATOM     18  C   UNL     1      27.848   6.532  18.166  0.00  0.00    +0.000 C 
ATOM     19  C   UNL     1      28.032   6.028  16.613  0.00  0.00    +0.000 C 
ATOM     20  O   UNL     1      27.927   7.451  16.055  0.00  0.00    +0.000 OA
ENDROOT
TORSDOF 0
ENDMDL
MODEL 5
REMARK VINA RESULT:      -6.6      2.847      6.107
REMARK  Name = 
REMARK  0 active torsions:
REMARK  status: ('A' for Active; 'I' for Inactive)
REMARK                            x       y       z     vdW  Elec       q    Type
REMARK                         _______ _______ _______ _____ _____    ______ ____
ROOT
ATOM      1  C   UNL     1      30.511  24.598  27.788  0.00  0.00    +0.000 C 
ATOM      2  C   UNL     1      30.952  23.472  27.019  0.00  0.00    +0.000 C 
ATOM      3  C   UNL     1      31.415  23.534  25.689  0.00  0.00    +0.000 C 
ATOM      4  C   UNL     1      30.813  22.941  24.554  0.00  0.00    +0.000 C 
ATOM      5  C   UNL     1      29.238  22.754  24.563  0.00  0.00    +0.000 C 
ATOM      6  C   UNL     1      28.924  24.237  23.797  0.00  0.00    +0.000 C 
ATOM      7  C   UNL     1      28.935  23.636  22.297  0.00  0.00    +0.000 C 
ATOM      8  C   UNL     1      28.713  24.969  21.525  0.00  0.00    +0.000 C 
ATOM      9  C   UNL     1      27.632  25.739  22.252  0.00  0.00    +0.000 C 
ATOM     10  O   UNL     1      27.545  26.955  22.029  0.00  0.00    +0.000 OA
ATOM     11  C   UNL     1      26.810  24.932  23.142  0.00  0.00    +0.000 C 
ATOM     12  C   UNL     1      27.370  24.101  24.000  0.00  0.00    +0.000 C 
ATOM     13  C   UNL     1      26.736  23.254  24.920  0.00  0.00    +0.000 C 
ATOM     14  C   UNL     1      27.455  22.696  26.087  0.00  0.00    +0.000 C 
ATOM     15  C   UNL     1      28.851  23.466  26.025  0.00  0.00    +0.000 C 
ATOM     16  C   UNL     1      29.768  22.352  26.870  0.00  0.00    +0.000 C 
ATOM     17  C   UNL     1      29.281  22.662  28.369  0.00  0.00    +0.000 C 
ATOM     18  C   UNL     1      30.576  22.591  29.152  0.00  0.00    +0.000 C 
ATOM     19  C   UNL     1      31.694  22.382  27.966  0.00  0.00    +0.000 C 
ATOM     20  O   UNL     1      32.645  23.420  28.571  0.00  0.00    +0.000 OA
ENDROOT
TORSDOF 0
ENDMDL
MODEL 6
REMARK VINA RESULT:      -6.6      2.076      3.628
REMARK  Name = 
REMARK  0 active torsions:
REMARK  status: ('A' for Active; 'I' for Inactive)
REMARK                            x       y       z     vdW  Elec       q    Type
REMARK                         _______ _______ _______ _____ _____    ______ ____
ROOT
ATOM      1  C   UNL     1      29.786  24.652  25.558  0.00  0.00    +0.000 C 
ATOM      2  C   UNL     1      28.691  24.047  24.860  0.00  0.00    +0.000 C 
ATOM      3  C   UNL     1      27.478  24.693  24.548  0.00  0.00    +0.000 C 
ATOM      4  C   UNL     1      26.191  24.358  25.032  0.00  0.00    +0.000 C 
ATOM      5  C   UNL     1      26.088  23.696  26.470  0.00  0.00    +0.000 C 
ATOM      6  C   UNL     1      25.870  25.174  27.280  0.00  0.00    +0.000 C 
ATOM      7  C   UNL     1      24.256  25.146  27.210  0.00  0.00    +0.000 C 
ATOM      8  C   UNL     1      23.983  26.520  27.887  0.00  0.00    +0.000 C 
ATOM      9  C   UNL     1      24.899  26.622  29.088  0.00  0.00    +0.000 C 
ATOM     10  O   UNL     1      25.105  27.751  29.557  0.00  0.00    +0.000 OA
ATOM     11  C   UNL     1      25.432  25.350  29.551  0.00  0.00    +0.000 C 
ATOM     12  C   UNL     1      25.968  24.499  28.698  0.00  0.00    +0.000 C 
ATOM     13  C   UNL     1      26.522  23.240  28.968  0.00  0.00    +0.000 C 
ATOM     14  C   UNL     1      27.446  22.576  28.021  0.00  0.00    +0.000 C 
ATOM     15  C   UNL     1      27.694  23.718  26.934  0.00  0.00    +0.000 C 
ATOM     16  C   UNL     1      28.131  22.731  25.657  0.00  0.00    +0.000 C 
ATOM     17  C   UNL     1      29.630  22.352  26.092  0.00  0.00    +0.000 C 
ATOM     18  C   UNL     1      30.378  22.431  24.777  0.00  0.00    +0.000 C 
ATOM     19  C   UNL     1      29.227  22.992  23.749  0.00  0.00    +0.000 C 
ATOM     20  O   UNL     1      30.179  24.009  23.111  0.00  0.00    +0.000 OA
ENDROOT
TORSDOF 0
ENDMDL
MODEL 7
REMARK VINA RESULT:      -6.6      1.491      5.771
REMARK  Name = 
REMARK  0 active torsions:
REMARK  status: ('A' for Active; 'I' for Inactive)
REMARK                            x       y       z     vdW  Elec       q    Type
REMARK                         _______ _______ _______ _____ _____    ______ ____
ROOT
ATOM      1  C   UNL     1      28.200  24.605  29.123  0.00  0.00    +0.000 C 
ATOM      2  C   UNL     1      27.764  23.333  28.630  0.00  0.00    +0.000 C 
ATOM      3  C   UNL     1      28.359  22.636  27.559  0.00  0.00    +0.000 C 
ATOM      4  C   UNL     1      27.760  22.321  26.316  0.00  0.00    +0.000 C 
ATOM      5  C   UNL     1      26.646  23.304  25.760  0.00  0.00    +0.000 C 
ATOM      6  C   UNL     1      27.737  24.240  24.854  0.00  0.00    +0.000 C 
ATOM      7  C   UNL     1      27.581  23.379  23.496  0.00  0.00    +0.000 C 
ATOM      8  C   UNL     1      28.614  24.151  22.626  0.00  0.00    +0.000 C 
ATOM      9  C   UNL     1      28.393  25.629  22.866  0.00  0.00    +0.000 C 
ATOM     10  O   UNL     1      29.312  26.403  22.562  0.00  0.00    +0.000 OA
ATOM     11  C   UNL     1      27.095  25.961  23.436  0.00  0.00    +0.000 C 
ATOM     12  C   UNL     1      26.637  25.302  24.483  0.00  0.00    +0.000 C 
ATOM     13  C   UNL     1      25.419  25.486  25.153  0.00  0.00    +0.000 C 
ATOM     14  C   UNL     1      25.204  24.987  26.530  0.00  0.00    +0.000 C 
ATOM     15  C   UNL     1      26.663  24.488  26.940  0.00  0.00    +0.000 C 
ATOM     16  C   UNL     1      26.211  23.393  28.120  0.00  0.00    +0.000 C 
ATOM     17  C   UNL     1      25.851  24.400  29.318  0.00  0.00    +0.000 C 
ATOM     18  C   UNL     1      26.439  23.693  30.522  0.00  0.00    +0.000 C 
ATOM     19  C   UNL     1      27.201  22.408  29.839  0.00  0.00    +0.000 C 
ATOM     20  O   UNL     1      28.460  22.600  30.692  0.00  0.00    +0.000 OA
ENDROOT
TORSDOF 0
ENDMDL
MODEL 8
REMARK VINA RESULT:      -6.3      2.106      5.378
REMARK  Name = 
REMARK  0 active torsions:
REMARK  status: ('A' for Active; 'I' for Inactive)
REMARK                            x       y       z     vdW  Elec       q    Type
REMARK                         _______ _______ _______ _____ _____    ______ ____
ROOT
ATOM      1  C   UNL     1      26.450  26.707  27.884  0.00  0.00    +0.000 C 
ATOM      2  C   UNL     1      26.511  25.499  28.652  0.00  0.00    +0.000 C 
ATOM      3  C   UNL     1      27.693  24.793  28.952  0.00  0.00    +0.000 C 
ATOM      4  C   UNL     1      28.030  23.486  28.529  0.00  0.00    +0.000 C 
ATOM      5  C   UNL     1      27.445  22.981  27.144  0.00  0.00    +0.000 C 
ATOM      6  C   UNL     1      28.792  23.484  26.240  0.00  0.00    +0.000 C 
ATOM      7  C   UNL     1      29.584  22.081  26.357  0.00  0.00    +0.000 C 
ATOM      8  C   UNL     1      30.876  22.493  25.595  0.00  0.00    +0.000 C 
ATOM      9  C   UNL     1      30.449  23.264  24.364  0.00  0.00    +0.000 C 
ATOM     10  O   UNL     1      31.297  23.979  23.813  0.00  0.00    +0.000 OA
ATOM     11  C   UNL     1      29.061  23.060  23.975  0.00  0.00    +0.000 C 
ATOM     12  C   UNL     1      28.096  23.148  24.870  0.00  0.00    +0.000 C 
ATOM     13  C   UNL     1      26.718  22.980  24.672  0.00  0.00    +0.000 C 
ATOM     14  C   UNL     1      25.724  23.502  25.636  0.00  0.00    +0.000 C 
ATOM     15  C   UNL     1      26.634  24.351  26.634  0.00  0.00    +0.000 C 
ATOM     16  C   UNL     1      25.621  24.311  27.964  0.00  0.00    +0.000 C 
ATOM     17  C   UNL     1      24.520  25.390  27.514  0.00  0.00    +0.000 C 
ATOM     18  C   UNL     1      24.271  26.153  28.799  0.00  0.00    +0.000 C 
ATOM     19  C   UNL     1      25.382  25.500  29.818  0.00  0.00    +0.000 C 
ATOM     20  O   UNL     1      25.810  26.869  30.357  0.00  0.00    +0.000 OA
ENDROOT
TORSDOF 0
ENDMDL
MODEL 9
REMARK VINA RESULT:      -6.2     32.442     34.228
REMARK  Name = 
REMARK  0 active torsions:
REMARK  status: ('A' for Active; 'I' for Inactive)
REMARK                            x       y       z     vdW  Elec       q    Type
REMARK                         _______ _______ _______ _____ _____    ______ ____
ROOT
ATOM      1  C   UNL     1      20.155  -9.957  29.958  0.00  0.00    +0.000 C 
ATOM      2  C   UNL     1      19.609 -10.770  28.912  0.00  0.00    +0.000 C 
ATOM      3  C   UNL     1      20.313 -11.190  27.766  0.00  0.00    +0.000 C 
ATOM      4  C   UNL     1      20.031 -10.842  26.424  0.00  0.00    +0.000 C 
ATOM      5  C   UNL     1      19.357  -9.432  26.149  0.00  0.00    +0.000 C 
ATOM      6  C   UNL     1      20.833  -8.624  25.916  0.00  0.00    +0.000 C 
ATOM      7  C   UNL     1      20.880  -8.854  24.318  0.00  0.00    +0.000 C 
ATOM      8  C   UNL     1      22.256  -8.185  24.039  0.00  0.00    +0.000 C 
ATOM      9  C   UNL     1      22.302  -6.898  24.833  0.00  0.00    +0.000 C 
ATOM     10  O   UNL     1      23.415  -6.392  25.041  0.00  0.00    +0.000 OA
ATOM     11  C   UNL     1      21.001  -6.405  25.261  0.00  0.00    +0.000 C 
ATOM     12  C   UNL     1      20.137  -7.215  25.842  0.00  0.00    +0.000 C 
ATOM     13  C   UNL     1      18.851  -6.912  26.311  0.00  0.00    +0.000 C 
ATOM     14  C   UNL     1      18.158  -7.773  27.295  0.00  0.00    +0.000 C 
ATOM     15  C   UNL     1      19.300  -8.811  27.700  0.00  0.00    +0.000 C 
ATOM     16  C   UNL     1      18.311 -10.055  28.219  0.00  0.00    +0.000 C 
ATOM     17  C   UNL     1      17.858  -9.479  29.648  0.00  0.00    +0.000 C 
ATOM     18  C   UNL     1      17.919 -10.712  30.527  0.00  0.00    +0.000 C 
ATOM     19  C   UNL     1      18.545 -11.840  29.510  0.00  0.00    +0.000 C 
ATOM     20  O   UNL     1      19.525 -12.362  30.565  0.00  0.00    +0.000 OA
ENDROOT
TORSDOF 0
ENDMDL
MODEL 10
REMARK VINA RESULT:      -6.2      3.108      5.512
REMARK  Name = 
REMARK  0 active torsions:
REMARK  status: ('A' for Active; 'I' for Inactive)
REMARK                            x       y       z     vdW  Elec       q    Type
REMARK                         _______ _______ _______ _____ _____    ______ ____
ROOT
ATOM      1  C   UNL     1      31.436  25.725  27.173  0.00  0.00    +0.000 C 
ATOM      2  C   UNL     1      31.873  24.943  26.055  0.00  0.00    +0.000 C 
ATOM      3  C   UNL     1      31.357  25.045  24.748  0.00  0.00    +0.000 C 
ATOM      4  C   UNL     1      30.656  24.044  24.034  0.00  0.00    +0.000 C 
ATOM      5  C   UNL     1      29.798  23.001  24.866  0.00  0.00    +0.000 C 
ATOM      6  C   UNL     1      28.361  23.902  24.766  0.00  0.00    +0.000 C 
ATOM      7  C   UNL     1      27.829  23.185  23.419  0.00  0.00    +0.000 C 
ATOM      8  C   UNL     1      26.527  24.014  23.228  0.00  0.00    +0.000 C 
ATOM      9  C   UNL     1      25.867  24.139  24.584  0.00  0.00    +0.000 C 
ATOM     10  O   UNL     1      25.027  25.038  24.732  0.00  0.00    +0.000 OA
ATOM     11  C   UNL     1      26.313  23.161  25.566  0.00  0.00    +0.000 C 
ATOM     12  C   UNL     1      27.601  22.944  25.754  0.00  0.00    +0.000 C 
ATOM     13  C   UNL     1      28.202  22.046  26.648  0.00  0.00    +0.000 C 
ATOM     14  C   UNL     1      29.616  22.186  27.059  0.00  0.00    +0.000 C 
ATOM     15  C   UNL     1      30.018  23.589  26.416  0.00  0.00    +0.000 C 
ATOM     16  C   UNL     1      31.670  23.343  26.332  0.00  0.00    +0.000 C 
ATOM     17  C   UNL     1      32.066  23.554  27.874  0.00  0.00    +0.000 C 
ATOM     18  C   UNL     1      33.349  24.355  27.771  0.00  0.00    +0.000 C 
ATOM     19  C   UNL     1      33.463  24.632  26.156  0.00  0.00    +0.000 C 
ATOM     20  O   UNL     1      33.831  26.106  26.354  0.00  0.00    +0.000 OA
ENDROOT
TORSDOF 0
ENDMDL
