MODEL 1
REMARK VINA RESULT:      -7.4      0.000      0.000
REMARK  Name = 
REMARK  3 active torsions:
REMARK  status: ('A' for Active; 'I' for Inactive)
REMARK    1  A    between atoms: C_2  and  C_3
REMARK    2  A    between atoms: C_4  and  C_5
REMARK    3  A    between atoms: C_8  and  O_9
REMARK                            x       y       z     vdW  Elec       q    Type
REMARK                         _______ _______ _______ _____ _____    ______ ____
ROOT
ATOM      1  C   UNL     1      17.102  10.832  34.902  0.00  0.00    +0.000 A 
ATOM      2  C   UNL     1      16.741  11.359  36.132  0.00  0.00    +0.000 A 
ATOM      3  C   UNL     1      15.654  12.233  36.118  0.00  0.00    +0.000 A 
ATOM      4  O   UNL     1      15.275  12.746  37.201  0.00  0.00    +0.000 OA
ATOM      5  O   UNL     1      15.009  12.540  35.018  0.00  0.00    +0.000 OA
ATOM      6  C   UNL     1      15.322  12.060  33.835  0.00  0.00    +0.000 A 
ATOM      7  C   UNL     1      14.614  12.410  32.694  0.00  0.00    +0.000 A 
ATOM      8  C   UNL     1      14.964  11.891  31.465  0.00  0.00    +0.000 A 
ATOM      9  O   UNL     1      14.258  12.234  30.296  0.00  0.00    +0.000 OA
ATOM     10  C   UNL     1      16.035  11.020  31.424  0.00  0.00    +0.000 A 
ATOM     11  C   UNL     1      16.758  10.654  32.542  0.00  0.00    +0.000 A 
ATOM     12  C   UNL     1      16.389  11.190  33.778  0.00  0.00    +0.000 A 
ENDROOT
BRANCH   2  13
ATOM     13  C   UNL     1      17.463  11.008  37.334  0.00  0.00    +0.000 A 
ATOM     14  C   UNL     1      18.681  11.595  37.607  0.00  0.00    +0.000 A 
ATOM     15  C   UNL     1      19.433  11.325  38.715  0.00  0.00    +0.000 A 
ATOM     16  C   UNL     1      18.940  10.395  39.632  0.00  0.00    +0.000 A 
ATOM     17  C   UNL     1      17.728   9.796  39.382  0.00  0.00    +0.000 A 
ATOM     18  C   UNL     1      16.991  10.090  38.253  0.00  0.00    +0.000 A 
BRANCH  16  19
ATOM     19  O   UNL     1      19.699  10.116  40.761  0.00  0.00    +0.000 OA
ATOM     20  C   UNL     1      19.087   9.672  41.955  0.00  0.00    +0.000 C 
ENDBRANCH  16  19
ENDBRANCH   2  13
BRANCH   1  22
ATOM     21  C   UNL     1      17.772   8.496  35.221  0.00  0.00    +0.000 C 
ATOM     22  C   UNL     1      18.258   9.883  34.816  0.00  0.00    +0.000 C 
ENDBRANCH   1  22
TORSDOF 3
ENDMDL
MODEL 2
REMARK VINA RESULT:      -7.3      2.966      4.511
REMARK  Name = 
REMARK  3 active torsions:
REMARK  status: ('A' for Active; 'I' for Inactive)
REMARK    1  A    between atoms: C_2  and  C_3
REMARK    2  A    between atoms: C_4  and  C_5
REMARK    3  A    between atoms: C_8  and  O_9
REMARK                            x       y       z     vdW  Elec       q    Type
REMARK                         _______ _______ _______ _____ _____    ______ ____
ROOT
ATOM      1  C   UNL     1      16.473  11.524  37.079  0.00  0.00    +0.000 A 
ATOM      2  C   UNL     1      17.305  10.876  37.977  0.00  0.00    +0.000 A 
ATOM      3  C   UNL     1      16.664  10.236  39.039  0.00  0.00    +0.000 A 
ATOM      4  O   UNL     1      17.361   9.629  39.891  0.00  0.00    +0.000 OA
ATOM      5  O   UNL     1      15.361  10.242  39.183  0.00  0.00    +0.000 OA
ATOM      6  C   UNL     1      14.541  10.846  38.351  0.00  0.00    +0.000 A 
ATOM      7  C   UNL     1      13.165  10.829  38.539  0.00  0.00    +0.000 A 
ATOM      8  C   UNL     1      12.329  11.471  37.651  0.00  0.00    +0.000 A 
ATOM      9  O   UNL     1      10.932  11.465  37.823  0.00  0.00    +0.000 OA
ATOM     10  C   UNL     1      12.914  12.119  36.581  0.00  0.00    +0.000 A 
ATOM     11  C   UNL     1      14.278  12.154  36.368  0.00  0.00    +0.000 A 
ATOM     12  C   UNL     1      15.110  11.499  37.280  0.00  0.00    +0.000 A 
ENDROOT
BRANCH   2  13
ATOM     13  C   UNL     1      18.740  10.879  37.802  0.00  0.00    +0.000 A 
ATOM     14  C   UNL     1      19.498  11.912  38.314  0.00  0.00    +0.000 A 
ATOM     15  C   UNL     1      20.856  11.999  38.196  0.00  0.00    +0.000 A 
ATOM     16  C   UNL     1      21.522  10.979  37.514  0.00  0.00    +0.000 A 
ATOM     17  C   UNL     1      20.788   9.940  36.994  0.00  0.00    +0.000 A 
ATOM     18  C   UNL     1      19.417   9.879  37.130  0.00  0.00    +0.000 A 
BRANCH  16  19
ATOM     19  O   UNL     1      22.903  11.061  37.391  0.00  0.00    +0.000 OA
ATOM     20  C   UNL     1      23.581  10.378  36.356  0.00  0.00    +0.000 C 
ENDBRANCH  16  19
ENDBRANCH   2  13
BRANCH   1  22
ATOM     21  C   UNL     1      17.037  11.303  34.704  0.00  0.00    +0.000 C 
ATOM     22  C   UNL     1      17.070  12.240  35.905  0.00  0.00    +0.000 C 
ENDBRANCH   1  22
TORSDOF 3
ENDMDL
MODEL 3
REMARK VINA RESULT:      -7.2      1.524      2.413
REMARK  Name = 
REMARK  3 active torsions:
REMARK  status: ('A' for Active; 'I' for Inactive)
REMARK    1  A    between atoms: C_2  and  C_3
REMARK    2  A    between atoms: C_4  and  C_5
REMARK    3  A    between atoms: C_8  and  O_9
REMARK                            x       y       z     vdW  Elec       q    Type
REMARK                         _______ _______ _______ _____ _____    ______ ____
ROOT
ATOM      1  C   UNL     1      16.488  11.572  35.817  0.00  0.00    +0.000 A 
ATOM      2  C   UNL     1      17.491  10.664  36.116  0.00  0.00    +0.000 A 
ATOM      3  C   UNL     1      17.935   9.884  35.048  0.00  0.00    +0.000 A 
ATOM      4  O   UNL     1      18.844   9.040  35.250  0.00  0.00    +0.000 OA
ATOM      5  O   UNL     1      17.441   9.997  33.838  0.00  0.00    +0.000 OA
ATOM      6  C   UNL     1      16.490  10.847  33.518  0.00  0.00    +0.000 A 
ATOM      7  C   UNL     1      15.995  10.936  32.225  0.00  0.00    +0.000 A 
ATOM      8  C   UNL     1      14.997  11.837  31.918  0.00  0.00    +0.000 A 
ATOM      9  O   UNL     1      14.481  11.943  30.612  0.00  0.00    +0.000 OA
ATOM     10  C   UNL     1      14.523  12.634  32.941  0.00  0.00    +0.000 A 
ATOM     11  C   UNL     1      14.995  12.568  34.236  0.00  0.00    +0.000 A 
ATOM     12  C   UNL     1      16.006  11.648  34.529  0.00  0.00    +0.000 A 
ENDROOT
BRANCH   2  13
ATOM     13  C   UNL     1      18.024  10.554  37.455  0.00  0.00    +0.000 A 
ATOM     14  C   UNL     1      19.115  11.310  37.830  0.00  0.00    +0.000 A 
ATOM     15  C   UNL     1      19.687  11.271  39.070  0.00  0.00    +0.000 A 
ATOM     16  C   UNL     1      19.134  10.411  40.020  0.00  0.00    +0.000 A 
ATOM     17  C   UNL     1      18.046   9.647  39.670  0.00  0.00    +0.000 A 
ATOM     18  C   UNL     1      17.491   9.709  38.409  0.00  0.00    +0.000 A 
BRANCH  16  19
ATOM     19  O   UNL     1      19.710  10.367  41.284  0.00  0.00    +0.000 OA
ATOM     20  C   UNL     1      19.125   9.607  42.321  0.00  0.00    +0.000 C 
ENDBRANCH  16  19
ENDBRANCH   2  13
BRANCH   1  22
ATOM     21  C   UNL     1      14.716  11.784  37.498  0.00  0.00    +0.000 C 
ATOM     22  C   UNL     1      15.947  12.456  36.901  0.00  0.00    +0.000 C 
ENDBRANCH   1  22
TORSDOF 3
ENDMDL
MODEL 4
REMARK VINA RESULT:      -6.8     18.272     20.362
REMARK  Name = 
REMARK  3 active torsions:
REMARK  status: ('A' for Active; 'I' for Inactive)
REMARK    1  A    between atoms: C_2  and  C_3
REMARK    2  A    between atoms: C_4  and  C_5
REMARK    3  A    between atoms: C_8  and  O_9
REMARK                            x       y       z     vdW  Elec       q    Type
REMARK                         _______ _______ _______ _____ _____    ______ ____
ROOT
ATOM      1  C   UNL     1      33.533   1.266  34.535  0.00  0.00    +0.000 A 
ATOM      2  C   UNL     1      33.665   0.351  35.567  0.00  0.00    +0.000 A 
ATOM      3  C   UNL     1      33.964   0.892  36.818  0.00  0.00    +0.000 A 
ATOM      4  O   UNL     1      34.098   0.116  37.798  0.00  0.00    +0.000 OA
ATOM      5  O   UNL     1      34.111   2.180  37.012  0.00  0.00    +0.000 OA
ATOM      6  C   UNL     1      33.991   3.077  36.058  0.00  0.00    +0.000 A 
ATOM      7  C   UNL     1      34.154   4.434  36.306  0.00  0.00    +0.000 A 
ATOM      8  C   UNL     1      34.024   5.352  35.286  0.00  0.00    +0.000 A 
ATOM      9  O   UNL     1      34.184   6.732  35.516  0.00  0.00    +0.000 OA
ATOM     10  C   UNL     1      33.727   4.867  34.027  0.00  0.00    +0.000 A 
ATOM     11  C   UNL     1      33.561   3.525  33.750  0.00  0.00    +0.000 A 
ATOM     12  C   UNL     1      33.697   2.609  34.797  0.00  0.00    +0.000 A 
ENDROOT
BRANCH   2  13
ATOM     13  C   UNL     1      33.499  -1.066  35.334  0.00  0.00    +0.000 A 
ATOM     14  C   UNL     1      32.235  -1.617  35.289  0.00  0.00    +0.000 A 
ATOM     15  C   UNL     1      31.982  -2.942  35.077  0.00  0.00    +0.000 A 
ATOM     16  C   UNL     1      33.071  -3.797  34.894  0.00  0.00    +0.000 A 
ATOM     17  C   UNL     1      34.340  -3.272  34.934  0.00  0.00    +0.000 A 
ATOM     18  C   UNL     1      34.564  -1.927  35.151  0.00  0.00    +0.000 A 
BRANCH  16  19
ATOM     19  O   UNL     1      32.820  -5.146  34.676  0.00  0.00    +0.000 OA
ATOM     20  C   UNL     1      31.833  -5.560  33.753  0.00  0.00    +0.000 C 
ENDBRANCH  16  19
ENDBRANCH   2  13
BRANCH   1  22
ATOM     21  C   UNL     1      34.521   0.499  32.427  0.00  0.00    +0.000 C 
ATOM     22  C   UNL     1      33.211   0.779  33.154  0.00  0.00    +0.000 C 
ENDBRANCH   1  22
TORSDOF 3
ENDMDL
MODEL 5
REMARK VINA RESULT:      -6.8     19.051     21.136
REMARK  Name = 
REMARK  3 active torsions:
REMARK  status: ('A' for Active; 'I' for Inactive)
REMARK    1  A    between atoms: C_2  and  C_3
REMARK    2  A    between atoms: C_4  and  C_5
REMARK    3  A    between atoms: C_8  and  O_9
REMARK                            x       y       z     vdW  Elec       q    Type
REMARK                         _______ _______ _______ _____ _____    ______ ____
ROOT
ATOM      1  C   UNL     1      27.335  24.249  25.915  0.00  0.00    +0.000 A 
ATOM      2  C   UNL     1      28.375  23.674  25.203  0.00  0.00    +0.000 A 
ATOM      3  C   UNL     1      29.073  22.663  25.866  0.00  0.00    +0.000 A 
ATOM      4  O   UNL     1      30.028  22.099  25.276  0.00  0.00    +0.000 OA
ATOM      5  O   UNL     1      28.769  22.278  27.082  0.00  0.00    +0.000 OA
ATOM      6  C   UNL     1      27.790  22.800  27.786  0.00  0.00    +0.000 A 
ATOM      7  C   UNL     1      27.501  22.363  29.072  0.00  0.00    +0.000 A 
ATOM      8  C   UNL     1      26.468  22.929  29.788  0.00  0.00    +0.000 A 
ATOM      9  O   UNL     1      26.158  22.500  31.093  0.00  0.00    +0.000 OA
ATOM     10  C   UNL     1      25.745  23.934  29.176  0.00  0.00    +0.000 A 
ATOM     11  C   UNL     1      26.010  24.390  27.900  0.00  0.00    +0.000 A 
ATOM     12  C   UNL     1      27.061  23.805  27.190  0.00  0.00    +0.000 A 
ENDROOT
BRANCH   2  13
ATOM     13  C   UNL     1      28.695  24.111  23.863  0.00  0.00    +0.000 A 
ATOM     14  C   UNL     1      29.497  25.216  23.668  0.00  0.00    +0.000 A 
ATOM     15  C   UNL     1      29.850  25.702  22.441  0.00  0.00    +0.000 A 
ATOM     16  C   UNL     1      29.368  25.040  21.310  0.00  0.00    +0.000 A 
ATOM     17  C   UNL     1      28.567  23.937  21.478  0.00  0.00    +0.000 A 
ATOM     18  C   UNL     1      28.228  23.469  22.731  0.00  0.00    +0.000 A 
BRANCH  16  19
ATOM     19  O   UNL     1      29.724  25.529  20.059  0.00  0.00    +0.000 OA
ATOM     20  C   UNL     1      29.806  26.919  19.820  0.00  0.00    +0.000 C 
ENDBRANCH  16  19
ENDBRANCH   2  13
BRANCH   1  22
ATOM     21  C   UNL     1      25.320  24.715  24.599  0.00  0.00    +0.000 C 
ATOM     22  C   UNL     1      26.527  25.344  25.285  0.00  0.00    +0.000 C 
ENDBRANCH   1  22
TORSDOF 3
ENDMDL
MODEL 6
REMARK VINA RESULT:      -6.7     18.097     19.681
REMARK  Name = 
REMARK  3 active torsions:
REMARK  status: ('A' for Active; 'I' for Inactive)
REMARK    1  A    between atoms: C_2  and  C_3
REMARK    2  A    between atoms: C_4  and  C_5
REMARK    3  A    between atoms: C_8  and  O_9
REMARK                            x       y       z     vdW  Elec       q    Type
REMARK                         _______ _______ _______ _____ _____    ______ ____
ROOT
ATOM      1  C   UNL     1      33.975   2.347  36.085  0.00  0.00    +0.000 A 
ATOM      2  C   UNL     1      34.033   3.248  35.035  0.00  0.00    +0.000 A 
ATOM      3  C   UNL     1      33.667   2.743  33.786  0.00  0.00    +0.000 A 
ATOM      4  O   UNL     1      33.698   3.509  32.790  0.00  0.00    +0.000 OA
ATOM      5  O   UNL     1      33.292   1.499  33.611  0.00  0.00    +0.000 OA
ATOM      6  C   UNL     1      33.224   0.617  34.583  0.00  0.00    +0.000 A 
ATOM      7  C   UNL     1      32.821  -0.692  34.356  0.00  0.00    +0.000 A 
ATOM      8  C   UNL     1      32.760  -1.596  35.395  0.00  0.00    +0.000 A 
ATOM      9  O   UNL     1      32.353  -2.928  35.185  0.00  0.00    +0.000 OA
ATOM     10  C   UNL     1      33.111  -1.146  36.652  0.00  0.00    +0.000 A 
ATOM     11  C   UNL     1      33.517   0.149  36.909  0.00  0.00    +0.000 A 
ATOM     12  C   UNL     1      33.573   1.051  35.843  0.00  0.00    +0.000 A 
ENDROOT
BRANCH   2  13
ATOM     13  C   UNL     1      34.448   4.616  35.247  0.00  0.00    +0.000 A 
ATOM     14  C   UNL     1      35.780   4.960  35.139  0.00  0.00    +0.000 A 
ATOM     15  C   UNL     1      36.264   6.224  35.324  0.00  0.00    +0.000 A 
ATOM     16  C   UNL     1      35.355   7.235  35.642  0.00  0.00    +0.000 A 
ATOM     17  C   UNL     1      34.023   6.917  35.755  0.00  0.00    +0.000 A 
ATOM     18  C   UNL     1      33.564   5.630  35.563  0.00  0.00    +0.000 A 
BRANCH  16  19
ATOM     19  O   UNL     1      35.841   8.522  35.830  0.00  0.00    +0.000 OA
ATOM     20  C   UNL     1      34.964   9.630  35.868  0.00  0.00    +0.000 C 
ENDBRANCH  16  19
ENDBRANCH   2  13
BRANCH   1  22
ATOM     21  C   UNL     1      35.801   2.411  37.720  0.00  0.00    +0.000 C 
ATOM     22  C   UNL     1      34.349   2.797  37.465  0.00  0.00    +0.000 C 
ENDBRANCH   1  22
TORSDOF 3
ENDMDL
MODEL 7
REMARK VINA RESULT:      -6.7     17.501     19.420
REMARK  Name = 
REMARK  3 active torsions:
REMARK  status: ('A' for Active; 'I' for Inactive)
REMARK    1  A    between atoms: C_2  and  C_3
REMARK    2  A    between atoms: C_4  and  C_5
REMARK    3  A    between atoms: C_8  and  O_9
REMARK                            x       y       z     vdW  Elec       q    Type
REMARK                         _______ _______ _______ _____ _____    ______ ____
ROOT
ATOM      1  C   UNL     1      33.972   3.565  34.859  0.00  0.00    +0.000 A 
ATOM      2  C   UNL     1      34.547   4.176  35.960  0.00  0.00    +0.000 A 
ATOM      3  C   UNL     1      34.757   3.352  37.066  0.00  0.00    +0.000 A 
ATOM      4  O   UNL     1      35.276   3.845  38.100  0.00  0.00    +0.000 OA
ATOM      5  O   UNL     1      34.435   2.081  37.070  0.00  0.00    +0.000 OA
ATOM      6  C   UNL     1      33.888   1.467  36.044  0.00  0.00    +0.000 A 
ATOM      7  C   UNL     1      33.561   0.119  36.088  0.00  0.00    +0.000 A 
ATOM      8  C   UNL     1      32.989  -0.499  34.997  0.00  0.00    +0.000 A 
ATOM      9  O   UNL     1      32.651  -1.866  35.022  0.00  0.00    +0.000 OA
ATOM     10  C   UNL     1      32.760   0.273  33.875  0.00  0.00    +0.000 A 
ATOM     11  C   UNL     1      33.074   1.616  33.802  0.00  0.00    +0.000 A 
ATOM     12  C   UNL     1      33.653   2.225  34.918  0.00  0.00    +0.000 A 
ENDROOT
BRANCH   2  13
ATOM     13  C   UNL     1      34.898   5.579  35.937  0.00  0.00    +0.000 A 
ATOM     14  C   UNL     1      34.081   6.506  36.552  0.00  0.00    +0.000 A 
ATOM     15  C   UNL     1      34.331   7.849  36.580  0.00  0.00    +0.000 A 
ATOM     16  C   UNL     1      35.484   8.315  35.947  0.00  0.00    +0.000 A 
ATOM     17  C   UNL     1      36.312   7.411  35.328  0.00  0.00    +0.000 A 
ATOM     18  C   UNL     1      36.034   6.060  35.316  0.00  0.00    +0.000 A 
BRANCH  16  19
ATOM     19  O   UNL     1      35.743   9.680  35.973  0.00  0.00    +0.000 OA
ATOM     20  C   UNL     1      36.325  10.329  34.861  0.00  0.00    +0.000 C 
ENDBRANCH  16  19
ENDBRANCH   2  13
BRANCH   1  22
ATOM     21  C   UNL     1      32.393   5.117  33.807  0.00  0.00    +0.000 C 
ATOM     22  C   UNL     1      33.708   4.369  33.622  0.00  0.00    +0.000 C 
ENDBRANCH   1  22
TORSDOF 3
ENDMDL
MODEL 8
REMARK VINA RESULT:      -6.7     19.181     21.227
REMARK  Name = 
REMARK  3 active torsions:
REMARK  status: ('A' for Active; 'I' for Inactive)
REMARK    1  A    between atoms: C_2  and  C_3
REMARK    2  A    between atoms: C_4  and  C_5
REMARK    3  A    between atoms: C_8  and  O_9
REMARK                            x       y       z     vdW  Elec       q    Type
REMARK                         _______ _______ _______ _____ _____    ______ ____
ROOT
ATOM      1  C   UNL     1      28.208  23.534  25.901  0.00  0.00    +0.000 A 
ATOM      2  C   UNL     1      27.647  24.494  25.074  0.00  0.00    +0.000 A 
ATOM      3  C   UNL     1      26.515  25.136  25.577  0.00  0.00    +0.000 A 
ATOM      4  O   UNL     1      25.957  26.018  24.877  0.00  0.00    +0.000 OA
ATOM      5  O   UNL     1      26.010  24.856  26.755  0.00  0.00    +0.000 OA
ATOM      6  C   UNL     1      26.515  23.953  27.566  0.00  0.00    +0.000 A 
ATOM      7  C   UNL     1      25.950  23.686  28.805  0.00  0.00    +0.000 A 
ATOM      8  C   UNL     1      26.501  22.733  29.635  0.00  0.00    +0.000 A 
ATOM      9  O   UNL     1      25.943  22.448  30.896  0.00  0.00    +0.000 OA
ATOM     10  C   UNL     1      27.624  22.069  29.184  0.00  0.00    +0.000 A 
ATOM     11  C   UNL     1      28.208  22.312  27.957  0.00  0.00    +0.000 A 
ATOM     12  C   UNL     1      27.635  23.281  27.128  0.00  0.00    +0.000 A 
ENDROOT
BRANCH   2  13
ATOM     13  C   UNL     1      28.218  24.790  23.780  0.00  0.00    +0.000 A 
ATOM     14  C   UNL     1      27.950  23.972  22.701  0.00  0.00    +0.000 A 
ATOM     15  C   UNL     1      28.446  24.173  21.444  0.00  0.00    +0.000 A 
ATOM     16  C   UNL     1      29.277  25.275  21.235  0.00  0.00    +0.000 A 
ATOM     17  C   UNL     1      29.559  26.104  22.294  0.00  0.00    +0.000 A 
ATOM     18  C   UNL     1      29.043  25.875  23.553  0.00  0.00    +0.000 A 
BRANCH  16  19
ATOM     19  O   UNL     1      29.784  25.485  19.958  0.00  0.00    +0.000 OA
ATOM     20  C   UNL     1      29.964  26.793  19.456  0.00  0.00    +0.000 C 
ENDBRANCH  16  19
ENDBRANCH   2  13
BRANCH   1  22
ATOM     21  C   UNL     1      30.659  23.547  25.931  0.00  0.00    +0.000 C 
ATOM     22  C   UNL     1      29.428  22.791  25.447  0.00  0.00    +0.000 C 
ENDBRANCH   1  22
TORSDOF 3
ENDMDL
MODEL 9
REMARK VINA RESULT:      -6.6     19.328     20.383
REMARK  Name = 
REMARK  3 active torsions:
REMARK  status: ('A' for Active; 'I' for Inactive)
REMARK    1  A    between atoms: C_2  and  C_3
REMARK    2  A    between atoms: C_4  and  C_5
REMARK    3  A    between atoms: C_8  and  O_9
REMARK                            x       y       z     vdW  Elec       q    Type
REMARK                         _______ _______ _______ _____ _____    ______ ____
ROOT
ATOM      1  C   UNL     1      28.849  23.136  25.855  0.00  0.00    +0.000 A 
ATOM      2  C   UNL     1      30.233  23.165  25.801  0.00  0.00    +0.000 A 
ATOM      3  C   UNL     1      30.784  23.291  24.526  0.00  0.00    +0.000 A 
ATOM      4  O   UNL     1      32.035  23.323  24.406  0.00  0.00    +0.000 OA
ATOM      5  O   UNL     1      30.047  23.377  23.444  0.00  0.00    +0.000 OA
ATOM      6  C   UNL     1      28.732  23.354  23.458  0.00  0.00    +0.000 A 
ATOM      7  C   UNL     1      27.988  23.448  22.289  0.00  0.00    +0.000 A 
ATOM      8  C   UNL     1      26.610  23.421  22.333  0.00  0.00    +0.000 A 
ATOM      9  O   UNL     1      25.837  23.516  21.160  0.00  0.00    +0.000 OA
ATOM     10  C   UNL     1      26.015  23.298  23.573  0.00  0.00    +0.000 A 
ATOM     11  C   UNL     1      26.728  23.201  24.751  0.00  0.00    +0.000 A 
ATOM     12  C   UNL     1      28.124  23.230  24.687  0.00  0.00    +0.000 A 
ENDROOT
BRANCH   2  13
ATOM     13  C   UNL     1      31.029  23.069  27.004  0.00  0.00    +0.000 A 
ATOM     14  C   UNL     1      31.223  21.845  27.610  0.00  0.00    +0.000 A 
ATOM     15  C   UNL     1      31.958  21.659  28.747  0.00  0.00    +0.000 A 
ATOM     16  C   UNL     1      32.550  22.778  29.335  0.00  0.00    +0.000 A 
ATOM     17  C   UNL     1      32.371  24.008  28.750  0.00  0.00    +0.000 A 
ATOM     18  C   UNL     1      31.624  24.164  27.601  0.00  0.00    +0.000 A 
BRANCH  16  19
ATOM     19  O   UNL     1      33.299  22.595  30.491  0.00  0.00    +0.000 OA
ATOM     20  C   UNL     1      33.381  21.327  31.109  0.00  0.00    +0.000 C 
ENDBRANCH  16  19
ENDBRANCH   2  13
BRANCH   1  22
ATOM     21  C   UNL     1      27.915  24.402  27.736  0.00  0.00    +0.000 C 
ATOM     22  C   UNL     1      28.165  23.004  27.183  0.00  0.00    +0.000 C 
ENDBRANCH   1  22
TORSDOF 3
ENDMDL
MODEL 10
REMARK VINA RESULT:      -6.5      2.899      4.695
REMARK  Name = 
REMARK  3 active torsions:
REMARK  status: ('A' for Active; 'I' for Inactive)
REMARK    1  A    between atoms: C_2  and  C_3
REMARK    2  A    between atoms: C_4  and  C_5
REMARK    3  A    between atoms: C_8  and  O_9
REMARK                            x       y       z     vdW  Elec       q    Type
REMARK                         _______ _______ _______ _____ _____    ______ ____
ROOT
ATOM      1  C   UNL     1      16.489  10.737  38.377  0.00  0.00    +0.000 A 
ATOM      2  C   UNL     1      17.313  11.130  37.334  0.00  0.00    +0.000 A 
ATOM      3  C   UNL     1      16.660  11.590  36.191  0.00  0.00    +0.000 A 
ATOM      4  O   UNL     1      17.348  11.962  35.207  0.00  0.00    +0.000 OA
ATOM      5  O   UNL     1      15.353  11.652  36.101  0.00  0.00    +0.000 OA
ATOM      6  C   UNL     1      14.541  11.289  37.070  0.00  0.00    +0.000 A 
ATOM      7  C   UNL     1      13.161  11.370  36.935  0.00  0.00    +0.000 A 
ATOM      8  C   UNL     1      12.333  10.982  37.967  0.00  0.00    +0.000 A 
ATOM      9  O   UNL     1      10.932  11.057  37.851  0.00  0.00    +0.000 OA
ATOM     10  C   UNL     1      12.931  10.519  39.123  0.00  0.00    +0.000 A 
ATOM     11  C   UNL     1      14.299  10.426  39.285  0.00  0.00    +0.000 A 
ATOM     12  C   UNL     1      15.122  10.823  38.228  0.00  0.00    +0.000 A 
ENDROOT
BRANCH   2  13
ATOM     13  C   UNL     1      18.752  11.056  37.451  0.00  0.00    +0.000 A 
ATOM     14  C   UNL     1      19.440  10.008  36.875  0.00  0.00    +0.000 A 
ATOM     15  C   UNL     1      20.797   9.856  36.935  0.00  0.00    +0.000 A 
ATOM     16  C   UNL     1      21.535  10.820  37.623  0.00  0.00    +0.000 A 
ATOM     17  C   UNL     1      20.872  11.873  38.205  0.00  0.00    +0.000 A 
ATOM     18  C   UNL     1      19.500  12.000  38.128  0.00  0.00    +0.000 A 
BRANCH  16  19
ATOM     19  O   UNL     1      22.915  10.671  37.686  0.00  0.00    +0.000 OA
ATOM     20  C   UNL     1      23.691  10.591  36.507  0.00  0.00    +0.000 C 
ENDBRANCH  16  19
ENDBRANCH   2  13
BRANCH   1  22
ATOM     21  C   UNL     1      17.498   8.772  39.440  0.00  0.00    +0.000 C 
ATOM     22  C   UNL     1      17.100  10.229  39.648  0.00  0.00    +0.000 C 
ENDBRANCH   1  22
TORSDOF 3
ENDMDL
