MODEL 1
REMARK VINA RESULT:      -8.1      0.000      0.000
REMARK  Name = 
REMARK  2 active torsions:
REMARK  status: ('A' for Active; 'I' for Inactive)
REMARK    1  A    between atoms: O_2  and  C_3
REMARK    2  A    between atoms: C_6  and  C_7
REMARK                            x       y       z     vdW  Elec       q    Type
REMARK                         _______ _______ _______ _____ _____    ______ ____
ROOT
ATOM      1  C   UNL     1      17.465  11.076  36.719  0.00  0.00    +0.000 C 
ATOM      2  N   UNL     1      17.396   9.899  35.641  0.00  0.00    +0.000 NA
ATOM      3  C   UNL     1      17.060  10.414  34.354  0.00  0.00    +0.000 C 
ATOM      4  O   UNL     1      17.637   9.993  33.303  0.00  0.00    +0.000 OA
ATOM      5  C   UNL     1      16.011  11.468  34.222  0.00  0.00    +0.000 A 
ATOM      6  C   UNL     1      15.474  11.831  35.424  0.00  0.00    +0.000 A 
ATOM      7  S   UNL     1      14.318  13.024  34.939  0.00  0.00    +0.000 S 
ATOM      8  C   UNL     1      14.567  13.008  33.253  0.00  0.00    +0.000 A 
ATOM      9  C   UNL     1      15.550  12.070  33.105  0.00  0.00    +0.000 A 
ATOM     10  C   UNL     1      15.947  11.880  31.638  0.00  0.00    +0.000 C 
ATOM     11  C   UNL     1      14.660  11.470  30.950  0.00  0.00    +0.000 C 
ATOM     12  C   UNL     1      13.728  12.677  30.931  0.00  0.00    +0.000 C 
ATOM     13  C   UNL     1      14.063  13.665  32.017  0.00  0.00    +0.000 C 
ATOM     14  N   UNL     1      15.874  11.259  36.690  0.00  0.00    +0.000 NA
ENDROOT
BRANCH   1  18
ATOM     15  C   UNL     1      17.655   8.469  40.220  0.00  0.00    +0.000 A 
ATOM     16  C   UNL     1      16.688   9.438  40.118  0.00  0.00    +0.000 A 
ATOM     17  C   UNL     1      16.620  10.286  38.988  0.00  0.00    +0.000 A 
ATOM     18  C   UNL     1      17.530  10.134  37.987  0.00  0.00    +0.000 A 
ATOM     19  C   UNL     1      18.495   9.179  38.073  0.00  0.00    +0.000 A 
ATOM     20  C   UNL     1      18.566   8.330  39.201  0.00  0.00    +0.000 A 
BRANCH  15  22
ATOM     21  C   UNL     1      17.745   6.241  41.268  0.00  0.00    +0.000 C 
ATOM     22  O   UNL     1      17.708   7.631  41.353  0.00  0.00    +0.000 OA
ENDBRANCH  15  22
ENDBRANCH   1  18
TORSDOF 2
ENDMDL
MODEL 2
REMARK VINA RESULT:      -8.0      2.460      8.085
REMARK  Name = 
REMARK  2 active torsions:
REMARK  status: ('A' for Active; 'I' for Inactive)
REMARK    1  A    between atoms: O_2  and  C_3
REMARK    2  A    between atoms: C_6  and  C_7
REMARK                            x       y       z     vdW  Elec       q    Type
REMARK                         _______ _______ _______ _____ _____    ______ ____
ROOT
ATOM      1  C   UNL     1      15.378  12.514  36.741  0.00  0.00    +0.000 C 
ATOM      2  N   UNL     1      14.175  11.540  37.134  0.00  0.00    +0.000 NA
ATOM      3  C   UNL     1      14.411  10.931  38.401  0.00  0.00    +0.000 C 
ATOM      4  O   UNL     1      13.479  10.797  39.254  0.00  0.00    +0.000 OA
ATOM      5  C   UNL     1      15.776  10.437  38.748  0.00  0.00    +0.000 A 
ATOM      6  C   UNL     1      16.682  10.644  37.748  0.00  0.00    +0.000 A 
ATOM      7  S   UNL     1      18.118   9.968  38.439  0.00  0.00    +0.000 S 
ATOM      8  C   UNL     1      17.510   9.460  39.948  0.00  0.00    +0.000 A 
ATOM      9  C   UNL     1      16.196   9.831  39.879  0.00  0.00    +0.000 A 
ATOM     10  C   UNL     1      15.430   9.466  41.155  0.00  0.00    +0.000 C 
ATOM     11  C   UNL     1      15.593   7.965  41.276  0.00  0.00    +0.000 C 
ATOM     12  C   UNL     1      17.050   7.673  41.620  0.00  0.00    +0.000 C 
ATOM     13  C   UNL     1      17.964   8.792  41.197  0.00  0.00    +0.000 C 
ATOM     14  N   UNL     1      16.360  11.273  36.488  0.00  0.00    +0.000 NA
ENDROOT
BRANCH   1  18
ATOM     15  C   UNL     1      14.153  13.105  32.590  0.00  0.00    +0.000 A 
ATOM     16  C   UNL     1      15.037  12.111  32.926  0.00  0.00    +0.000 A 
ATOM     17  C   UNL     1      15.439  11.914  34.267  0.00  0.00    +0.000 A 
ATOM     18  C   UNL     1      14.937  12.725  35.238  0.00  0.00    +0.000 A 
ATOM     19  C   UNL     1      14.060  13.715  34.922  0.00  0.00    +0.000 A 
ATOM     20  C   UNL     1      13.656  13.916  33.582  0.00  0.00    +0.000 A 
BRANCH  15  22
ATOM     21  C   UNL     1      14.569  12.941  30.167  0.00  0.00    +0.000 C 
ATOM     22  O   UNL     1      13.762  13.289  31.247  0.00  0.00    +0.000 OA
ENDBRANCH  15  22
ENDBRANCH   1  18
TORSDOF 2
ENDMDL
MODEL 3
REMARK VINA RESULT:      -7.2     19.252     20.854
REMARK  Name = 
REMARK  2 active torsions:
REMARK  status: ('A' for Active; 'I' for Inactive)
REMARK    1  A    between atoms: O_2  and  C_3
REMARK    2  A    between atoms: C_6  and  C_7
REMARK                            x       y       z     vdW  Elec       q    Type
REMARK                         _______ _______ _______ _____ _____    ______ ____
ROOT
ATOM      1  C   UNL     1      32.381  -0.546  34.931  0.00  0.00    +0.000 C 
ATOM      2  N   UNL     1      33.583  -0.484  35.981  0.00  0.00    +0.000 NA
ATOM      3  C   UNL     1      33.845   0.863  36.370  0.00  0.00    +0.000 C 
ATOM      4  O   UNL     1      34.094   1.165  37.578  0.00  0.00    +0.000 OA
ATOM      5  C   UNL     1      33.828   1.951  35.348  0.00  0.00    +0.000 A 
ATOM      6  C   UNL     1      33.545   1.491  34.094  0.00  0.00    +0.000 A 
ATOM      7  S   UNL     1      33.613   2.953  33.168  0.00  0.00    +0.000 S 
ATOM      8  C   UNL     1      33.992   4.066  34.402  0.00  0.00    +0.000 A 
ATOM      9  C   UNL     1      34.057   3.271  35.512  0.00  0.00    +0.000 A 
ATOM     10  C   UNL     1      34.393   4.072  36.773  0.00  0.00    +0.000 C 
ATOM     11  C   UNL     1      35.724   4.725  36.460  0.00  0.00    +0.000 C 
ATOM     12  C   UNL     1      35.491   5.790  35.394  0.00  0.00    +0.000 C 
ATOM     13  C   UNL     1      34.246   5.520  34.590  0.00  0.00    +0.000 C 
ATOM     14  N   UNL     1      33.289   0.103  33.783  0.00  0.00    +0.000 NA
ENDROOT
BRANCH   1  18
ATOM     15  C   UNL     1      32.970  -4.726  33.805  0.00  0.00    +0.000 A 
ATOM     16  C   UNL     1      33.657  -3.723  33.167  0.00  0.00    +0.000 A 
ATOM     17  C   UNL     1      33.471  -2.368  33.526  0.00  0.00    +0.000 A 
ATOM     18  C   UNL     1      32.596  -2.057  34.521  0.00  0.00    +0.000 A 
ATOM     19  C   UNL     1      31.907  -3.039  35.163  0.00  0.00    +0.000 A 
ATOM     20  C   UNL     1      32.090  -4.394  34.808  0.00  0.00    +0.000 A 
BRANCH  15  22
ATOM     21  C   UNL     1      32.704  -6.606  32.235  0.00  0.00    +0.000 C 
ATOM     22  O   UNL     1      33.167  -6.072  33.436  0.00  0.00    +0.000 OA
ENDBRANCH  15  22
ENDBRANCH   1  18
TORSDOF 2
ENDMDL
MODEL 4
REMARK VINA RESULT:      -6.8     18.696     20.136
REMARK  Name = 
REMARK  2 active torsions:
REMARK  status: ('A' for Active; 'I' for Inactive)
REMARK    1  A    between atoms: O_2  and  C_3
REMARK    2  A    between atoms: C_6  and  C_7
REMARK                            x       y       z     vdW  Elec       q    Type
REMARK                         _______ _______ _______ _____ _____    ______ ____
ROOT
ATOM      1  C   UNL     1      33.577   5.193  35.864  0.00  0.00    +0.000 C 
ATOM      2  N   UNL     1      34.201   4.855  34.433  0.00  0.00    +0.000 NA
ATOM      3  C   UNL     1      33.826   3.544  34.016  0.00  0.00    +0.000 C 
ATOM      4  O   UNL     1      33.487   3.303  32.816  0.00  0.00    +0.000 OA
ATOM      5  C   UNL     1      33.827   2.420  34.999  0.00  0.00    +0.000 A 
ATOM      6  C   UNL     1      34.208   2.814  36.249  0.00  0.00    +0.000 A 
ATOM      7  S   UNL     1      34.119   1.321  37.122  0.00  0.00    +0.000 S 
ATOM      8  C   UNL     1      33.608   0.279  35.874  0.00  0.00    +0.000 A 
ATOM      9  C   UNL     1      33.517   1.121  34.801  0.00  0.00    +0.000 A 
ATOM     10  C   UNL     1      33.064   0.389  33.534  0.00  0.00    +0.000 C 
ATOM     11  C   UNL     1      34.110  -0.688  33.327  0.00  0.00    +0.000 C 
ATOM     12  C   UNL     1      33.948  -1.724  34.434  0.00  0.00    +0.000 C 
ATOM     13  C   UNL     1      33.266  -1.151  35.648  0.00  0.00    +0.000 C 
ATOM     14  N   UNL     1      34.572   4.170  36.590  0.00  0.00    +0.000 NA
ENDROOT
BRANCH   1  18
ATOM     15  C   UNL     1      35.935   8.809  36.536  0.00  0.00    +0.000 A 
ATOM     16  C   UNL     1      34.855   8.517  37.331  0.00  0.00    +0.000 A 
ATOM     17  C   UNL     1      34.087   7.349  37.119  0.00  0.00    +0.000 A 
ATOM     18  C   UNL     1      34.428   6.502  36.110  0.00  0.00    +0.000 A 
ATOM     19  C   UNL     1      35.495   6.777  35.313  0.00  0.00    +0.000 A 
ATOM     20  C   UNL     1      36.266   7.943  35.521  0.00  0.00    +0.000 A 
BRANCH  15  22
ATOM     21  C   UNL     1      37.909   9.976  37.439  0.00  0.00    +0.000 C 
ATOM     22  O   UNL     1      36.691   9.978  36.761  0.00  0.00    +0.000 OA
ENDBRANCH  15  22
ENDBRANCH   1  18
TORSDOF 2
ENDMDL
MODEL 5
REMARK VINA RESULT:      -6.8     18.534     20.561
REMARK  Name = 
REMARK  2 active torsions:
REMARK  status: ('A' for Active; 'I' for Inactive)
REMARK    1  A    between atoms: O_2  and  C_3
REMARK    2  A    between atoms: C_6  and  C_7
REMARK                            x       y       z     vdW  Elec       q    Type
REMARK                         _______ _______ _______ _____ _____    ______ ____
ROOT
ATOM      1  C   UNL     1      34.301  -0.707  34.537  0.00  0.00    +0.000 C 
ATOM      2  N   UNL     1      33.317   0.114  33.583  0.00  0.00    +0.000 NA
ATOM      3  C   UNL     1      33.588   1.512  33.662  0.00  0.00    +0.000 C 
ATOM      4  O   UNL     1      33.591   2.244  32.623  0.00  0.00    +0.000 OA
ATOM      5  C   UNL     1      33.876   2.144  34.983  0.00  0.00    +0.000 A 
ATOM      6  C   UNL     1      33.844   1.248  36.013  0.00  0.00    +0.000 A 
ATOM      7  S   UNL     1      34.195   2.268  37.367  0.00  0.00    +0.000 S 
ATOM      8  C   UNL     1      34.365   3.766  36.572  0.00  0.00    +0.000 A 
ATOM      9  C   UNL     1      34.144   3.437  35.264  0.00  0.00    +0.000 A 
ATOM     10  C   UNL     1      34.248   4.653  34.340  0.00  0.00    +0.000 C 
ATOM     11  C   UNL     1      33.205   5.618  34.869  0.00  0.00    +0.000 C 
ATOM     12  C   UNL     1      33.682   6.136  36.222  0.00  0.00    +0.000 C 
ATOM     13  C   UNL     1      34.659   5.193  36.874  0.00  0.00    +0.000 C 
ATOM     14  N   UNL     1      33.561  -0.159  35.848  0.00  0.00    +0.000 NA
ENDROOT
BRANCH   1  18
ATOM     15  C   UNL     1      32.164  -4.505  34.240  0.00  0.00    +0.000 A 
ATOM     16  C   UNL     1      31.970  -3.672  35.314  0.00  0.00    +0.000 A 
ATOM     17  C   UNL     1      32.659  -2.442  35.417  0.00  0.00    +0.000 A 
ATOM     18  C   UNL     1      33.526  -2.080  34.433  0.00  0.00    +0.000 A 
ATOM     19  C   UNL     1      33.729  -2.893  33.362  0.00  0.00    +0.000 A 
ATOM     20  C   UNL     1      33.043  -4.124  33.255  0.00  0.00    +0.000 A 
BRANCH  15  22
ATOM     21  C   UNL     1      31.917  -6.803  33.385  0.00  0.00    +0.000 C 
ATOM     22  O   UNL     1      31.469  -5.729  34.151  0.00  0.00    +0.000 OA
ENDBRANCH  15  22
ENDBRANCH   1  18
TORSDOF 2
ENDMDL
MODEL 6
REMARK VINA RESULT:      -6.7      1.786      2.746
REMARK  Name = 
REMARK  2 active torsions:
REMARK  status: ('A' for Active; 'I' for Inactive)
REMARK    1  A    between atoms: O_2  and  C_3
REMARK    2  A    between atoms: C_6  and  C_7
REMARK                            x       y       z     vdW  Elec       q    Type
REMARK                         _______ _______ _______ _____ _____    ______ ____
ROOT
ATOM      1  C   UNL     1      18.241  10.144  39.056  0.00  0.00    +0.000 C 
ATOM      2  N   UNL     1      18.505   9.103  37.873  0.00  0.00    +0.000 NA
ATOM      3  C   UNL     1      18.211   9.692  36.608  0.00  0.00    +0.000 C 
ATOM      4  O   UNL     1      18.961   9.502  35.600  0.00  0.00    +0.000 OA
ATOM      5  C   UNL     1      17.002  10.552  36.448  0.00  0.00    +0.000 A 
ATOM      6  C   UNL     1      16.287  10.676  37.604  0.00  0.00    +0.000 A 
ATOM      7  S   UNL     1      14.981  11.692  37.095  0.00  0.00    +0.000 S 
ATOM      8  C   UNL     1      15.399  11.911  35.457  0.00  0.00    +0.000 A 
ATOM      9  C   UNL     1      16.552  11.185  35.343  0.00  0.00    +0.000 A 
ATOM     10  C   UNL     1      17.125  11.235  33.924  0.00  0.00    +0.000 C 
ATOM     11  C   UNL     1      16.016  10.685  33.051  0.00  0.00    +0.000 C 
ATOM     12  C   UNL     1      14.880  11.702  33.030  0.00  0.00    +0.000 C 
ATOM     13  C   UNL     1      14.909  12.605  34.235  0.00  0.00    +0.000 C 
ATOM     14  N   UNL     1      16.655  10.044  38.851  0.00  0.00    +0.000 NA
ENDROOT
BRANCH   1  18
ATOM     15  C   UNL     1      18.551   7.245  42.309  0.00  0.00    +0.000 A 
ATOM     16  C   UNL     1      18.394   6.829  41.010  0.00  0.00    +0.000 A 
ATOM     17  C   UNL     1      18.292   7.761  39.952  0.00  0.00    +0.000 A 
ATOM     18  C   UNL     1      18.353   9.092  40.230  0.00  0.00    +0.000 A 
ATOM     19  C   UNL     1      18.508   9.521  41.511  0.00  0.00    +0.000 A 
ATOM     20  C   UNL     1      18.610   8.592  42.572  0.00  0.00    +0.000 A 
BRANCH  15  22
ATOM     21  C   UNL     1      17.897   5.131  43.394  0.00  0.00    +0.000 C 
ATOM     22  O   UNL     1      18.652   6.302  43.353  0.00  0.00    +0.000 OA
ENDBRANCH  15  22
ENDBRANCH   1  18
TORSDOF 2
ENDMDL
MODEL 7
REMARK VINA RESULT:      -6.3      2.923      8.815
REMARK  Name = 
REMARK  2 active torsions:
REMARK  status: ('A' for Active; 'I' for Inactive)
REMARK    1  A    between atoms: O_2  and  C_3
REMARK    2  A    between atoms: C_6  and  C_7
REMARK                            x       y       z     vdW  Elec       q    Type
REMARK                         _______ _______ _______ _____ _____    ______ ____
ROOT
ATOM      1  C   UNL     1      18.179   9.953  38.928  0.00  0.00    +0.000 C 
ATOM      2  N   UNL     1      16.687   9.821  39.483  0.00  0.00    +0.000 NA
ATOM      3  C   UNL     1      16.679   9.198  40.766  0.00  0.00    +0.000 C 
ATOM      4  O   UNL     1      15.925   9.616  41.698  0.00  0.00    +0.000 OA
ATOM      5  C   UNL     1      17.570   8.030  41.034  0.00  0.00    +0.000 A 
ATOM      6  C   UNL     1      18.327   7.686  39.952  0.00  0.00    +0.000 A 
ATOM      7  S   UNL     1      19.213   6.332  40.568  0.00  0.00    +0.000 S 
ATOM      8  C   UNL     1      18.588   6.267  42.152  0.00  0.00    +0.000 A 
ATOM      9  C   UNL     1      17.700   7.306  42.166  0.00  0.00    +0.000 A 
ATOM     10  C   UNL     1      17.000   7.445  43.520  0.00  0.00    +0.000 C 
ATOM     11  C   UNL     1      16.317   6.109  43.730  0.00  0.00    +0.000 C 
ATOM     12  C   UNL     1      17.395   5.059  43.974  0.00  0.00    +0.000 C 
ATOM     13  C   UNL     1      18.726   5.473  43.403  0.00  0.00    +0.000 C 
ATOM     14  N   UNL     1      18.277   8.374  38.681  0.00  0.00    +0.000 NA
ENDROOT
BRANCH   1  18
ATOM     15  C   UNL     1      17.052  11.079  34.860  0.00  0.00    +0.000 A 
ATOM     16  C   UNL     1      17.762   9.929  35.100  0.00  0.00    +0.000 A 
ATOM     17  C   UNL     1      18.131   9.558  36.413  0.00  0.00    +0.000 A 
ATOM     18  C   UNL     1      17.773  10.357  37.455  0.00  0.00    +0.000 A 
ATOM     19  C   UNL     1      17.070  11.501  37.236  0.00  0.00    +0.000 A 
ATOM     20  C   UNL     1      16.700  11.875  35.924  0.00  0.00    +0.000 A 
BRANCH  15  22
ATOM     21  C   UNL     1      15.812  10.683  32.768  0.00  0.00    +0.000 C 
ATOM     22  O   UNL     1      16.692  11.434  33.544  0.00  0.00    +0.000 OA
ENDBRANCH  15  22
ENDBRANCH   1  18
TORSDOF 2
ENDMDL
MODEL 8
REMARK VINA RESULT:      -6.2     21.173     22.215
REMARK  Name = 
REMARK  2 active torsions:
REMARK  status: ('A' for Active; 'I' for Inactive)
REMARK    1  A    between atoms: O_2  and  C_3
REMARK    2  A    between atoms: C_6  and  C_7
REMARK                            x       y       z     vdW  Elec       q    Type
REMARK                         _______ _______ _______ _____ _____    ______ ____
ROOT
ATOM      1  C   UNL     1      19.166  -9.586  26.818  0.00  0.00    +0.000 C 
ATOM      2  N   UNL     1      19.352  -8.009  26.993  0.00  0.00    +0.000 NA
ATOM      3  C   UNL     1      20.212  -7.487  25.984  0.00  0.00    +0.000 C 
ATOM      4  O   UNL     1      19.958  -6.386  25.404  0.00  0.00    +0.000 OA
ATOM      5  C   UNL     1      21.440  -8.238  25.588  0.00  0.00    +0.000 A 
ATOM      6  C   UNL     1      21.593  -9.403  26.284  0.00  0.00    +0.000 A 
ATOM      7  S   UNL     1      23.071 -10.011  25.618  0.00  0.00    +0.000 S 
ATOM      8  C   UNL     1      23.422  -8.773  24.500  0.00  0.00    +0.000 A 
ATOM      9  C   UNL     1      22.375  -7.911  24.671  0.00  0.00    +0.000 A 
ATOM     10  C   UNL     1      22.479  -6.692  23.749  0.00  0.00    +0.000 C 
ATOM     11  C   UNL     1      23.805  -6.057  24.112  0.00  0.00    +0.000 C 
ATOM     12  C   UNL     1      24.920  -6.981  23.634  0.00  0.00    +0.000 C 
ATOM     13  C   UNL     1      24.449  -8.405  23.489  0.00  0.00    +0.000 C 
ATOM     14  N   UNL     1      20.669  -9.863  27.295  0.00  0.00    +0.000 NA
ENDROOT
BRANCH   1  18
ATOM     15  C   UNL     1      17.246 -10.248  30.686  0.00  0.00    +0.000 A 
ATOM     16  C   UNL     1      16.674 -10.715  29.529  0.00  0.00    +0.000 A 
ATOM     17  C   UNL     1      17.289 -10.504  28.273  0.00  0.00    +0.000 A 
ATOM     18  C   UNL     1      18.468  -9.828  28.215  0.00  0.00    +0.000 A 
ATOM     19  C   UNL     1      19.049  -9.358  29.352  0.00  0.00    +0.000 A 
ATOM     20  C   UNL     1      18.437  -9.567  30.610  0.00  0.00    +0.000 A 
BRANCH  15  22
ATOM     21  C   UNL     1      15.251 -10.691  32.063  0.00  0.00    +0.000 C 
ATOM     22  O   UNL     1      16.620 -10.467  31.930  0.00  0.00    +0.000 OA
ENDBRANCH  15  22
ENDBRANCH   1  18
TORSDOF 2
ENDMDL
MODEL 9
REMARK VINA RESULT:      -6.2     24.187     26.502
REMARK  Name = 
REMARK  2 active torsions:
REMARK  status: ('A' for Active; 'I' for Inactive)
REMARK    1  A    between atoms: O_2  and  C_3
REMARK    2  A    between atoms: C_6  and  C_7
REMARK                            x       y       z     vdW  Elec       q    Type
REMARK                         _______ _______ _______ _____ _____    ______ ____
ROOT
ATOM      1  C   UNL     1      29.293  27.448  20.868  0.00  0.00    +0.000 C 
ATOM      2  N   UNL     1      29.965  26.530  19.746  0.00  0.00    +0.000 NA
ATOM      3  C   UNL     1      30.338  27.311  18.613  0.00  0.00    +0.000 C 
ATOM      4  O   UNL     1      31.442  27.121  18.014  0.00  0.00    +0.000 OA
ATOM      5  C   UNL     1      29.424  28.377  18.107  0.00  0.00    +0.000 A 
ATOM      6  C   UNL     1      28.276  28.478  18.840  0.00  0.00    +0.000 A 
ATOM      7  S   UNL     1      27.451  29.756  18.014  0.00  0.00    +0.000 S 
ATOM      8  C   UNL     1      28.588  30.099  16.791  0.00  0.00    +0.000 A 
ATOM      9  C   UNL     1      29.589  29.207  17.056  0.00  0.00    +0.000 A 
ATOM     10  C   UNL     1      30.748  29.332  16.062  0.00  0.00    +0.000 C 
ATOM     11  C   UNL     1      30.110  29.089  14.709  0.00  0.00    +0.000 C 
ATOM     12  C   UNL     1      29.213  30.280  14.387  0.00  0.00    +0.000 C 
ATOM     13  C   UNL     1      28.777  31.010  15.631  0.00  0.00    +0.000 C 
ATOM     14  N   UNL     1      27.974  27.645  19.982  0.00  0.00    +0.000 NA
ENDROOT
BRANCH   1  18
ATOM     15  C   UNL     1      27.815  24.148  23.320  0.00  0.00    +0.000 A 
ATOM     16  C   UNL     1      27.360  25.428  23.517  0.00  0.00    +0.000 A 
ATOM     17  C   UNL     1      27.834  26.501  22.728  0.00  0.00    +0.000 A 
ATOM     18  C   UNL     1      28.756  26.256  21.757  0.00  0.00    +0.000 A 
ATOM     19  C   UNL     1      29.218  24.994  21.549  0.00  0.00    +0.000 A 
ATOM     20  C   UNL     1      28.747  23.918  22.336  0.00  0.00    +0.000 A 
BRANCH  15  22
ATOM     21  C   UNL     1      26.156  23.171  24.858  0.00  0.00    +0.000 C 
ATOM     22  O   UNL     1      27.332  23.088  24.115  0.00  0.00    +0.000 OA
ENDBRANCH  15  22
ENDBRANCH   1  18
TORSDOF 2
ENDMDL
MODEL 10
REMARK VINA RESULT:      -6.0     20.890     23.004
REMARK  Name = 
REMARK  2 active torsions:
REMARK  status: ('A' for Active; 'I' for Inactive)
REMARK    1  A    between atoms: O_2  and  C_3
REMARK    2  A    between atoms: C_6  and  C_7
REMARK                            x       y       z     vdW  Elec       q    Type
REMARK                         _______ _______ _______ _____ _____    ______ ____
ROOT
ATOM      1  C   UNL     1      18.648   1.861  15.402  0.00  0.00    +0.000 C 
ATOM      2  N   UNL     1      18.788   1.798  16.992  0.00  0.00    +0.000 NA
ATOM      3  C   UNL     1      20.024   2.372  17.412  0.00  0.00    +0.000 C 
ATOM      4  O   UNL     1      20.089   3.123  18.435  0.00  0.00    +0.000 OA
ATOM      5  C   UNL     1      21.274   2.097  16.646  0.00  0.00    +0.000 A 
ATOM      6  C   UNL     1      21.065   1.280  15.572  0.00  0.00    +0.000 A 
ATOM      7  S   UNL     1      22.664   1.149  14.922  0.00  0.00    +0.000 S 
ATOM      8  C   UNL     1      23.514   2.125  16.031  0.00  0.00    +0.000 A 
ATOM      9  C   UNL     1      22.529   2.534  16.885  0.00  0.00    +0.000 A 
ATOM     10  C   UNL     1      23.070   3.444  17.992  0.00  0.00    +0.000 C 
ATOM     11  C   UNL     1      24.119   2.604  18.691  0.00  0.00    +0.000 C 
ATOM     12  C   UNL     1      25.299   2.431  17.741  0.00  0.00    +0.000 C 
ATOM     13  C   UNL     1      24.894   2.611  16.301  0.00  0.00    +0.000 C 
ATOM     14  N   UNL     1      19.775   0.738  15.211  0.00  0.00    +0.000 NA
ENDROOT
BRANCH   1  18
ATOM     15  C   UNL     1      15.193  -0.801  15.150  0.00  0.00    +0.000 A 
ATOM     16  C   UNL     1      15.298   0.293  14.327  0.00  0.00    +0.000 A 
ATOM     17  C   UNL     1      16.413   1.159  14.403  0.00  0.00    +0.000 A 
ATOM     18  C   UNL     1      17.396   0.900  15.308  0.00  0.00    +0.000 A 
ATOM     19  C   UNL     1      17.308  -0.180  16.130  0.00  0.00    +0.000 A 
ATOM     20  C   UNL     1      16.194  -1.048  16.058  0.00  0.00    +0.000 A 
BRANCH  15  22
ATOM     21  C   UNL     1      13.211  -1.890  16.129  0.00  0.00    +0.000 C 
ATOM     22  O   UNL     1      14.075  -1.656  15.061  0.00  0.00    +0.000 OA
ENDBRANCH  15  22
ENDBRANCH   1  18
TORSDOF 2
ENDMDL
