MODEL 1
REMARK VINA RESULT:      -5.8      0.000      0.000
REMARK  Name = 
REMARK  5 active torsions:
REMARK  status: ('A' for Active; 'I' for Inactive)
REMARK    1  A    between atoms: O_2  and  C_3
REMARK    2  A    between atoms: C_5  and  C_6
REMARK    3  A    between atoms: C_6  and  S_7
REMARK    4  A    between atoms: S_7  and  C_8
REMARK    5  A    between atoms: C_15  and  O_16
REMARK                            x       y       z     vdW  Elec       q    Type
REMARK                         _______ _______ _______ _____ _____    ______ ____
ROOT
ATOM      1  C   UNL     1      29.782  22.626  25.681  0.00  0.00    +0.000 A 
ATOM      2  C   UNL     1      28.436  22.590  25.943  0.00  0.00    +0.000 A 
ATOM      3  C   UNL     1      27.553  23.013  24.973  0.00  0.00    +0.000 A 
ATOM      4  C   UNL     1      28.027  23.465  23.760  0.00  0.00    +0.000 A 
ATOM      5  C   UNL     1      29.374  23.511  23.472  0.00  0.00    +0.000 A 
ATOM      6  C   UNL     1      30.249  23.085  24.452  0.00  0.00    +0.000 A 
ATOM      7  N   UNL     1      31.667  23.102  24.226  0.00  0.00    +0.000 NA
ENDROOT
BRANCH   1   9
ATOM      8  C   UNL     1      30.474  22.493  27.989  0.00  0.00    +0.000 C 
ATOM      9  O   UNL     1      30.715  22.211  26.620  0.00  0.00    +0.000 OA
ENDBRANCH   1   9
BRANCH   5  10
ATOM     10  O   UNL     1      29.856  23.966  22.251  0.00  0.00    +0.000 OA
ATOM     11  C   UNL     1      29.106  24.981  21.581  0.00  0.00    +0.000 C 
ENDBRANCH   5  10
BRANCH   3  12
ATOM     12  C   UNL     1      26.104  22.976  25.249  0.00  0.00    +0.000 C 
BRANCH  12  13
ATOM     13  S   UNL     1      25.454  24.587  25.741  0.00  0.00    +0.000 S 
BRANCH  13  14
ATOM     14  C   UNL     1      25.505  24.676  27.526  0.00  0.00    +0.000 A 
ATOM     15  C   UNL     1      24.971  25.749  28.223  0.00  0.00    +0.000 A 
ATOM     16  C   UNL     1      25.043  25.758  29.596  0.00  0.00    +0.000 A 
ATOM     17  C   UNL     1      25.636  24.719  30.294  0.00  0.00    +0.000 A 
ATOM     18  C   UNL     1      26.175  23.638  29.611  0.00  0.00    +0.000 A 
ATOM     19  C   UNL     1      26.085  23.665  28.244  0.00  0.00    +0.000 A 
ENDBRANCH  13  14
ENDBRANCH  12  13
ENDBRANCH   3  12
TORSDOF 5
ENDMDL
MODEL 2
REMARK VINA RESULT:      -5.7      0.273      3.164
REMARK  Name = 
REMARK  5 active torsions:
REMARK  status: ('A' for Active; 'I' for Inactive)
REMARK    1  A    between atoms: O_2  and  C_3
REMARK    2  A    between atoms: C_5  and  C_6
REMARK    3  A    between atoms: C_6  and  S_7
REMARK    4  A    between atoms: S_7  and  C_8
REMARK    5  A    between atoms: C_15  and  O_16
REMARK                            x       y       z     vdW  Elec       q    Type
REMARK                         _______ _______ _______ _____ _____    ______ ____
ROOT
ATOM      1  C   UNL     1      29.380  23.493  23.659  0.00  0.00    +0.000 A 
ATOM      2  C   UNL     1      28.029  23.503  23.897  0.00  0.00    +0.000 A 
ATOM      3  C   UNL     1      27.556  23.004  25.092  0.00  0.00    +0.000 A 
ATOM      4  C   UNL     1      28.437  22.503  26.027  0.00  0.00    +0.000 A 
ATOM      5  C   UNL     1      29.798  22.482  25.812  0.00  0.00    +0.000 A 
ATOM      6  C   UNL     1      30.261  22.985  24.611  0.00  0.00    +0.000 A 
ATOM      7  N   UNL     1      31.666  22.997  24.313  0.00  0.00    +0.000 NA
ENDROOT
BRANCH   1   9
ATOM      8  C   UNL     1      29.031  24.551  21.518  0.00  0.00    +0.000 C 
ATOM      9  O   UNL     1      29.912  23.984  22.474  0.00  0.00    +0.000 OA
ENDBRANCH   1   9
BRANCH   5  10
ATOM     10  O   UNL     1      30.690  21.979  26.750  0.00  0.00    +0.000 OA
ATOM     11  C   UNL     1      30.758  22.638  28.016  0.00  0.00    +0.000 C 
ENDBRANCH   5  10
BRANCH   3  12
ATOM     12  C   UNL     1      26.104  23.012  25.354  0.00  0.00    +0.000 C 
BRANCH  12  13
ATOM     13  S   UNL     1      25.486  24.658  25.765  0.00  0.00    +0.000 S 
BRANCH  13  14
ATOM     14  C   UNL     1      25.460  24.805  27.546  0.00  0.00    +0.000 A 
ATOM     15  C   UNL     1      26.116  23.901  28.367  0.00  0.00    +0.000 A 
ATOM     16  C   UNL     1      26.057  24.069  29.730  0.00  0.00    +0.000 A 
ATOM     17  C   UNL     1      25.358  25.121  30.297  0.00  0.00    +0.000 A 
ATOM     18  C   UNL     1      24.696  26.035  29.489  0.00  0.00    +0.000 A 
ATOM     19  C   UNL     1      24.777  25.834  28.136  0.00  0.00    +0.000 A 
ENDBRANCH  13  14
ENDBRANCH  12  13
ENDBRANCH   3  12
TORSDOF 5
ENDMDL
MODEL 3
REMARK VINA RESULT:      -5.6      3.603      6.429
REMARK  Name = 
REMARK  5 active torsions:
REMARK  status: ('A' for Active; 'I' for Inactive)
REMARK    1  A    between atoms: O_2  and  C_3
REMARK    2  A    between atoms: C_5  and  C_6
REMARK    3  A    between atoms: C_6  and  S_7
REMARK    4  A    between atoms: S_7  and  C_8
REMARK    5  A    between atoms: C_15  and  O_16
REMARK                            x       y       z     vdW  Elec       q    Type
REMARK                         _______ _______ _______ _____ _____    ______ ____
ROOT
ATOM      1  C   UNL     1      25.831  23.940  29.722  0.00  0.00    +0.000 A 
ATOM      2  C   UNL     1      25.932  23.824  28.359  0.00  0.00    +0.000 A 
ATOM      3  C   UNL     1      25.816  24.956  27.580  0.00  0.00    +0.000 A 
ATOM      4  C   UNL     1      25.601  26.182  28.174  0.00  0.00    +0.000 A 
ATOM      5  C   UNL     1      25.497  26.324  29.540  0.00  0.00    +0.000 A 
ATOM      6  C   UNL     1      25.614  25.183  30.310  0.00  0.00    +0.000 A 
ATOM      7  N   UNL     1      25.517  25.251  31.742  0.00  0.00    +0.000 NA
ENDROOT
BRANCH   1   9
ATOM      8  C   UNL     1      26.937  21.865  30.268  0.00  0.00    +0.000 C 
ATOM      9  O   UNL     1      25.942  22.834  30.554  0.00  0.00    +0.000 OA
ENDBRANCH   1   9
BRANCH   5  10
ATOM     10  O   UNL     1      25.280  27.557  30.143  0.00  0.00    +0.000 OA
ATOM     11  C   UNL     1      24.190  28.345  29.662  0.00  0.00    +0.000 C 
ENDBRANCH   5  10
BRANCH   3  12
ATOM     12  C   UNL     1      25.923  24.838  26.114  0.00  0.00    +0.000 C 
BRANCH  12  13
ATOM     13  S   UNL     1      26.213  23.139  25.576  0.00  0.00    +0.000 S 
BRANCH  13  14
ATOM     14  C   UNL     1      27.970  22.939  25.315  0.00  0.00    +0.000 A 
ATOM     15  C   UNL     1      28.571  23.242  24.103  0.00  0.00    +0.000 A 
ATOM     16  C   UNL     1      29.927  23.066  23.966  0.00  0.00    +0.000 A 
ATOM     17  C   UNL     1      30.702  22.592  25.011  0.00  0.00    +0.000 A 
ATOM     18  C   UNL     1      30.116  22.284  26.231  0.00  0.00    +0.000 A 
ATOM     19  C   UNL     1      28.762  22.473  26.329  0.00  0.00    +0.000 A 
ENDBRANCH  13  14
ENDBRANCH  12  13
ENDBRANCH   3  12
TORSDOF 5
ENDMDL
MODEL 4
REMARK VINA RESULT:      -5.6      3.616      6.646
REMARK  Name = 
REMARK  5 active torsions:
REMARK  status: ('A' for Active; 'I' for Inactive)
REMARK    1  A    between atoms: O_2  and  C_3
REMARK    2  A    between atoms: C_5  and  C_6
REMARK    3  A    between atoms: C_6  and  S_7
REMARK    4  A    between atoms: S_7  and  C_8
REMARK    5  A    between atoms: C_15  and  O_16
REMARK                            x       y       z     vdW  Elec       q    Type
REMARK                         _______ _______ _______ _____ _____    ______ ____
ROOT
ATOM      1  C   UNL     1      25.910  26.237  29.655  0.00  0.00    +0.000 A 
ATOM      2  C   UNL     1      25.941  26.153  28.286  0.00  0.00    +0.000 A 
ATOM      3  C   UNL     1      25.978  24.910  27.691  0.00  0.00    +0.000 A 
ATOM      4  C   UNL     1      25.985  23.773  28.471  0.00  0.00    +0.000 A 
ATOM      5  C   UNL     1      25.955  23.830  29.848  0.00  0.00    +0.000 A 
ATOM      6  C   UNL     1      25.918  25.081  30.432  0.00  0.00    +0.000 A 
ATOM      7  N   UNL     1      25.885  25.223  31.861  0.00  0.00    +0.000 NA
ENDROOT
BRANCH   1   9
ATOM      8  C   UNL     1      25.903  28.646  29.527  0.00  0.00    +0.000 C 
ATOM      9  O   UNL     1      25.871  27.462  30.306  0.00  0.00    +0.000 OA
ENDBRANCH   1   9
BRANCH   5  10
ATOM     10  O   UNL     1      25.962  22.688  30.637  0.00  0.00    +0.000 OA
ATOM     11  C   UNL     1      26.792  21.601  30.221  0.00  0.00    +0.000 C 
ENDBRANCH   5  10
BRANCH   3  12
ATOM     12  C   UNL     1      26.011  24.813  26.220  0.00  0.00    +0.000 C 
BRANCH  12  13
ATOM     13  S   UNL     1      26.295  23.126  25.645  0.00  0.00    +0.000 S 
BRANCH  13  14
ATOM     14  C   UNL     1      28.055  22.918  25.402  0.00  0.00    +0.000 A 
ATOM     15  C   UNL     1      28.660  23.157  24.179  0.00  0.00    +0.000 A 
ATOM     16  C   UNL     1      30.018  22.978  24.058  0.00  0.00    +0.000 A 
ATOM     17  C   UNL     1      30.790  22.565  25.131  0.00  0.00    +0.000 A 
ATOM     18  C   UNL     1      30.198  22.322  26.363  0.00  0.00    +0.000 A 
ATOM     19  C   UNL     1      28.843  22.511  26.444  0.00  0.00    +0.000 A 
ENDBRANCH  13  14
ENDBRANCH  12  13
ENDBRANCH   3  12
TORSDOF 5
ENDMDL
MODEL 5
REMARK VINA RESULT:      -5.4      3.446      6.960
REMARK  Name = 
REMARK  5 active torsions:
REMARK  status: ('A' for Active; 'I' for Inactive)
REMARK    1  A    between atoms: O_2  and  C_3
REMARK    2  A    between atoms: C_5  and  C_6
REMARK    3  A    between atoms: C_6  and  S_7
REMARK    4  A    between atoms: S_7  and  C_8
REMARK    5  A    between atoms: C_15  and  O_16
REMARK                            x       y       z     vdW  Elec       q    Type
REMARK                         _______ _______ _______ _____ _____    ______ ____
ROOT
ATOM      1  C   UNL     1      24.899  25.695  29.369  0.00  0.00    +0.000 A 
ATOM      2  C   UNL     1      24.789  25.635  28.003  0.00  0.00    +0.000 A 
ATOM      3  C   UNL     1      25.431  24.623  27.324  0.00  0.00    +0.000 A 
ATOM      4  C   UNL     1      26.172  23.689  28.016  0.00  0.00    +0.000 A 
ATOM      5  C   UNL     1      26.299  23.727  29.388  0.00  0.00    +0.000 A 
ATOM      6  C   UNL     1      25.650  24.747  30.059  0.00  0.00    +0.000 A 
ATOM      7  N   UNL     1      25.734  24.854  31.489  0.00  0.00    +0.000 NA
ENDROOT
BRANCH   1   9
ATOM      8  C   UNL     1      22.865  26.829  30.001  0.00  0.00    +0.000 C 
ATOM      9  O   UNL     1      24.272  26.692  30.105  0.00  0.00    +0.000 OA
ENDBRANCH   1   9
BRANCH   5  10
ATOM     10  O   UNL     1      27.044  22.790  30.091  0.00  0.00    +0.000 OA
ATOM     11  C   UNL     1      26.416  21.545  30.402  0.00  0.00    +0.000 C 
ENDBRANCH   5  10
BRANCH   3  12
ATOM     12  C   UNL     1      25.316  24.552  25.854  0.00  0.00    +0.000 C 
BRANCH  12  13
ATOM     13  S   UNL     1      26.008  23.027  25.180  0.00  0.00    +0.000 S 
BRANCH  13  14
ATOM     14  C   UNL     1      27.240  23.475  23.964  0.00  0.00    +0.000 A 
ATOM     15  C   UNL     1      28.598  23.341  24.211  0.00  0.00    +0.000 A 
ATOM     16  C   UNL     1      29.495  23.704  23.235  0.00  0.00    +0.000 A 
ATOM     17  C   UNL     1      29.070  24.198  22.013  0.00  0.00    +0.000 A 
ATOM     18  C   UNL     1      27.714  24.338  21.750  0.00  0.00    +0.000 A 
ATOM     19  C   UNL     1      26.852  23.966  22.748  0.00  0.00    +0.000 A 
ENDBRANCH  13  14
ENDBRANCH  12  13
ENDBRANCH   3  12
TORSDOF 5
ENDMDL
MODEL 6
REMARK VINA RESULT:      -5.4     33.323     34.492
REMARK  Name = 
REMARK  5 active torsions:
REMARK  status: ('A' for Active; 'I' for Inactive)
REMARK    1  A    between atoms: O_2  and  C_3
REMARK    2  A    between atoms: C_5  and  C_6
REMARK    3  A    between atoms: C_6  and  S_7
REMARK    4  A    between atoms: S_7  and  C_8
REMARK    5  A    between atoms: C_15  and  O_16
REMARK                            x       y       z     vdW  Elec       q    Type
REMARK                         _______ _______ _______ _____ _____    ______ ____
ROOT
ATOM      1  C   UNL     1      16.154  -9.516  23.530  0.00  0.00    +0.000 A 
ATOM      2  C   UNL     1      16.916  -9.976  24.574  0.00  0.00    +0.000 A 
ATOM      3  C   UNL     1      16.456  -9.812  25.862  0.00  0.00    +0.000 A 
ATOM      4  C   UNL     1      15.245  -9.193  26.089  0.00  0.00    +0.000 A 
ATOM      5  C   UNL     1      14.461  -8.722  25.058  0.00  0.00    +0.000 A 
ATOM      6  C   UNL     1      14.932  -8.891  23.771  0.00  0.00    +0.000 A 
ATOM      7  N   UNL     1      14.171  -8.428  22.644  0.00  0.00    +0.000 NA
ENDROOT
BRANCH   1   9
ATOM      8  C   UNL     1      16.748 -10.961  21.691  0.00  0.00    +0.000 C 
ATOM      9  O   UNL     1      16.567  -9.655  22.212  0.00  0.00    +0.000 OA
ENDBRANCH   1   9
BRANCH   5  10
ATOM     10  O   UNL     1      13.240  -8.097  25.281  0.00  0.00    +0.000 OA
ATOM     11  C   UNL     1      12.398  -8.638  26.301  0.00  0.00    +0.000 C 
ENDBRANCH   5  10
BRANCH   3  12
ATOM     12  C   UNL     1      17.272 -10.305  26.989  0.00  0.00    +0.000 C 
BRANCH  12  13
ATOM     13  S   UNL     1      17.695  -8.996  28.159  0.00  0.00    +0.000 S 
BRANCH  13  14
ATOM     14  C   UNL     1      18.507  -7.689  27.248  0.00  0.00    +0.000 A 
ATOM     15  C   UNL     1      19.604  -7.931  26.437  0.00  0.00    +0.000 A 
ATOM     16  C   UNL     1      20.183  -6.882  25.764  0.00  0.00    +0.000 A 
ATOM     17  C   UNL     1      19.694  -5.592  25.880  0.00  0.00    +0.000 A 
ATOM     18  C   UNL     1      18.595  -5.332  26.688  0.00  0.00    +0.000 A 
ATOM     19  C   UNL     1      18.046  -6.404  27.343  0.00  0.00    +0.000 A 
ENDBRANCH  13  14
ENDBRANCH  12  13
ENDBRANCH   3  12
TORSDOF 5
ENDMDL
MODEL 7
REMARK VINA RESULT:      -5.4      3.566      6.794
REMARK  Name = 
REMARK  5 active torsions:
REMARK  status: ('A' for Active; 'I' for Inactive)
REMARK    1  A    between atoms: O_2  and  C_3
REMARK    2  A    between atoms: C_5  and  C_6
REMARK    3  A    between atoms: C_6  and  S_7
REMARK    4  A    between atoms: S_7  and  C_8
REMARK    5  A    between atoms: C_15  and  O_16
REMARK                            x       y       z     vdW  Elec       q    Type
REMARK                         _______ _______ _______ _____ _____    ______ ____
ROOT
ATOM      1  C   UNL     1      26.101  23.932  29.575  0.00  0.00    +0.000 A 
ATOM      2  C   UNL     1      26.086  23.760  28.215  0.00  0.00    +0.000 A 
ATOM      3  C   UNL     1      25.375  24.647  27.435  0.00  0.00    +0.000 A 
ATOM      4  C   UNL     1      24.692  25.689  28.025  0.00  0.00    +0.000 A 
ATOM      5  C   UNL     1      24.692  25.884  29.389  0.00  0.00    +0.000 A 
ATOM      6  C   UNL     1      25.408  24.989  30.161  0.00  0.00    +0.000 A 
ATOM      7  N   UNL     1      25.455  25.126  31.589  0.00  0.00    +0.000 NA
ENDROOT
BRANCH   1   9
ATOM      8  C   UNL     1      26.511  21.683  30.348  0.00  0.00    +0.000 C 
ATOM      9  O   UNL     1      26.801  23.070  30.408  0.00  0.00    +0.000 OA
ENDBRANCH   1   9
BRANCH   5  10
ATOM     10  O   UNL     1      24.006  26.933  29.988  0.00  0.00    +0.000 OA
ATOM     11  C   UNL     1      22.580  26.926  29.898  0.00  0.00    +0.000 C 
ENDBRANCH   5  10
BRANCH   3  12
ATOM     12  C   UNL     1      25.355  24.467  25.971  0.00  0.00    +0.000 C 
BRANCH  12  13
ATOM     13  S   UNL     1      26.240  22.984  25.445  0.00  0.00    +0.000 S 
BRANCH  13  14
ATOM     14  C   UNL     1      27.325  23.441  24.100  0.00  0.00    +0.000 A 
ATOM     15  C   UNL     1      28.705  23.356  24.208  0.00  0.00    +0.000 A 
ATOM     16  C   UNL     1      29.484  23.723  23.137  0.00  0.00    +0.000 A 
ATOM     17  C   UNL     1      28.920  24.176  21.956  0.00  0.00    +0.000 A 
ATOM     18  C   UNL     1      27.540  24.268  21.832  0.00  0.00    +0.000 A 
ATOM     19  C   UNL     1      26.797  23.893  22.920  0.00  0.00    +0.000 A 
ENDBRANCH  13  14
ENDBRANCH  12  13
ENDBRANCH   3  12
TORSDOF 5
ENDMDL
MODEL 8
REMARK VINA RESULT:      -5.3      2.021      3.955
REMARK  Name = 
REMARK  5 active torsions:
REMARK  status: ('A' for Active; 'I' for Inactive)
REMARK    1  A    between atoms: O_2  and  C_3
REMARK    2  A    between atoms: C_5  and  C_6
REMARK    3  A    between atoms: C_6  and  S_7
REMARK    4  A    between atoms: S_7  and  C_8
REMARK    5  A    between atoms: C_15  and  O_16
REMARK                            x       y       z     vdW  Elec       q    Type
REMARK                         _______ _______ _______ _____ _____    ______ ____
ROOT
ATOM      1  C   UNL     1      27.712  25.475  22.312  0.00  0.00    +0.000 A 
ATOM      2  C   UNL     1      27.009  25.724  23.464  0.00  0.00    +0.000 A 
ATOM      3  C   UNL     1      27.468  25.203  24.654  0.00  0.00    +0.000 A 
ATOM      4  C   UNL     1      28.618  24.443  24.677  0.00  0.00    +0.000 A 
ATOM      5  C   UNL     1      29.342  24.179  23.534  0.00  0.00    +0.000 A 
ATOM      6  C   UNL     1      28.872  24.706  22.346  0.00  0.00    +0.000 A 
ATOM      7  N   UNL     1      29.572  24.474  21.114  0.00  0.00    +0.000 NA
ENDROOT
BRANCH   1   9
ATOM      8  C   UNL     1      27.382  27.372  20.858  0.00  0.00    +0.000 C 
ATOM      9  O   UNL     1      27.296  25.975  21.086  0.00  0.00    +0.000 OA
ENDBRANCH   1   9
BRANCH   5  10
ATOM     10  O   UNL     1      30.501  23.414  23.551  0.00  0.00    +0.000 OA
ATOM     11  C   UNL     1      30.851  22.771  24.779  0.00  0.00    +0.000 C 
ENDBRANCH   5  10
BRANCH   3  12
ATOM     12  C   UNL     1      26.717  25.467  25.896  0.00  0.00    +0.000 C 
BRANCH  12  13
ATOM     13  S   UNL     1      25.851  24.004  26.504  0.00  0.00    +0.000 S 
BRANCH  13  14
ATOM     14  C   UNL     1      26.668  23.465  28.000  0.00  0.00    +0.000 A 
ATOM     15  C   UNL     1      27.941  22.916  27.984  0.00  0.00    +0.000 A 
ATOM     16  C   UNL     1      28.514  22.520  29.168  0.00  0.00    +0.000 A 
ATOM     17  C   UNL     1      27.848  22.659  30.374  0.00  0.00    +0.000 A 
ATOM     18  C   UNL     1      26.573  23.207  30.407  0.00  0.00    +0.000 A 
ATOM     19  C   UNL     1      26.035  23.589  29.206  0.00  0.00    +0.000 A 
ENDBRANCH  13  14
ENDBRANCH  12  13
ENDBRANCH   3  12
TORSDOF 5
ENDMDL
MODEL 9
REMARK VINA RESULT:      -5.3     17.492     18.810
REMARK  Name = 
REMARK  5 active torsions:
REMARK  status: ('A' for Active; 'I' for Inactive)
REMARK    1  A    between atoms: O_2  and  C_3
REMARK    2  A    between atoms: C_5  and  C_6
REMARK    3  A    between atoms: C_6  and  S_7
REMARK    4  A    between atoms: S_7  and  C_8
REMARK    5  A    between atoms: C_15  and  O_16
REMARK                            x       y       z     vdW  Elec       q    Type
REMARK                         _______ _______ _______ _____ _____    ______ ____
ROOT
ATOM      1  C   UNL     1      20.950  12.596  38.579  0.00  0.00    +0.000 A 
ATOM      2  C   UNL     1      19.718  12.038  38.347  0.00  0.00    +0.000 A 
ATOM      3  C   UNL     1      19.646  10.801  37.743  0.00  0.00    +0.000 A 
ATOM      4  C   UNL     1      20.802  10.143  37.380  0.00  0.00    +0.000 A 
ATOM      5  C   UNL     1      22.051  10.681  37.603  0.00  0.00    +0.000 A 
ATOM      6  C   UNL     1      22.111  11.921  38.209  0.00  0.00    +0.000 A 
ATOM      7  N   UNL     1      23.375  12.548  38.474  0.00  0.00    +0.000 NA
ENDROOT
BRANCH   1   9
ATOM      8  C   UNL     1      20.271  14.907  38.726  0.00  0.00    +0.000 C 
ATOM      9  O   UNL     1      21.081  13.837  39.185  0.00  0.00    +0.000 OA
ENDBRANCH   1   9
BRANCH   5  10
ATOM     10  O   UNL     1      23.218  10.022  37.239  0.00  0.00    +0.000 OA
ATOM     11  C   UNL     1      23.587  10.044  35.859  0.00  0.00    +0.000 C 
ENDBRANCH   5  10
BRANCH   3  12
ATOM     12  C   UNL     1      18.324  10.196  37.490  0.00  0.00    +0.000 C 
BRANCH  12  13
ATOM     13  S   UNL     1      17.059  11.430  37.120  0.00  0.00    +0.000 S 
BRANCH  13  14
ATOM     14  C   UNL     1      16.629  11.272  35.392  0.00  0.00    +0.000 A 
ATOM     15  C   UNL     1      15.525  11.912  34.849  0.00  0.00    +0.000 A 
ATOM     16  C   UNL     1      15.248  11.749  33.513  0.00  0.00    +0.000 A 
ATOM     17  C   UNL     1      16.047  10.962  32.701  0.00  0.00    +0.000 A 
ATOM     18  C   UNL     1      17.155  10.315  33.229  0.00  0.00    +0.000 A 
ATOM     19  C   UNL     1      17.399  10.501  34.565  0.00  0.00    +0.000 A 
ENDBRANCH  13  14
ENDBRANCH  12  13
ENDBRANCH   3  12
TORSDOF 5
ENDMDL
MODEL 10
REMARK VINA RESULT:      -5.2      1.965      2.813
REMARK  Name = 
REMARK  5 active torsions:
REMARK  status: ('A' for Active; 'I' for Inactive)
REMARK    1  A    between atoms: O_2  and  C_3
REMARK    2  A    between atoms: C_5  and  C_6
REMARK    3  A    between atoms: C_6  and  S_7
REMARK    4  A    between atoms: S_7  and  C_8
REMARK    5  A    between atoms: C_15  and  O_16
REMARK                            x       y       z     vdW  Elec       q    Type
REMARK                         _______ _______ _______ _____ _____    ______ ____
ROOT
ATOM      1  C   UNL     1      30.223  23.311  24.393  0.00  0.00    +0.000 A 
ATOM      2  C   UNL     1      29.963  22.866  25.664  0.00  0.00    +0.000 A 
ATOM      3  C   UNL     1      28.664  22.572  26.019  0.00  0.00    +0.000 A 
ATOM      4  C   UNL     1      27.647  22.726  25.101  0.00  0.00    +0.000 A 
ATOM      5  C   UNL     1      27.882  23.170  23.817  0.00  0.00    +0.000 A 
ATOM      6  C   UNL     1      29.187  23.463  23.474  0.00  0.00    +0.000 A 
ATOM      7  N   UNL     1      29.512  23.931  22.155  0.00  0.00    +0.000 NA
ENDROOT
BRANCH   1   9
ATOM      8  C   UNL     1      32.362  24.315  24.879  0.00  0.00    +0.000 C 
ATOM      9  O   UNL     1      31.512  23.621  23.982  0.00  0.00    +0.000 OA
ENDBRANCH   1   9
BRANCH   5  10
ATOM     10  O   UNL     1      26.861  23.327  22.889  0.00  0.00    +0.000 OA
ATOM     11  C   UNL     1      25.516  23.207  23.358  0.00  0.00    +0.000 C 
ENDBRANCH   5  10
BRANCH   3  12
ATOM     12  C   UNL     1      28.378  22.093  27.385  0.00  0.00    +0.000 C 
BRANCH  12  13
ATOM     13  S   UNL     1      28.203  23.446  28.568  0.00  0.00    +0.000 S 
BRANCH  13  14
ATOM     14  C   UNL     1      27.022  24.610  27.898  0.00  0.00    +0.000 A 
ATOM     15  C   UNL     1      27.407  25.853  27.420  0.00  0.00    +0.000 A 
ATOM     16  C   UNL     1      26.450  26.703  26.918  0.00  0.00    +0.000 A 
ATOM     17  C   UNL     1      25.114  26.342  26.880  0.00  0.00    +0.000 A 
ATOM     18  C   UNL     1      24.712  25.101  27.354  0.00  0.00    +0.000 A 
ATOM     19  C   UNL     1      25.694  24.282  27.847  0.00  0.00    +0.000 A 
ENDBRANCH  13  14
ENDBRANCH  12  13
ENDBRANCH   3  12
TORSDOF 5
ENDMDL
