MODEL 1
REMARK VINA RESULT:      -6.3      0.000      0.000
REMARK  Name = 
REMARK  4 active torsions:
REMARK  status: ('A' for Active; 'I' for Inactive)
REMARK    1  A    between atoms: C_2  and  C_3
REMARK    2  A    between atoms: C_3  and  N_4
REMARK    3  A    between atoms: C_7  and  C_8
REMARK    4  A    between atoms: C_8  and  O_10
REMARK                            x       y       z     vdW  Elec       q    Type
REMARK                         _______ _______ _______ _____ _____    ______ ____
ROOT
ATOM      1  N   UNL     1      29.674  23.035  28.743  0.00  0.00    +0.000 N 
ATOM      2  C   UNL     1      28.899  22.909  29.840  0.00  0.00    +0.000 A 
ATOM      3  N   UNL     1      29.343  22.815  31.186  0.00  0.00    +0.000 NA
ATOM      4  C   UNL     1      27.570  22.880  29.477  0.00  0.00    +0.000 A 
ATOM      5  C   UNL     1      27.532  22.993  28.101  0.00  0.00    +0.000 A 
ATOM      6  N   UNL     1      26.533  23.025  27.200  0.00  0.00    +0.000 NA
ATOM      7  C   UNL     1      26.776  23.147  25.870  0.00  0.00    +0.000 A 
ATOM      8  C   UNL     1      25.753  23.179  24.938  0.00  0.00    +0.000 A 
ATOM      9  C   UNL     1      26.040  23.305  23.584  0.00  0.00    +0.000 A 
ATOM     10  C   UNL     1      27.345  23.401  23.144  0.00  0.00    +0.000 A 
ATOM     11  C   UNL     1      28.340  23.365  24.101  0.00  0.00    +0.000 A 
ATOM     12  C   UNL     1      28.081  23.240  25.451  0.00  0.00    +0.000 A 
ATOM     13  N   UNL     1      29.093  23.209  26.365  0.00  0.00    +0.000 NA
ATOM     14  C   UNL     1      28.843  23.087  27.685  0.00  0.00    +0.000 A 
ENDROOT
BRANCH   4  15
ATOM     15  C   UNL     1      26.405  22.756  30.343  0.00  0.00    +0.000 C 
ATOM     16  O   UNL     1      26.014  21.645  30.774  0.00  0.00    +0.000 OA
BRANCH  15  17
ATOM     17  O   UNL     1      25.729  23.906  30.685  0.00  0.00    +0.000 OA
ATOM     18  C   UNL     1      26.327  25.011  31.335  0.00  0.00    +0.000 C 
ENDBRANCH  15  17
ENDBRANCH   4  15
BRANCH   1  19
ATOM     19  C   UNL     1      31.123  23.096  28.786  0.00  0.00    +0.000 C 
BRANCH  19  21
ATOM     20  C   UNL     1      32.733  21.398  29.467  0.00  0.00    +0.000 C 
ATOM     21  C   UNL     1      31.710  21.734  28.691  0.00  0.00    +0.000 C 
ENDBRANCH  19  21
ENDBRANCH   1  19
TORSDOF 4
ENDMDL
MODEL 2
REMARK VINA RESULT:      -5.7      1.513      5.201
REMARK  Name = 
REMARK  4 active torsions:
REMARK  status: ('A' for Active; 'I' for Inactive)
REMARK    1  A    between atoms: C_2  and  C_3
REMARK    2  A    between atoms: C_3  and  N_4
REMARK    3  A    between atoms: C_7  and  C_8
REMARK    4  A    between atoms: C_8  and  O_10
REMARK                            x       y       z     vdW  Elec       q    Type
REMARK                         _______ _______ _______ _____ _____    ______ ____
ROOT
ATOM      1  N   UNL     1      28.693  23.505  27.647  0.00  0.00    +0.000 N 
ATOM      2  C   UNL     1      27.477  23.575  28.225  0.00  0.00    +0.000 A 
ATOM      3  N   UNL     1      26.274  24.025  27.618  0.00  0.00    +0.000 NA
ATOM      4  C   UNL     1      27.550  23.139  29.530  0.00  0.00    +0.000 A 
ATOM      5  C   UNL     1      28.865  22.787  29.757  0.00  0.00    +0.000 A 
ATOM      6  N   UNL     1      29.525  22.302  30.826  0.00  0.00    +0.000 NA
ATOM      7  C   UNL     1      30.855  22.036  30.782  0.00  0.00    +0.000 A 
ATOM      8  C   UNL     1      31.539  21.537  31.878  0.00  0.00    +0.000 A 
ATOM      9  C   UNL     1      32.902  21.276  31.795  0.00  0.00    +0.000 A 
ATOM     10  C   UNL     1      33.596  21.506  30.625  0.00  0.00    +0.000 A 
ATOM     11  C   UNL     1      32.882  22.003  29.552  0.00  0.00    +0.000 A 
ATOM     12  C   UNL     1      31.529  22.271  29.608  0.00  0.00    +0.000 A 
ATOM     13  N   UNL     1      30.860  22.762  28.526  0.00  0.00    +0.000 NA
ATOM     14  C   UNL     1      29.538  23.025  28.578  0.00  0.00    +0.000 A 
ENDROOT
BRANCH   4  15
ATOM     15  C   UNL     1      26.474  23.050  30.509  0.00  0.00    +0.000 C 
ATOM     16  O   UNL     1      25.806  22.001  30.667  0.00  0.00    +0.000 OA
BRANCH  15  17
ATOM     17  O   UNL     1      26.202  24.163  31.273  0.00  0.00    +0.000 OA
ATOM     18  C   UNL     1      25.466  25.279  30.812  0.00  0.00    +0.000 C 
ENDBRANCH  15  17
ENDBRANCH   4  15
BRANCH   1  19
ATOM     19  C   UNL     1      28.953  23.893  26.273  0.00  0.00    +0.000 C 
BRANCH  19  21
ATOM     20  C   UNL     1      29.316  22.841  24.106  0.00  0.00    +0.000 C 
ATOM     21  C   UNL     1      29.112  22.695  25.408  0.00  0.00    +0.000 C 
ENDBRANCH  19  21
ENDBRANCH   1  19
TORSDOF 4
ENDMDL
MODEL 3
REMARK VINA RESULT:      -5.7     18.031     20.033
REMARK  Name = 
REMARK  4 active torsions:
REMARK  status: ('A' for Active; 'I' for Inactive)
REMARK    1  A    between atoms: C_2  and  C_3
REMARK    2  A    between atoms: C_3  and  N_4
REMARK    3  A    between atoms: C_7  and  C_8
REMARK    4  A    between atoms: C_8  and  O_10
REMARK                            x       y       z     vdW  Elec       q    Type
REMARK                         _______ _______ _______ _____ _____    ______ ____
ROOT
ATOM      1  N   UNL     1      19.069  10.030  38.487  0.00  0.00    +0.000 N 
ATOM      2  C   UNL     1      18.892   9.330  39.628  0.00  0.00    +0.000 A 
ATOM      3  N   UNL     1      19.896   8.656  40.373  0.00  0.00    +0.000 NA
ATOM      4  C   UNL     1      17.564   9.352  39.993  0.00  0.00    +0.000 A 
ATOM      5  C   UNL     1      16.902  10.095  39.036  0.00  0.00    +0.000 A 
ATOM      6  N   UNL     1      15.615  10.454  38.866  0.00  0.00    +0.000 NA
ATOM      7  C   UNL     1      15.221  11.211  37.810  0.00  0.00    +0.000 A 
ATOM      8  C   UNL     1      13.899  11.583  37.629  0.00  0.00    +0.000 A 
ATOM      9  C   UNL     1      13.531  12.358  36.536  0.00  0.00    +0.000 A 
ATOM     10  C   UNL     1      14.472  12.771  35.614  0.00  0.00    +0.000 A 
ATOM     11  C   UNL     1      15.780  12.382  35.826  0.00  0.00    +0.000 A 
ATOM     12  C   UNL     1      16.171  11.612  36.903  0.00  0.00    +0.000 A 
ATOM     13  N   UNL     1      17.473  11.248  37.077  0.00  0.00    +0.000 NA
ATOM     14  C   UNL     1      17.858  10.496  38.128  0.00  0.00    +0.000 A 
ENDROOT
BRANCH   4  15
ATOM     15  C   UNL     1      16.940   8.726  41.152  0.00  0.00    +0.000 C 
ATOM     16  O   UNL     1      16.872   9.305  42.262  0.00  0.00    +0.000 OA
BRANCH  15  17
ATOM     17  O   UNL     1      16.416   7.462  40.999  0.00  0.00    +0.000 OA
ATOM     18  C   UNL     1      17.181   6.274  41.067  0.00  0.00    +0.000 C 
ENDBRANCH  15  17
ENDBRANCH   4  15
BRANCH   1  19
ATOM     19  C   UNL     1      20.356  10.198  37.840  0.00  0.00    +0.000 C 
BRANCH  19  21
ATOM     20  C   UNL     1      21.247  11.967  39.259  0.00  0.00    +0.000 C 
ATOM     21  C   UNL     1      20.873  11.576  38.047  0.00  0.00    +0.000 C 
ENDBRANCH  19  21
ENDBRANCH   1  19
TORSDOF 4
ENDMDL
MODEL 4
REMARK VINA RESULT:      -5.5     17.249     19.596
REMARK  Name = 
REMARK  4 active torsions:
REMARK  status: ('A' for Active; 'I' for Inactive)
REMARK    1  A    between atoms: C_2  and  C_3
REMARK    2  A    between atoms: C_3  and  N_4
REMARK    3  A    between atoms: C_7  and  C_8
REMARK    4  A    between atoms: C_8  and  O_10
REMARK                            x       y       z     vdW  Elec       q    Type
REMARK                         _______ _______ _______ _____ _____    ______ ____
ROOT
ATOM      1  N   UNL     1      17.737   9.857  39.456  0.00  0.00    +0.000 N 
ATOM      2  C   UNL     1      16.886  10.311  38.513  0.00  0.00    +0.000 A 
ATOM      3  N   UNL     1      15.495  10.553  38.672  0.00  0.00    +0.000 NA
ATOM      4  C   UNL     1      17.560  10.518  37.329  0.00  0.00    +0.000 A 
ATOM      5  C   UNL     1      18.878  10.176  37.560  0.00  0.00    +0.000 A 
ATOM      6  N   UNL     1      19.983  10.173  36.791  0.00  0.00    +0.000 NA
ATOM      7  C   UNL     1      21.188   9.780  37.278  0.00  0.00    +0.000 A 
ATOM      8  C   UNL     1      22.328   9.773  36.492  0.00  0.00    +0.000 A 
ATOM      9  C   UNL     1      23.546   9.365  37.025  0.00  0.00    +0.000 A 
ATOM     10  C   UNL     1      23.641   8.960  38.341  0.00  0.00    +0.000 A 
ATOM     11  C   UNL     1      22.484   8.979  39.094  0.00  0.00    +0.000 A 
ATOM     12  C   UNL     1      21.263   9.380  38.590  0.00  0.00    +0.000 A 
ATOM     13  N   UNL     1      20.143   9.385  39.367  0.00  0.00    +0.000 NA
ATOM     14  C   UNL     1      18.949   9.776  38.877  0.00  0.00    +0.000 A 
ENDROOT
BRANCH   4  15
ATOM     15  C   UNL     1      17.025  11.000  36.063  0.00  0.00    +0.000 C 
ATOM     16  O   UNL     1      16.734  12.206  35.882  0.00  0.00    +0.000 OA
BRANCH  15  17
ATOM     17  O   UNL     1      16.842  10.086  35.049  0.00  0.00    +0.000 OA
ATOM     18  C   UNL     1      17.391  10.223  33.753  0.00  0.00    +0.000 C 
ENDBRANCH  15  17
ENDBRANCH   4  15
BRANCH   1  19
ATOM     19  C   UNL     1      17.337   9.543  40.815  0.00  0.00    +0.000 C 
BRANCH  19  21
ATOM     20  C   UNL     1      17.513   7.116  40.949  0.00  0.00    +0.000 C 
ATOM     21  C   UNL     1      16.732   8.187  40.885  0.00  0.00    +0.000 C 
ENDBRANCH  19  21
ENDBRANCH   1  19
TORSDOF 4
ENDMDL
MODEL 5
REMARK VINA RESULT:      -5.5      2.217      4.091
REMARK  Name = 
REMARK  4 active torsions:
REMARK  status: ('A' for Active; 'I' for Inactive)
REMARK    1  A    between atoms: C_2  and  C_3
REMARK    2  A    between atoms: C_3  and  N_4
REMARK    3  A    between atoms: C_7  and  C_8
REMARK    4  A    between atoms: C_8  and  O_10
REMARK                            x       y       z     vdW  Elec       q    Type
REMARK                         _______ _______ _______ _____ _____    ______ ____
ROOT
ATOM      1  N   UNL     1      27.638  22.768  29.039  0.00  0.00    +0.000 N 
ATOM      2  C   UNL     1      28.913  22.678  29.472  0.00  0.00    +0.000 A 
ATOM      3  N   UNL     1      29.343  22.521  30.817  0.00  0.00    +0.000 NA
ATOM      4  C   UNL     1      29.780  22.761  28.405  0.00  0.00    +0.000 A 
ATOM      5  C   UNL     1      29.003  22.908  27.273  0.00  0.00    +0.000 A 
ATOM      6  N   UNL     1      29.286  23.037  25.963  0.00  0.00    +0.000 NA
ATOM      7  C   UNL     1      28.307  23.169  25.033  0.00  0.00    +0.000 A 
ATOM      8  C   UNL     1      28.591  23.302  23.684  0.00  0.00    +0.000 A 
ATOM      9  C   UNL     1      27.562  23.435  22.759  0.00  0.00    +0.000 A 
ATOM     10  C   UNL     1      26.243  23.437  23.165  0.00  0.00    +0.000 A 
ATOM     11  C   UNL     1      25.996  23.302  24.517  0.00  0.00    +0.000 A 
ATOM     12  C   UNL     1      27.000  23.169  25.456  0.00  0.00    +0.000 A 
ATOM     13  N   UNL     1      26.714  23.038  26.782  0.00  0.00    +0.000 NA
ATOM     14  C   UNL     1      27.693  22.907  27.702  0.00  0.00    +0.000 A 
ENDROOT
BRANCH   4  15
ATOM     15  C   UNL     1      31.236  22.709  28.424  0.00  0.00    +0.000 C 
ATOM     16  O   UNL     1      31.860  21.624  28.499  0.00  0.00    +0.000 OA
BRANCH  15  17
ATOM     17  O   UNL     1      31.927  23.899  28.355  0.00  0.00    +0.000 OA
ATOM     18  C   UNL     1      33.229  24.027  27.819  0.00  0.00    +0.000 C 
ENDBRANCH  15  17
ENDBRANCH   4  15
BRANCH   1  19
ATOM     19  C   UNL     1      26.486  22.715  29.919  0.00  0.00    +0.000 C 
BRANCH  19  21
ATOM     20  C   UNL     1      25.532  24.949  29.729  0.00  0.00    +0.000 C 
ATOM     21  C   UNL     1      26.182  24.061  30.471  0.00  0.00    +0.000 C 
ENDBRANCH  19  21
ENDBRANCH   1  19
TORSDOF 4
ENDMDL
MODEL 6
REMARK VINA RESULT:      -5.4      3.109      5.437
REMARK  Name = 
REMARK  4 active torsions:
REMARK  status: ('A' for Active; 'I' for Inactive)
REMARK    1  A    between atoms: C_2  and  C_3
REMARK    2  A    between atoms: C_3  and  N_4
REMARK    3  A    between atoms: C_7  and  C_8
REMARK    4  A    between atoms: C_8  and  O_10
REMARK                            x       y       z     vdW  Elec       q    Type
REMARK                         _______ _______ _______ _____ _____    ______ ____
ROOT
ATOM      1  N   UNL     1      30.128  23.299  24.905  0.00  0.00    +0.000 N 
ATOM      2  C   UNL     1      29.331  23.602  23.860  0.00  0.00    +0.000 A 
ATOM      3  N   UNL     1      29.737  23.804  22.514  0.00  0.00    +0.000 NA
ATOM      4  C   UNL     1      28.021  23.696  24.278  0.00  0.00    +0.000 A 
ATOM      5  C   UNL     1      28.019  23.440  25.635  0.00  0.00    +0.000 A 
ATOM      6  N   UNL     1      27.050  23.390  26.569  0.00  0.00    +0.000 NA
ATOM      7  C   UNL     1      27.326  23.107  27.867  0.00  0.00    +0.000 A 
ATOM      8  C   UNL     1      26.334  23.056  28.832  0.00  0.00    +0.000 A 
ATOM      9  C   UNL     1      26.654  22.762  30.153  0.00  0.00    +0.000 A 
ATOM     10  C   UNL     1      27.960  22.518  30.526  0.00  0.00    +0.000 A 
ATOM     11  C   UNL     1      28.923  22.578  29.538  0.00  0.00    +0.000 A 
ATOM     12  C   UNL     1      28.632  22.867  28.220  0.00  0.00    +0.000 A 
ATOM     13  N   UNL     1      29.612  22.917  27.273  0.00  0.00    +0.000 NA
ATOM     14  C   UNL     1      29.330  23.199  25.985  0.00  0.00    +0.000 A 
ENDROOT
BRANCH   4  15
ATOM     15  C   UNL     1      26.843  24.004  23.479  0.00  0.00    +0.000 C 
ATOM     16  O   UNL     1      26.277  23.138  22.770  0.00  0.00    +0.000 OA
BRANCH  15  17
ATOM     17  O   UNL     1      26.353  25.291  23.519  0.00  0.00    +0.000 OA
ATOM     18  C   UNL     1      27.125  26.420  23.876  0.00  0.00    +0.000 C 
ENDBRANCH  15  17
ENDBRANCH   4  15
BRANCH   1  19
ATOM     19  C   UNL     1      31.565  23.129  24.796  0.00  0.00    +0.000 C 
BRANCH  19  21
ATOM     20  C   UNL     1      32.836  25.207  24.845  0.00  0.00    +0.000 C 
ATOM     21  C   UNL     1      32.279  24.211  25.522  0.00  0.00    +0.000 C 
ENDBRANCH  19  21
ENDBRANCH   1  19
TORSDOF 4
ENDMDL
MODEL 7
REMARK VINA RESULT:      -5.3     31.812     32.488
REMARK  Name = 
REMARK  4 active torsions:
REMARK  status: ('A' for Active; 'I' for Inactive)
REMARK    1  A    between atoms: C_2  and  C_3
REMARK    2  A    between atoms: C_3  and  N_4
REMARK    3  A    between atoms: C_7  and  C_8
REMARK    4  A    between atoms: C_8  and  O_10
REMARK                            x       y       z     vdW  Elec       q    Type
REMARK                         _______ _______ _______ _____ _____    ______ ____
ROOT
ATOM      1  N   UNL     1      22.624 -10.113  25.708  0.00  0.00    +0.000 N 
ATOM      2  C   UNL     1      23.589  -9.653  24.885  0.00  0.00    +0.000 A 
ATOM      3  N   UNL     1      24.733 -10.368  24.437  0.00  0.00    +0.000 NA
ATOM      4  C   UNL     1      23.317  -8.353  24.519  0.00  0.00    +0.000 A 
ATOM      5  C   UNL     1      22.137  -8.004  25.145  0.00  0.00    +0.000 A 
ATOM      6  N   UNL     1      21.392  -6.883  25.163  0.00  0.00    +0.000 NA
ATOM      7  C   UNL     1      20.243  -6.802  25.880  0.00  0.00    +0.000 A 
ATOM      8  C   UNL     1      19.473  -5.651  25.902  0.00  0.00    +0.000 A 
ATOM      9  C   UNL     1      18.301  -5.605  26.649  0.00  0.00    +0.000 A 
ATOM     10  C   UNL     1      17.884  -6.700  27.378  0.00  0.00    +0.000 A 
ATOM     11  C   UNL     1      18.676  -7.830  27.333  0.00  0.00    +0.000 A 
ATOM     12  C   UNL     1      19.844  -7.902  26.600  0.00  0.00    +0.000 A 
ATOM     13  N   UNL     1      20.599  -9.037  26.581  0.00  0.00    +0.000 NA
ATOM     14  C   UNL     1      21.740  -9.110  25.866  0.00  0.00    +0.000 A 
ENDROOT
BRANCH   4  15
ATOM     15  C   UNL     1      24.096  -7.483  23.647  0.00  0.00    +0.000 C 
ATOM     16  O   UNL     1      25.093  -6.847  24.063  0.00  0.00    +0.000 OA
BRANCH  15  17
ATOM     17  O   UNL     1      23.706  -7.373  22.330  0.00  0.00    +0.000 OA
ATOM     18  C   UNL     1      23.168  -8.440  21.573  0.00  0.00    +0.000 C 
ENDBRANCH  15  17
ENDBRANCH   4  15
BRANCH   1  19
ATOM     19  C   UNL     1      22.618 -11.450  26.271  0.00  0.00    +0.000 C 
BRANCH  19  21
ATOM     20  C   UNL     1      24.342 -12.027  27.894  0.00  0.00    +0.000 C 
ATOM     21  C   UNL     1      23.175 -11.444  27.648  0.00  0.00    +0.000 C 
ENDBRANCH  19  21
ENDBRANCH   1  19
TORSDOF 4
ENDMDL
MODEL 8
REMARK VINA RESULT:      -5.3     27.423     29.438
REMARK  Name = 
REMARK  4 active torsions:
REMARK  status: ('A' for Active; 'I' for Inactive)
REMARK    1  A    between atoms: C_2  and  C_3
REMARK    2  A    between atoms: C_3  and  N_4
REMARK    3  A    between atoms: C_7  and  C_8
REMARK    4  A    between atoms: C_8  and  O_10
REMARK                            x       y       z     vdW  Elec       q    Type
REMARK                         _______ _______ _______ _____ _____    ______ ____
ROOT
ATOM      1  N   UNL     1      33.772  -6.074  31.686  0.00  0.00    +0.000 N 
ATOM      2  C   UNL     1      33.066  -7.161  32.060  0.00  0.00    +0.000 A 
ATOM      3  N   UNL     1      33.114  -8.450  31.465  0.00  0.00    +0.000 NA
ATOM      4  C   UNL     1      32.259  -6.852  33.134  0.00  0.00    +0.000 A 
ATOM      5  C   UNL     1      32.482  -5.522  33.428  0.00  0.00    +0.000 A 
ATOM      6  N   UNL     1      31.989  -4.681  34.357  0.00  0.00    +0.000 NA
ATOM      7  C   UNL     1      32.389  -3.386  34.430  0.00  0.00    +0.000 A 
ATOM      8  C   UNL     1      31.885  -2.517  35.383  0.00  0.00    +0.000 A 
ATOM      9  C   UNL     1      32.318  -1.197  35.427  0.00  0.00    +0.000 A 
ATOM     10  C   UNL     1      33.254  -0.729  34.527  0.00  0.00    +0.000 A 
ATOM     11  C   UNL     1      33.734  -1.623  33.591  0.00  0.00    +0.000 A 
ATOM     12  C   UNL     1      33.321  -2.939  33.525  0.00  0.00    +0.000 A 
ATOM     13  N   UNL     1      33.820  -3.791  32.585  0.00  0.00    +0.000 NA
ATOM     14  C   UNL     1      33.418  -5.077  32.519  0.00  0.00    +0.000 A 
ENDROOT
BRANCH   4  15
ATOM     15  C   UNL     1      31.338  -7.728  33.847  0.00  0.00    +0.000 C 
ATOM     16  O   UNL     1      31.710  -8.437  34.812  0.00  0.00    +0.000 OA
BRANCH  15  17
ATOM     17  O   UNL     1      30.026  -7.761  33.431  0.00  0.00    +0.000 OA
ATOM     18  C   UNL     1      29.548  -8.585  32.385  0.00  0.00    +0.000 C 
ENDBRANCH  15  17
ENDBRANCH   4  15
BRANCH   1  19
ATOM     19  C   UNL     1      34.715  -6.069  30.584  0.00  0.00    +0.000 C 
BRANCH  19  21
ATOM     20  C   UNL     1      33.972  -6.383  28.285  0.00  0.00    +0.000 C 
ATOM     21  C   UNL     1      34.067  -5.582  29.339  0.00  0.00    +0.000 C 
ENDBRANCH  19  21
ENDBRANCH   1  19
TORSDOF 4
ENDMDL
MODEL 9
REMARK VINA RESULT:      -5.3      2.647      4.774
REMARK  Name = 
REMARK  4 active torsions:
REMARK  status: ('A' for Active; 'I' for Inactive)
REMARK    1  A    between atoms: C_2  and  C_3
REMARK    2  A    between atoms: C_3  and  N_4
REMARK    3  A    between atoms: C_7  and  C_8
REMARK    4  A    between atoms: C_8  and  O_10
REMARK                            x       y       z     vdW  Elec       q    Type
REMARK                         _______ _______ _______ _____ _____    ______ ____
ROOT
ATOM      1  N   UNL     1      25.025  25.853  29.137  0.00  0.00    +0.000 N 
ATOM      2  C   UNL     1      25.381  25.075  30.180  0.00  0.00    +0.000 A 
ATOM      3  N   UNL     1      25.107  25.320  31.552  0.00  0.00    +0.000 NA
ATOM      4  C   UNL     1      26.073  23.972  29.731  0.00  0.00    +0.000 A 
ATOM      5  C   UNL     1      26.142  24.080  28.356  0.00  0.00    +0.000 A 
ATOM      6  N   UNL     1      26.684  23.314  27.391  0.00  0.00    +0.000 NA
ATOM      7  C   UNL     1      26.608  23.658  26.080  0.00  0.00    +0.000 A 
ATOM      8  C   UNL     1      27.164  22.875  25.083  0.00  0.00    +0.000 A 
ATOM      9  C   UNL     1      27.065  23.260  23.751  0.00  0.00    +0.000 A 
ATOM     10  C   UNL     1      26.414  24.424  23.398  0.00  0.00    +0.000 A 
ATOM     11  C   UNL     1      25.872  25.180  24.418  0.00  0.00    +0.000 A 
ATOM     12  C   UNL     1      25.956  24.821  25.748  0.00  0.00    +0.000 A 
ATOM     13  N   UNL     1      25.406  25.596  26.727  0.00  0.00    +0.000 NA
ATOM     14  C   UNL     1      25.487  25.247  28.027  0.00  0.00    +0.000 A 
ENDROOT
BRANCH   4  15
ATOM     15  C   UNL     1      26.637  22.883  30.518  0.00  0.00    +0.000 C 
ATOM     16  O   UNL     1      25.969  21.865  30.817  0.00  0.00    +0.000 OA
BRANCH  15  17
ATOM     17  O   UNL     1      27.945  22.997  30.935  0.00  0.00    +0.000 OA
ATOM     18  C   UNL     1      29.064  22.748  30.105  0.00  0.00    +0.000 C 
ENDBRANCH  15  17
ENDBRANCH   4  15
BRANCH   1  19
ATOM     19  C   UNL     1      24.283  27.092  29.275  0.00  0.00    +0.000 C 
BRANCH  19  21
ATOM     20  C   UNL     1      22.096  27.747  28.425  0.00  0.00    +0.000 C 
ATOM     21  C   UNL     1      22.828  26.859  29.085  0.00  0.00    +0.000 C 
ENDBRANCH  19  21
ENDBRANCH   1  19
TORSDOF 4
ENDMDL
MODEL 10
REMARK VINA RESULT:      -5.3     27.312     29.276
REMARK  Name = 
REMARK  4 active torsions:
REMARK  status: ('A' for Active; 'I' for Inactive)
REMARK    1  A    between atoms: C_2  and  C_3
REMARK    2  A    between atoms: C_3  and  N_4
REMARK    3  A    between atoms: C_7  and  C_8
REMARK    4  A    between atoms: C_8  and  O_10
REMARK                            x       y       z     vdW  Elec       q    Type
REMARK                         _______ _______ _______ _____ _____    ______ ____
ROOT
ATOM      1  N   UNL     1      35.386  -5.682  34.277  0.00  0.00    +0.000 N 
ATOM      2  C   UNL     1      34.756  -4.616  34.813  0.00  0.00    +0.000 A 
ATOM      3  N   UNL     1      34.897  -4.125  36.138  0.00  0.00    +0.000 NA
ATOM      4  C   UNL     1      33.924  -4.041  33.877  0.00  0.00    +0.000 A 
ATOM      5  C   UNL     1      34.052  -4.787  32.722  0.00  0.00    +0.000 A 
ATOM      6  N   UNL     1      33.497  -4.706  31.498  0.00  0.00    +0.000 NA
ATOM      7  C   UNL     1      33.805  -5.590  30.516  0.00  0.00    +0.000 A 
ATOM      8  C   UNL     1      33.236  -5.512  29.255  0.00  0.00    +0.000 A 
ATOM      9  C   UNL     1      33.576  -6.436  28.273  0.00  0.00    +0.000 A 
ATOM     10  C   UNL     1      34.481  -7.444  28.535  0.00  0.00    +0.000 A 
ATOM     11  C   UNL     1      35.028  -7.492  29.802  0.00  0.00    +0.000 A 
ATOM     12  C   UNL     1      34.708  -6.587  30.794  0.00  0.00    +0.000 A 
ATOM     13  N   UNL     1      35.270  -6.668  32.034  0.00  0.00    +0.000 NA
ATOM     14  C   UNL     1      34.959  -5.786  33.005  0.00  0.00    +0.000 A 
ENDROOT
BRANCH   4  15
ATOM     15  C   UNL     1      33.063  -2.877  34.034  0.00  0.00    +0.000 C 
ATOM     16  O   UNL     1      31.957  -2.943  34.621  0.00  0.00    +0.000 OA
BRANCH  15  17
ATOM     17  O   UNL     1      33.499  -1.677  33.517  0.00  0.00    +0.000 OA
ATOM     18  C   UNL     1      34.187  -0.695  34.267  0.00  0.00    +0.000 C 
ENDBRANCH  15  17
ENDBRANCH   4  15
BRANCH   1  19
ATOM     19  C   UNL     1      36.332  -6.505  35.007  0.00  0.00    +0.000 C 
BRANCH  19  21
ATOM     20  C   UNL     1      38.515  -6.088  34.009  0.00  0.00    +0.000 C 
ATOM     21  C   UNL     1      37.678  -5.877  35.017  0.00  0.00    +0.000 C 
ENDBRANCH  19  21
ENDBRANCH   1  19
TORSDOF 4
ENDMDL
