MODEL 1
REMARK VINA RESULT:      -7.8      0.000      0.000
REMARK  Name = 
REMARK  3 active torsions:
REMARK  status: ('A' for Active; 'I' for Inactive)
REMARK    1  A    between atoms: C_5  and  S_6
REMARK    2  A    between atoms: S_6  and  N_9
REMARK    3  A    between atoms: N_9  and  C_10
REMARK                            x       y       z     vdW  Elec       q    Type
REMARK                         _______ _______ _______ _____ _____    ______ ____
ROOT
ATOM      1  S   UNL     1      16.705  11.470  36.835  0.00  0.00    +0.000 S 
ATOM      2  O   UNL     1      16.534  12.941  36.569  0.00  0.00    +0.000 OA
ATOM      3  O   UNL     1      15.788  11.087  37.956  0.00  0.00    +0.000 OA
ENDROOT
BRANCH   1   8
ATOM      4  C   UNL     1      22.479  10.720  38.316  0.00  0.00    +0.000 C 
ATOM      5  C   UNL     1      21.064  10.867  37.933  0.00  0.00    +0.000 A 
ATOM      6  C   UNL     1      20.402   9.900  37.214  0.00  0.00    +0.000 A 
ATOM      7  C   UNL     1      19.060  10.060  36.863  0.00  0.00    +0.000 A 
ATOM      8  C   UNL     1      18.369  11.182  37.223  0.00  0.00    +0.000 A 
ATOM      9  C   UNL     1      19.037  12.157  37.949  0.00  0.00    +0.000 A 
ATOM     10  C   UNL     1      20.353  11.995  38.291  0.00  0.00    +0.000 A 
ENDBRANCH   1   8
BRANCH   1  11
ATOM     11  N   UNL     1      16.306  10.534  35.430  0.00  0.00    +0.000 NA
BRANCH  11  12
ATOM     12  C   UNL     1      15.939  11.134  34.209  0.00  0.00    +0.000 A 
ATOM     13  C   UNL     1      16.545  10.652  33.047  0.00  0.00    +0.000 A 
ATOM     14  C   UNL     1      16.236  11.188  31.815  0.00  0.00    +0.000 A 
ATOM     15  C   UNL     1      15.318  12.216  31.722  0.00  0.00    +0.000 A 
ATOM     16  C   UNL     1      14.710  12.706  32.855  0.00  0.00    +0.000 A 
ATOM     17  C   UNL     1      15.039  12.149  34.072  0.00  0.00    +0.000 A 
ATOM     18  C   UNL     1      13.762  13.807  32.499  0.00  0.00    +0.000 C 
ATOM     19  C   UNL     1      13.653  13.749  31.000  0.00  0.00    +0.000 C 
ATOM     20  C   UNL     1      14.840  12.934  30.523  0.00  0.00    +0.000 C 
ENDBRANCH  11  12
ENDBRANCH   1  11
TORSDOF 3
ENDMDL
MODEL 2
REMARK VINA RESULT:      -7.5      1.775      7.313
REMARK  Name = 
REMARK  3 active torsions:
REMARK  status: ('A' for Active; 'I' for Inactive)
REMARK    1  A    between atoms: C_5  and  S_6
REMARK    2  A    between atoms: S_6  and  N_9
REMARK    3  A    between atoms: N_9  and  C_10
REMARK                            x       y       z     vdW  Elec       q    Type
REMARK                         _______ _______ _______ _____ _____    ______ ____
ROOT
ATOM      1  S   UNL     1      17.201  10.918  36.950  0.00  0.00    +0.000 S 
ATOM      2  O   UNL     1      15.915  10.864  37.728  0.00  0.00    +0.000 OA
ATOM      3  O   UNL     1      17.954  12.142  37.373  0.00  0.00    +0.000 OA
ENDROOT
BRANCH   1   8
ATOM      4  C   UNL     1      15.633  11.173  31.156  0.00  0.00    +0.000 C 
ATOM      5  C   UNL     1      16.048  11.085  32.566  0.00  0.00    +0.000 A 
ATOM      6  C   UNL     1      17.125  10.324  32.960  0.00  0.00    +0.000 A 
ATOM      7  C   UNL     1      17.501  10.255  34.303  0.00  0.00    +0.000 A 
ATOM      8  C   UNL     1      16.810  10.940  35.261  0.00  0.00    +0.000 A 
ATOM      9  C   UNL     1      15.725  11.708  34.864  0.00  0.00    +0.000 A 
ATOM     10  C   UNL     1      15.360  11.772  33.546  0.00  0.00    +0.000 A 
ENDBRANCH   1   8
BRANCH   1  11
ATOM     11  N   UNL     1      18.175   9.516  37.262  0.00  0.00    +0.000 NA
BRANCH  11  12
ATOM     12  C   UNL     1      19.562   9.602  37.489  0.00  0.00    +0.000 A 
ATOM     13  C   UNL     1      20.011   9.455  38.802  0.00  0.00    +0.000 A 
ATOM     14  C   UNL     1      21.354   9.527  39.102  0.00  0.00    +0.000 A 
ATOM     15  C   UNL     1      22.273   9.748  38.095  0.00  0.00    +0.000 A 
ATOM     16  C   UNL     1      21.852   9.896  36.794  0.00  0.00    +0.000 A 
ATOM     17  C   UNL     1      20.503   9.819  36.525  0.00  0.00    +0.000 A 
ATOM     18  C   UNL     1      23.025  10.124  35.893  0.00  0.00    +0.000 C 
ATOM     19  C   UNL     1      24.227   9.823  36.746  0.00  0.00    +0.000 C 
ATOM     20  C   UNL     1      23.744   9.861  38.183  0.00  0.00    +0.000 C 
ENDBRANCH  11  12
ENDBRANCH   1  11
TORSDOF 3
ENDMDL
MODEL 3
REMARK VINA RESULT:      -7.3      3.143      4.053
REMARK  Name = 
REMARK  3 active torsions:
REMARK  status: ('A' for Active; 'I' for Inactive)
REMARK    1  A    between atoms: C_5  and  S_6
REMARK    2  A    between atoms: S_6  and  N_9
REMARK    3  A    between atoms: N_9  and  C_10
REMARK                            x       y       z     vdW  Elec       q    Type
REMARK                         _______ _______ _______ _____ _____    ______ ____
ROOT
ATOM      1  S   UNL     1      18.782   9.996  37.687  0.00  0.00    +0.000 S 
ATOM      2  O   UNL     1      20.211   9.550  37.828  0.00  0.00    +0.000 OA
ATOM      3  O   UNL     1      18.764  11.493  37.615  0.00  0.00    +0.000 OA
ENDROOT
BRANCH   1   8
ATOM      4  C   UNL     1      15.884   7.700  42.422  0.00  0.00    +0.000 C 
ATOM      5  C   UNL     1      16.567   8.293  41.260  0.00  0.00    +0.000 A 
ATOM      6  C   UNL     1      16.107   9.441  40.656  0.00  0.00    +0.000 A 
ATOM      7  C   UNL     1      16.770   9.986  39.554  0.00  0.00    +0.000 A 
ATOM      8  C   UNL     1      17.892   9.395  39.047  0.00  0.00    +0.000 A 
ATOM      9  C   UNL     1      18.355   8.238  39.656  0.00  0.00    +0.000 A 
ATOM     10  C   UNL     1      17.701   7.708  40.736  0.00  0.00    +0.000 A 
ENDBRANCH   1   8
BRANCH   1  11
ATOM     11  N   UNL     1      18.068   9.350  36.244  0.00  0.00    +0.000 NA
BRANCH  11  12
ATOM     12  C   UNL     1      17.234  10.121  35.410  0.00  0.00    +0.000 A 
ATOM     13  C   UNL     1      16.322  10.978  36.026  0.00  0.00    +0.000 A 
ATOM     14  C   UNL     1      15.473  11.764  35.276  0.00  0.00    +0.000 A 
ATOM     15  C   UNL     1      15.521  11.707  33.897  0.00  0.00    +0.000 A 
ATOM     16  C   UNL     1      16.412  10.867  33.269  0.00  0.00    +0.000 A 
ATOM     17  C   UNL     1      17.248  10.095  34.046  0.00  0.00    +0.000 A 
ATOM     18  C   UNL     1      16.274  10.983  31.784  0.00  0.00    +0.000 C 
ATOM     19  C   UNL     1      15.394  12.185  31.574  0.00  0.00    +0.000 C 
ATOM     20  C   UNL     1      14.716  12.448  32.905  0.00  0.00    +0.000 C 
ENDBRANCH  11  12
ENDBRANCH   1  11
TORSDOF 3
ENDMDL
MODEL 4
REMARK VINA RESULT:      -7.2     20.425     22.977
REMARK  Name = 
REMARK  3 active torsions:
REMARK  status: ('A' for Active; 'I' for Inactive)
REMARK    1  A    between atoms: C_5  and  S_6
REMARK    2  A    between atoms: S_6  and  N_9
REMARK    3  A    between atoms: N_9  and  C_10
REMARK                            x       y       z     vdW  Elec       q    Type
REMARK                         _______ _______ _______ _____ _____    ______ ____
ROOT
ATOM      1  S   UNL     1      34.035  -5.202  34.255  0.00  0.00    +0.000 S 
ATOM      2  O   UNL     1      35.362  -4.604  34.635  0.00  0.00    +0.000 OA
ATOM      3  O   UNL     1      33.854  -6.472  35.028  0.00  0.00    +0.000 OA
ENDROOT
BRANCH   1   8
ATOM      4  C   UNL     1      33.760  -6.086  28.318  0.00  0.00    +0.000 C 
ATOM      5  C   UNL     1      33.868  -5.877  29.772  0.00  0.00    +0.000 A 
ATOM      6  C   UNL     1      35.068  -5.993  30.435  0.00  0.00    +0.000 A 
ATOM      7  C   UNL     1      35.147  -5.790  31.815  0.00  0.00    +0.000 A 
ATOM      8  C   UNL     1      34.036  -5.472  32.542  0.00  0.00    +0.000 A 
ATOM      9  C   UNL     1      32.827  -5.355  31.873  0.00  0.00    +0.000 A 
ATOM     10  C   UNL     1      32.754  -5.555  30.521  0.00  0.00    +0.000 A 
ENDBRANCH   1   8
BRANCH   1  11
ATOM     11  N   UNL     1      32.734  -4.118  34.631  0.00  0.00    +0.000 NA
BRANCH  11  12
ATOM     12  C   UNL     1      32.835  -2.727  34.429  0.00  0.00    +0.000 A 
ATOM     13  C   UNL     1      32.100  -1.899  35.279  0.00  0.00    +0.000 A 
ATOM     14  C   UNL     1      32.148  -0.527  35.143  0.00  0.00    +0.000 A 
ATOM     15  C   UNL     1      32.931   0.040  34.157  0.00  0.00    +0.000 A 
ATOM     16  C   UNL     1      33.663  -0.759  33.309  0.00  0.00    +0.000 A 
ATOM     17  C   UNL     1      33.594  -2.126  33.469  0.00  0.00    +0.000 A 
ATOM     18  C   UNL     1      34.424   0.082  32.334  0.00  0.00    +0.000 C 
ATOM     19  C   UNL     1      34.293   1.487  32.855  0.00  0.00    +0.000 C 
ATOM     20  C   UNL     1      33.132   1.467  33.831  0.00  0.00    +0.000 C 
ENDBRANCH  11  12
ENDBRANCH   1  11
TORSDOF 3
ENDMDL
MODEL 5
REMARK VINA RESULT:      -7.1     18.616     19.571
REMARK  Name = 
REMARK  3 active torsions:
REMARK  status: ('A' for Active; 'I' for Inactive)
REMARK    1  A    between atoms: C_5  and  S_6
REMARK    2  A    between atoms: S_6  and  N_9
REMARK    3  A    between atoms: N_9  and  C_10
REMARK                            x       y       z     vdW  Elec       q    Type
REMARK                         _______ _______ _______ _____ _____    ______ ____
ROOT
ATOM      1  S   UNL     1      27.499  23.980  23.244  0.00  0.00    +0.000 S 
ATOM      2  O   UNL     1      27.509  23.415  21.851  0.00  0.00    +0.000 OA
ATOM      3  O   UNL     1      26.890  25.348  23.192  0.00  0.00    +0.000 OA
ENDROOT
BRANCH   1   8
ATOM      4  C   UNL     1      33.148  24.376  25.251  0.00  0.00    +0.000 C 
ATOM      5  C   UNL     1      31.767  24.238  24.760  0.00  0.00    +0.000 A 
ATOM      6  C   UNL     1      31.184  23.006  24.568  0.00  0.00    +0.000 A 
ATOM      7  C   UNL     1      29.872  22.899  24.103  0.00  0.00    +0.000 A 
ATOM      8  C   UNL     1      29.133  24.012  23.825  0.00  0.00    +0.000 A 
ATOM      9  C   UNL     1      29.720  25.254  24.019  0.00  0.00    +0.000 A 
ATOM     10  C   UNL     1      31.007  25.354  24.476  0.00  0.00    +0.000 A 
ENDBRANCH   1   8
BRANCH   1  11
ATOM     11  N   UNL     1      26.564  22.983  24.313  0.00  0.00    +0.000 NA
BRANCH  11  12
ATOM     12  C   UNL     1      26.417  23.283  25.682  0.00  0.00    +0.000 A 
ATOM     13  C   UNL     1      25.431  24.205  26.035  0.00  0.00    +0.000 A 
ATOM     14  C   UNL     1      25.227  24.550  27.355  0.00  0.00    +0.000 A 
ATOM     15  C   UNL     1      26.004  23.979  28.343  0.00  0.00    +0.000 A 
ATOM     16  C   UNL     1      26.982  23.068  28.016  0.00  0.00    +0.000 A 
ATOM     17  C   UNL     1      27.162  22.744  26.689  0.00  0.00    +0.000 A 
ATOM     18  C   UNL     1      27.684  22.596  29.249  0.00  0.00    +0.000 C 
ATOM     19  C   UNL     1      26.844  23.108  30.388  0.00  0.00    +0.000 C 
ATOM     20  C   UNL     1      25.963  24.197  29.804  0.00  0.00    +0.000 C 
ENDBRANCH  11  12
ENDBRANCH   1  11
TORSDOF 3
ENDMDL
MODEL 6
REMARK VINA RESULT:      -7.1     18.966     20.354
REMARK  Name = 
REMARK  3 active torsions:
REMARK  status: ('A' for Active; 'I' for Inactive)
REMARK    1  A    between atoms: C_5  and  S_6
REMARK    2  A    between atoms: S_6  and  N_9
REMARK    3  A    between atoms: N_9  and  C_10
REMARK                            x       y       z     vdW  Elec       q    Type
REMARK                         _______ _______ _______ _____ _____    ______ ____
ROOT
ATOM      1  S   UNL     1      26.871  23.887  22.730  0.00  0.00    +0.000 S 
ATOM      2  O   UNL     1      27.087  25.107  21.877  0.00  0.00    +0.000 OA
ATOM      3  O   UNL     1      25.793  23.060  22.099  0.00  0.00    +0.000 OA
ENDROOT
BRANCH   1   8
ATOM      4  C   UNL     1      25.297  25.443  28.315  0.00  0.00    +0.000 C 
ATOM      5  C   UNL     1      25.696  25.101  26.940  0.00  0.00    +0.000 A 
ATOM      6  C   UNL     1      26.259  26.029  26.094  0.00  0.00    +0.000 A 
ATOM      7  C   UNL     1      26.630  25.681  24.793  0.00  0.00    +0.000 A 
ATOM      8  C   UNL     1      26.443  24.412  24.326  0.00  0.00    +0.000 A 
ATOM      9  C   UNL     1      25.875  23.477  25.178  0.00  0.00    +0.000 A 
ATOM     10  C   UNL     1      25.514  23.822  26.453  0.00  0.00    +0.000 A 
ENDBRANCH   1   8
BRANCH   1  11
ATOM     11  N   UNL     1      28.321  22.942  22.841  0.00  0.00    +0.000 NA
BRANCH  11  12
ATOM     12  C   UNL     1      29.304  23.190  23.819  0.00  0.00    +0.000 A 
ATOM     13  C   UNL     1      30.208  24.225  23.576  0.00  0.00    +0.000 A 
ATOM     14  C   UNL     1      31.198  24.527  24.487  0.00  0.00    +0.000 A 
ATOM     15  C   UNL     1      31.302  23.801  25.656  0.00  0.00    +0.000 A 
ATOM     16  C   UNL     1      30.421  22.776  25.916  0.00  0.00    +0.000 A 
ATOM     17  C   UNL     1      29.442  22.498  24.987  0.00  0.00    +0.000 A 
ATOM     18  C   UNL     1      30.735  22.145  27.235  0.00  0.00    +0.000 C 
ATOM     19  C   UNL     1      31.729  23.073  27.878  0.00  0.00    +0.000 C 
ATOM     20  C   UNL     1      32.272  23.946  26.762  0.00  0.00    +0.000 C 
ENDBRANCH  11  12
ENDBRANCH   1  11
TORSDOF 3
ENDMDL
MODEL 7
REMARK VINA RESULT:      -6.9      2.248      7.343
REMARK  Name = 
REMARK  3 active torsions:
REMARK  status: ('A' for Active; 'I' for Inactive)
REMARK    1  A    between atoms: C_5  and  S_6
REMARK    2  A    between atoms: S_6  and  N_9
REMARK    3  A    between atoms: N_9  and  C_10
REMARK                            x       y       z     vdW  Elec       q    Type
REMARK                         _______ _______ _______ _____ _____    ______ ____
ROOT
ATOM      1  S   UNL     1      18.244  10.696  37.726  0.00  0.00    +0.000 S 
ATOM      2  O   UNL     1      17.174  10.138  38.623  0.00  0.00    +0.000 OA
ATOM      3  O   UNL     1      18.625  12.052  38.237  0.00  0.00    +0.000 OA
ENDROOT
BRANCH   1   8
ATOM      4  C   UNL     1      16.226  10.686  32.066  0.00  0.00    +0.000 C 
ATOM      5  C   UNL     1      16.697  10.721  33.461  0.00  0.00    +0.000 A 
ATOM      6  C   UNL     1      16.247  11.665  34.356  0.00  0.00    +0.000 A 
ATOM      7  C   UNL     1      16.707  11.679  35.674  0.00  0.00    +0.000 A 
ATOM      8  C   UNL     1      17.616  10.759  36.111  0.00  0.00    +0.000 A 
ATOM      9  C   UNL     1      18.070   9.807  35.209  0.00  0.00    +0.000 A 
ATOM     10  C   UNL     1      17.615   9.797  33.917  0.00  0.00    +0.000 A 
ENDBRANCH   1   8
BRANCH   1  11
ATOM     11  N   UNL     1      19.647   9.676  37.722  0.00  0.00    +0.000 NA
BRANCH  11  12
ATOM     12  C   UNL     1      20.939  10.178  37.472  0.00  0.00    +0.000 A 
ATOM     13  C   UNL     1      21.635   9.652  36.383  0.00  0.00    +0.000 A 
ATOM     14  C   UNL     1      22.904  10.095  36.075  0.00  0.00    +0.000 A 
ATOM     15  C   UNL     1      23.500  11.070  36.851  0.00  0.00    +0.000 A 
ATOM     16  C   UNL     1      22.831  11.601  37.930  0.00  0.00    +0.000 A 
ATOM     17  C   UNL     1      21.564  11.139  38.212  0.00  0.00    +0.000 A 
ATOM     18  C   UNL     1      23.677  12.632  38.607  0.00  0.00    +0.000 C 
ATOM     19  C   UNL     1      24.824  12.868  37.662  0.00  0.00    +0.000 C 
ATOM     20  C   UNL     1      24.835  11.686  36.711  0.00  0.00    +0.000 C 
ENDBRANCH  11  12
ENDBRANCH   1  11
TORSDOF 3
ENDMDL
MODEL 8
REMARK VINA RESULT:      -6.9     20.667     23.537
REMARK  Name = 
REMARK  3 active torsions:
REMARK  status: ('A' for Active; 'I' for Inactive)
REMARK    1  A    between atoms: C_5  and  S_6
REMARK    2  A    between atoms: S_6  and  N_9
REMARK    3  A    between atoms: N_9  and  C_10
REMARK                            x       y       z     vdW  Elec       q    Type
REMARK                         _______ _______ _______ _____ _____    ______ ____
ROOT
ATOM      1  S   UNL     1      33.029  -4.268  34.635  0.00  0.00    +0.000 S 
ATOM      2  O   UNL     1      31.831  -4.820  33.913  0.00  0.00    +0.000 OA
ATOM      3  O   UNL     1      32.873  -4.563  36.096  0.00  0.00    +0.000 OA
ENDROOT
BRANCH   1   8
ATOM      4  C   UNL     1      33.116   1.670  33.721  0.00  0.00    +0.000 C 
ATOM      5  C   UNL     1      33.125   0.210  33.918  0.00  0.00    +0.000 A 
ATOM      6  C   UNL     1      33.995  -0.609  33.236  0.00  0.00    +0.000 A 
ATOM      7  C   UNL     1      33.987  -1.991  33.438  0.00  0.00    +0.000 A 
ATOM      8  C   UNL     1      33.114  -2.566  34.317  0.00  0.00    +0.000 A 
ATOM      9  C   UNL     1      32.237  -1.740  35.004  0.00  0.00    +0.000 A 
ATOM     10  C   UNL     1      32.249  -0.386  34.803  0.00  0.00    +0.000 A 
ENDBRANCH   1   8
BRANCH   1  11
ATOM     11  N   UNL     1      34.493  -5.000  34.061  0.00  0.00    +0.000 NA
BRANCH  11  12
ATOM     12  C   UNL     1      34.562  -5.668  32.822  0.00  0.00    +0.000 A 
ATOM     13  C   UNL     1      35.015  -6.988  32.826  0.00  0.00    +0.000 A 
ATOM     14  C   UNL     1      35.109  -7.706  31.653  0.00  0.00    +0.000 A 
ATOM     15  C   UNL     1      34.752  -7.117  30.456  0.00  0.00    +0.000 A 
ATOM     16  C   UNL     1      34.304  -5.817  30.430  0.00  0.00    +0.000 A 
ATOM     17  C   UNL     1      34.220  -5.125  31.618  0.00  0.00    +0.000 A 
ATOM     18  C   UNL     1      33.982  -5.408  29.027  0.00  0.00    +0.000 C 
ATOM     19  C   UNL     1      34.021  -6.688  28.236  0.00  0.00    +0.000 C 
ATOM     20  C   UNL     1      34.773  -7.689  29.093  0.00  0.00    +0.000 C 
ENDBRANCH  11  12
ENDBRANCH   1  11
TORSDOF 3
ENDMDL
MODEL 9
REMARK VINA RESULT:      -6.8     17.731     18.563
REMARK  Name = 
REMARK  3 active torsions:
REMARK  status: ('A' for Active; 'I' for Inactive)
REMARK    1  A    between atoms: C_5  and  S_6
REMARK    2  A    between atoms: S_6  and  N_9
REMARK    3  A    between atoms: N_9  and  C_10
REMARK                            x       y       z     vdW  Elec       q    Type
REMARK                         _______ _______ _______ _____ _____    ______ ____
ROOT
ATOM      1  S   UNL     1      29.145  23.133  28.849  0.00  0.00    +0.000 S 
ATOM      2  O   UNL     1      29.480  24.506  28.335  0.00  0.00    +0.000 OA
ATOM      3  O   UNL     1      28.022  23.260  29.832  0.00  0.00    +0.000 OA
ENDROOT
BRANCH   1   8
ATOM      4  C   UNL     1      33.964  20.825  31.596  0.00  0.00    +0.000 C 
ATOM      5  C   UNL     1      32.803  21.388  30.887  0.00  0.00    +0.000 A 
ATOM      6  C   UNL     1      32.805  21.573  29.523  0.00  0.00    +0.000 A 
ATOM      7  C   UNL     1      31.692  22.108  28.871  0.00  0.00    +0.000 A 
ATOM      8  C   UNL     1      30.573  22.463  29.569  0.00  0.00    +0.000 A 
ATOM      9  C   UNL     1      30.571  22.276  30.943  0.00  0.00    +0.000 A 
ATOM     10  C   UNL     1      31.664  21.751  31.578  0.00  0.00    +0.000 A 
ENDBRANCH   1   8
BRANCH   1  11
ATOM     11  N   UNL     1      28.650  22.088  27.555  0.00  0.00    +0.000 NA
BRANCH  11  12
ATOM     12  C   UNL     1      28.638  22.513  26.212  0.00  0.00    +0.000 A 
ATOM     13  C   UNL     1      29.834  22.426  25.498  0.00  0.00    +0.000 A 
ATOM     14  C   UNL     1      29.901  22.822  24.179  0.00  0.00    +0.000 A 
ATOM     15  C   UNL     1      28.773  23.313  23.551  0.00  0.00    +0.000 A 
ATOM     16  C   UNL     1      27.584  23.408  24.236  0.00  0.00    +0.000 A 
ATOM     17  C   UNL     1      27.549  23.003  25.553  0.00  0.00    +0.000 A 
ATOM     18  C   UNL     1      26.517  23.964  23.347  0.00  0.00    +0.000 C 
ATOM     19  C   UNL     1      27.116  23.939  21.967  0.00  0.00    +0.000 C 
ATOM     20  C   UNL     1      28.614  23.790  22.162  0.00  0.00    +0.000 C 
ENDBRANCH  11  12
ENDBRANCH   1  11
TORSDOF 3
ENDMDL
MODEL 10
REMARK VINA RESULT:      -6.8     28.901     31.117
REMARK  Name = 
REMARK  3 active torsions:
REMARK  status: ('A' for Active; 'I' for Inactive)
REMARK    1  A    between atoms: C_5  and  S_6
REMARK    2  A    between atoms: S_6  and  N_9
REMARK    3  A    between atoms: N_9  and  C_10
REMARK                            x       y       z     vdW  Elec       q    Type
REMARK                         _______ _______ _______ _____ _____    ______ ____
ROOT
ATOM      1  S   UNL     1      32.445  21.311  10.520  0.00  0.00    +0.000 S 
ATOM      2  O   UNL     1      32.554  19.840  10.814  0.00  0.00    +0.000 OA
ATOM      3  O   UNL     1      33.672  21.987  11.050  0.00  0.00    +0.000 OA
ENDROOT
BRANCH   1   8
ATOM      4  C   UNL     1      27.278  23.248  12.898  0.00  0.00    +0.000 C 
ATOM      5  C   UNL     1      28.565  22.791  12.346  0.00  0.00    +0.000 A 
ATOM      6  C   UNL     1      29.760  23.063  12.971  0.00  0.00    +0.000 A 
ATOM      7  C   UNL     1      30.969  22.619  12.430  0.00  0.00    +0.000 A 
ATOM      8  C   UNL     1      30.997  21.904  11.267  0.00  0.00    +0.000 A 
ATOM      9  C   UNL     1      29.791  21.629  10.638  0.00  0.00    +0.000 A 
ATOM     10  C   UNL     1      28.609  22.066  11.172  0.00  0.00    +0.000 A 
ENDBRANCH   1   8
BRANCH   1  11
ATOM     11  N   UNL     1      32.330  21.597   8.813  0.00  0.00    +0.000 NA
BRANCH  11  12
ATOM     12  C   UNL     1      32.071  20.561   7.895  0.00  0.00    +0.000 A 
ATOM     13  C   UNL     1      33.140  19.739   7.534  0.00  0.00    +0.000 A 
ATOM     14  C   UNL     1      32.965  18.703   6.641  0.00  0.00    +0.000 A 
ATOM     15  C   UNL     1      31.719  18.472   6.092  0.00  0.00    +0.000 A 
ATOM     16  C   UNL     1      30.652  19.271   6.433  0.00  0.00    +0.000 A 
ATOM     17  C   UNL     1      30.859  20.298   7.329  0.00  0.00    +0.000 A 
ATOM     18  C   UNL     1      29.419  18.825   5.713  0.00  0.00    +0.000 C 
ATOM     19  C   UNL     1      29.788  17.497   5.108  0.00  0.00    +0.000 C 
ATOM     20  C   UNL     1      31.304  17.434   5.126  0.00  0.00    +0.000 C 
ENDBRANCH  11  12
ENDBRANCH   1  11
TORSDOF 3
ENDMDL
