MODEL 1
REMARK VINA RESULT:      -7.8      0.000      0.000
REMARK  Name = 
REMARK  7 active torsions:
REMARK  status: ('A' for Active; 'I' for Inactive)
REMARK    1  A    between atoms: O_2  and  C_3
REMARK    2  A    between atoms: C_7  and  C_8
REMARK    3  A    between atoms: N_10  and  C_11
REMARK    4  A    between atoms: C_15  and  C_16
REMARK    5  A    between atoms: N_18  and  C_19
REMARK    6  A    between atoms: C_19  and  C_20
REMARK    7  A    between atoms: C_20  and  C_21
REMARK                            x       y       z     vdW  Elec       q    Type
REMARK                         _______ _______ _______ _____ _____    ______ ____
ROOT
ATOM      1  C   UNL     1      38.166   3.345  15.451  0.00  0.00    +0.000 A 
ATOM      2  S   UNL     1      39.122   3.226  13.958  0.00  0.00    +0.000 S 
ATOM      3  C   UNL     1      38.538   1.778  13.368  0.00  0.00    +0.000 A 
ATOM      4  C   UNL     1      37.634   1.396  14.292  0.00  0.00    +0.000 A 
ATOM      5  C   UNL     1      37.428   2.192  15.374  0.00  0.00    +0.000 A 
ATOM      6  C   UNL     1      37.070   0.056  13.780  0.00  0.00    +0.000 C 
ATOM      7  C   UNL     1      37.219   0.215  12.302  0.00  0.00    +0.000 C 
ATOM      8  C   UNL     1      38.644   0.781  12.227  0.00  0.00    +0.000 C 
ENDROOT
BRANCH   1  11
ATOM      9  C   UNL     1      38.213   5.669  16.621  0.00  0.00    +0.000 C 
ATOM     10  O   UNL     1      37.660   6.472  15.855  0.00  0.00    +0.000 OA
ATOM     11  N   UNL     1      38.328   4.417  16.278  0.00  0.00    +0.000 NA
BRANCH   9  16
ATOM     12  C   UNL     1      38.474   7.896  19.640  0.00  0.00    +0.000 A 
ATOM     13  C   UNL     1      39.550   7.356  20.302  0.00  0.00    +0.000 A 
ATOM     14  C   UNL     1      40.207   6.246  19.759  0.00  0.00    +0.000 A 
ATOM     15  C   UNL     1      39.794   5.686  18.573  0.00  0.00    +0.000 A 
ATOM     16  C   UNL     1      38.719   6.227  17.915  0.00  0.00    +0.000 A 
ATOM     17  C   UNL     1      38.097   7.301  18.458  0.00  0.00    +0.000 A 
BRANCH  12  19
ATOM     18  C   UNL     1      38.427   9.949  20.988  0.00  0.00    +0.000 C 
ATOM     19  O   UNL     1      37.824   8.989  20.173  0.00  0.00    +0.000 OA
ENDBRANCH  12  19
ENDBRANCH   9  16
ENDBRANCH   1  11
BRANCH   5  20
ATOM     20  C   UNL     1      36.441   1.831  16.435  0.00  0.00    +0.000 C 
ATOM     21  O   UNL     1      35.365   2.394  16.551  0.00  0.00    +0.000 OA
ATOM     22  N   UNL     1      36.780   0.775  17.356  0.00  0.00    +0.000 NA
BRANCH  22  23
ATOM     23  C   UNL     1      35.773   0.462  18.379  0.00  0.00    +0.000 C 
BRANCH  23  24
ATOM     24  C   UNL     1      35.947  -0.962  18.842  0.00  0.00    +0.000 C 
BRANCH  24  25
ATOM     25  C   UNL     1      35.998  -1.822  17.615  0.00  0.00    +0.000 A 
ATOM     26  C   UNL     1      34.880  -1.991  16.837  0.00  0.00    +0.000 A 
ATOM     27  C   UNL     1      34.954  -2.776  15.729  0.00  0.00    +0.000 A 
ATOM     28  C   UNL     1      36.119  -3.407  15.367  0.00  0.00    +0.000 A 
ATOM     29  C   UNL     1      37.267  -3.250  16.144  0.00  0.00    +0.000 A 
ATOM     30  C   UNL     1      37.171  -2.451  17.261  0.00  0.00    +0.000 A 
ENDBRANCH  24  25
ENDBRANCH  23  24
ENDBRANCH  22  23
ENDBRANCH   5  20
TORSDOF 7
ENDMDL
MODEL 2
REMARK VINA RESULT:      -7.8      2.680      8.276
REMARK  Name = 
REMARK  7 active torsions:
REMARK  status: ('A' for Active; 'I' for Inactive)
REMARK    1  A    between atoms: O_2  and  C_3
REMARK    2  A    between atoms: C_7  and  C_8
REMARK    3  A    between atoms: N_10  and  C_11
REMARK    4  A    between atoms: C_15  and  C_16
REMARK    5  A    between atoms: N_18  and  C_19
REMARK    6  A    between atoms: C_19  and  C_20
REMARK    7  A    between atoms: C_20  and  C_21
REMARK                            x       y       z     vdW  Elec       q    Type
REMARK                         _______ _______ _______ _____ _____    ______ ____
ROOT
ATOM      1  C   UNL     1      37.786   0.992  14.585  0.00  0.00    +0.000 A 
ATOM      2  S   UNL     1      37.889   0.734  12.830  0.00  0.00    +0.000 S 
ATOM      3  C   UNL     1      37.597   2.290  12.303  0.00  0.00    +0.000 A 
ATOM      4  C   UNL     1      37.425   2.989  13.443  0.00  0.00    +0.000 A 
ATOM      5  C   UNL     1      37.519   2.335  14.631  0.00  0.00    +0.000 A 
ATOM      6  C   UNL     1      37.151   4.438  12.995  0.00  0.00    +0.000 C 
ATOM      7  C   UNL     1      37.898   4.497  11.702  0.00  0.00    +0.000 C 
ATOM      8  C   UNL     1      37.462   3.167  11.070  0.00  0.00    +0.000 C 
ENDROOT
BRANCH   1  11
ATOM      9  C   UNL     1      38.343  -1.262  15.761  0.00  0.00    +0.000 C 
ATOM     10  O   UNL     1      38.841  -2.005  14.903  0.00  0.00    +0.000 OA
ATOM     11  N   UNL     1      37.967  -0.057  15.438  0.00  0.00    +0.000 NA
BRANCH   9  16
ATOM     12  C   UNL     1      38.641  -3.693  18.613  0.00  0.00    +0.000 A 
ATOM     13  C   UNL     1      38.033  -3.009  19.638  0.00  0.00    +0.000 A 
ATOM     14  C   UNL     1      37.514  -1.731  19.401  0.00  0.00    +0.000 A 
ATOM     15  C   UNL     1      37.602  -1.149  18.158  0.00  0.00    +0.000 A 
ATOM     16  C   UNL     1      38.210  -1.835  17.138  0.00  0.00    +0.000 A 
ATOM     17  C   UNL     1      38.706  -3.070  17.389  0.00  0.00    +0.000 A 
BRANCH  12  19
ATOM     18  C   UNL     1      39.248  -5.551  20.103  0.00  0.00    +0.000 C 
ATOM     19  O   UNL     1      39.154  -4.953  18.845  0.00  0.00    +0.000 OA
ENDBRANCH  12  19
ENDBRANCH   9  16
ENDBRANCH   1  11
BRANCH   5  20
ATOM     20  C   UNL     1      37.340   3.047  15.931  0.00  0.00    +0.000 C 
ATOM     21  O   UNL     1      36.328   2.945  16.603  0.00  0.00    +0.000 OA
ATOM     22  N   UNL     1      38.411   3.889  16.405  0.00  0.00    +0.000 NA
BRANCH  22  23
ATOM     23  C   UNL     1      38.181   4.564  17.689  0.00  0.00    +0.000 C 
BRANCH  23  24
ATOM     24  C   UNL     1      39.418   5.327  18.090  0.00  0.00    +0.000 C 
BRANCH  24  25
ATOM     25  C   UNL     1      38.963   6.537  18.850  0.00  0.00    +0.000 A 
ATOM     26  C   UNL     1      39.570   6.884  20.032  0.00  0.00    +0.000 A 
ATOM     27  C   UNL     1      39.138   7.986  20.701  0.00  0.00    +0.000 A 
ATOM     28  C   UNL     1      38.108   8.762  20.228  0.00  0.00    +0.000 A 
ATOM     29  C   UNL     1      37.477   8.426  19.029  0.00  0.00    +0.000 A 
ATOM     30  C   UNL     1      37.929   7.308  18.367  0.00  0.00    +0.000 A 
ENDBRANCH  24  25
ENDBRANCH  23  24
ENDBRANCH  22  23
ENDBRANCH   5  20
TORSDOF 7
ENDMDL
MODEL 3
REMARK VINA RESULT:      -7.7      3.054      4.819
REMARK  Name = 
REMARK  7 active torsions:
REMARK  status: ('A' for Active; 'I' for Inactive)
REMARK    1  A    between atoms: O_2  and  C_3
REMARK    2  A    between atoms: C_7  and  C_8
REMARK    3  A    between atoms: N_10  and  C_11
REMARK    4  A    between atoms: C_15  and  C_16
REMARK    5  A    between atoms: N_18  and  C_19
REMARK    6  A    between atoms: C_19  and  C_20
REMARK    7  A    between atoms: C_20  and  C_21
REMARK                            x       y       z     vdW  Elec       q    Type
REMARK                         _______ _______ _______ _____ _____    ______ ____
ROOT
ATOM      1  C   UNL     1      36.746   1.342  16.331  0.00  0.00    +0.000 A 
ATOM      2  S   UNL     1      35.236   1.100  17.235  0.00  0.00    +0.000 S 
ATOM      3  C   UNL     1      34.949  -0.504  16.872  0.00  0.00    +0.000 A 
ATOM      4  C   UNL     1      35.985  -0.844  16.079  0.00  0.00    +0.000 A 
ATOM      5  C   UNL     1      36.923   0.096  15.789  0.00  0.00    +0.000 A 
ATOM      6  C   UNL     1      35.755  -2.325  15.721  0.00  0.00    +0.000 C 
ATOM      7  C   UNL     1      35.008  -2.810  16.921  0.00  0.00    +0.000 C 
ATOM      8  C   UNL     1      33.998  -1.666  17.098  0.00  0.00    +0.000 C 
ENDROOT
BRANCH   1  11
ATOM      9  C   UNL     1      37.479   3.824  16.051  0.00  0.00    +0.000 C 
ATOM     10  O   UNL     1      36.613   4.382  15.362  0.00  0.00    +0.000 OA
ATOM     11  N   UNL     1      37.359   2.560  16.347  0.00  0.00    +0.000 NA
BRANCH   9  16
ATOM     12  C   UNL     1      39.768   5.747  18.332  0.00  0.00    +0.000 A 
ATOM     13  C   UNL     1      40.698   6.245  17.451  0.00  0.00    +0.000 A 
ATOM     14  C   UNL     1      40.582   5.952  16.088  0.00  0.00    +0.000 A 
ATOM     15  C   UNL     1      39.552   5.173  15.614  0.00  0.00    +0.000 A 
ATOM     16  C   UNL     1      38.625   4.679  16.496  0.00  0.00    +0.000 A 
ATOM     17  C   UNL     1      38.756   4.974  17.811  0.00  0.00    +0.000 A 
BRANCH  12  19
ATOM     18  C   UNL     1      41.039   6.514  20.290  0.00  0.00    +0.000 C 
ATOM     19  O   UNL     1      39.880   6.035  19.676  0.00  0.00    +0.000 OA
ENDBRANCH  12  19
ENDBRANCH   9  16
ENDBRANCH   1  11
BRANCH   5  20
ATOM     20  C   UNL     1      38.096  -0.212  14.918  0.00  0.00    +0.000 C 
ATOM     21  O   UNL     1      38.100   0.010  13.718  0.00  0.00    +0.000 OA
ATOM     22  N   UNL     1      39.266  -0.796  15.524  0.00  0.00    +0.000 NA
BRANCH  22  23
ATOM     23  C   UNL     1      40.389  -1.078  14.621  0.00  0.00    +0.000 C 
BRANCH  23  24
ATOM     24  C   UNL     1      40.530  -2.567  14.436  0.00  0.00    +0.000 C 
BRANCH  24  25
ATOM     25  C   UNL     1      40.802  -2.807  12.981  0.00  0.00    +0.000 A 
ATOM     26  C   UNL     1      39.851  -2.508  12.037  0.00  0.00    +0.000 A 
ATOM     27  C   UNL     1      40.123  -2.736  10.725  0.00  0.00    +0.000 A 
ATOM     28  C   UNL     1      41.325  -3.258  10.316  0.00  0.00    +0.000 A 
ATOM     29  C   UNL     1      42.306  -3.570  11.258  0.00  0.00    +0.000 A 
ATOM     30  C   UNL     1      42.011  -3.332  12.581  0.00  0.00    +0.000 A 
ENDBRANCH  24  25
ENDBRANCH  23  24
ENDBRANCH  22  23
ENDBRANCH   5  20
TORSDOF 7
ENDMDL
MODEL 4
REMARK VINA RESULT:      -7.6      2.254      3.708
REMARK  Name = 
REMARK  7 active torsions:
REMARK  status: ('A' for Active; 'I' for Inactive)
REMARK    1  A    between atoms: O_2  and  C_3
REMARK    2  A    between atoms: C_7  and  C_8
REMARK    3  A    between atoms: N_10  and  C_11
REMARK    4  A    between atoms: C_15  and  C_16
REMARK    5  A    between atoms: N_18  and  C_19
REMARK    6  A    between atoms: C_19  and  C_20
REMARK    7  A    between atoms: C_20  and  C_21
REMARK                            x       y       z     vdW  Elec       q    Type
REMARK                         _______ _______ _______ _____ _____    ______ ____
ROOT
ATOM      1  C   UNL     1      36.833   1.936  16.552  0.00  0.00    +0.000 A 
ATOM      2  S   UNL     1      35.457   1.641  17.637  0.00  0.00    +0.000 S 
ATOM      3  C   UNL     1      35.017   0.116  17.120  0.00  0.00    +0.000 A 
ATOM      4  C   UNL     1      35.902  -0.159  16.141  0.00  0.00    +0.000 A 
ATOM      5  C   UNL     1      36.847   0.769  15.833  0.00  0.00    +0.000 A 
ATOM      6  C   UNL     1      35.526  -1.566  15.636  0.00  0.00    +0.000 C 
ATOM      7  C   UNL     1      34.931  -2.175  16.864  0.00  0.00    +0.000 C 
ATOM      8  C   UNL     1      34.035  -1.022  17.338  0.00  0.00    +0.000 C 
ENDROOT
BRANCH   1  11
ATOM      9  C   UNL     1      37.791   4.342  16.298  0.00  0.00    +0.000 C 
ATOM     10  O   UNL     1      37.127   4.906  15.417  0.00  0.00    +0.000 OA
ATOM     11  N   UNL     1      37.520   3.111  16.629  0.00  0.00    +0.000 NA
BRANCH   9  16
ATOM     12  C   UNL     1      39.700   6.285  18.891  0.00  0.00    +0.000 A 
ATOM     13  C   UNL     1      40.832   6.647  18.202  0.00  0.00    +0.000 A 
ATOM     14  C   UNL     1      40.982   6.253  16.867  0.00  0.00    +0.000 A 
ATOM     15  C   UNL     1      40.014   5.510  16.233  0.00  0.00    +0.000 A 
ATOM     16  C   UNL     1      38.885   5.151  16.924  0.00  0.00    +0.000 A 
ATOM     17  C   UNL     1      38.760   5.542  18.214  0.00  0.00    +0.000 A 
BRANCH  12  19
ATOM     18  C   UNL     1      38.998   7.886  20.617  0.00  0.00    +0.000 C 
ATOM     19  O   UNL     1      39.550   6.671  20.206  0.00  0.00    +0.000 OA
ENDBRANCH  12  19
ENDBRANCH   9  16
ENDBRANCH   1  11
BRANCH   5  20
ATOM     20  C   UNL     1      37.858   0.529  14.761  0.00  0.00    +0.000 C 
ATOM     21  O   UNL     1      37.572   0.533  13.576  0.00  0.00    +0.000 OA
ATOM     22  N   UNL     1      39.225   0.283  15.150  0.00  0.00    +0.000 NA
BRANCH  22  23
ATOM     23  C   UNL     1      40.176   0.054  14.055  0.00  0.00    +0.000 C 
BRANCH  23  24
ATOM     24  C   UNL     1      40.795  -1.313  14.197  0.00  0.00    +0.000 C 
BRANCH  24  25
ATOM     25  C   UNL     1      39.678  -2.275  14.475  0.00  0.00    +0.000 A 
ATOM     26  C   UNL     1      38.853  -2.695  13.462  0.00  0.00    +0.000 A 
ATOM     27  C   UNL     1      37.849  -3.568  13.741  0.00  0.00    +0.000 A 
ATOM     28  C   UNL     1      37.636  -4.041  15.013  0.00  0.00    +0.000 A 
ATOM     29  C   UNL     1      38.462  -3.626  16.059  0.00  0.00    +0.000 A 
ATOM     30  C   UNL     1      39.473  -2.743  15.754  0.00  0.00    +0.000 A 
ENDBRANCH  24  25
ENDBRANCH  23  24
ENDBRANCH  22  23
ENDBRANCH   5  20
TORSDOF 7
ENDMDL
MODEL 5
REMARK VINA RESULT:      -7.5      3.045      5.069
REMARK  Name = 
REMARK  7 active torsions:
REMARK  status: ('A' for Active; 'I' for Inactive)
REMARK    1  A    between atoms: O_2  and  C_3
REMARK    2  A    between atoms: C_7  and  C_8
REMARK    3  A    between atoms: N_10  and  C_11
REMARK    4  A    between atoms: C_15  and  C_16
REMARK    5  A    between atoms: N_18  and  C_19
REMARK    6  A    between atoms: C_19  and  C_20
REMARK    7  A    between atoms: C_20  and  C_21
REMARK                            x       y       z     vdW  Elec       q    Type
REMARK                         _______ _______ _______ _____ _____    ______ ____
ROOT
ATOM      1  C   UNL     1      36.640   1.286  16.465  0.00  0.00    +0.000 A 
ATOM      2  S   UNL     1      35.200   0.934  17.444  0.00  0.00    +0.000 S 
ATOM      3  C   UNL     1      34.883  -0.620  16.924  0.00  0.00    +0.000 A 
ATOM      4  C   UNL     1      35.857  -0.862  16.023  0.00  0.00    +0.000 A 
ATOM      5  C   UNL     1      36.773   0.110  15.773  0.00  0.00    +0.000 A 
ATOM      6  C   UNL     1      35.596  -2.294  15.517  0.00  0.00    +0.000 C 
ATOM      7  C   UNL     1      34.938  -2.916  16.706  0.00  0.00    +0.000 C 
ATOM      8  C   UNL     1      33.948  -1.806  17.086  0.00  0.00    +0.000 C 
ENDROOT
BRANCH   1  11
ATOM      9  C   UNL     1      37.443   3.755  16.288  0.00  0.00    +0.000 C 
ATOM     10  O   UNL     1      36.719   4.312  15.450  0.00  0.00    +0.000 OA
ATOM     11  N   UNL     1      37.257   2.498  16.574  0.00  0.00    +0.000 NA
BRANCH   9  16
ATOM     12  C   UNL     1      40.483   5.946  16.602  0.00  0.00    +0.000 A 
ATOM     13  C   UNL     1      40.520   6.193  17.953  0.00  0.00    +0.000 A 
ATOM     14  C   UNL     1      39.538   5.639  18.782  0.00  0.00    +0.000 A 
ATOM     15  C   UNL     1      38.537   4.849  18.267  0.00  0.00    +0.000 A 
ATOM     16  C   UNL     1      38.504   4.604  16.918  0.00  0.00    +0.000 A 
ATOM     17  C   UNL     1      39.462   5.151  16.134  0.00  0.00    +0.000 A 
BRANCH  12  19
ATOM     18  C   UNL     1      42.760   6.764  16.176  0.00  0.00    +0.000 C 
ATOM     19  O   UNL     1      41.449   6.492  15.782  0.00  0.00    +0.000 OA
ENDBRANCH  12  19
ENDBRANCH   9  16
ENDBRANCH   1  11
BRANCH   5  20
ATOM     20  C   UNL     1      37.877  -0.090  14.788  0.00  0.00    +0.000 C 
ATOM     21  O   UNL     1      37.699  -0.047  13.583  0.00  0.00    +0.000 OA
ATOM     22  N   UNL     1      39.205  -0.347  15.289  0.00  0.00    +0.000 NA
BRANCH  22  23
ATOM     23  C   UNL     1      40.252  -0.537  14.277  0.00  0.00    +0.000 C 
BRANCH  23  24
ATOM     24  C   UNL     1      40.733  -1.966  14.305  0.00  0.00    +0.000 C 
BRANCH  24  25
ATOM     25  C   UNL     1      40.865  -2.414  12.881  0.00  0.00    +0.000 A 
ATOM     26  C   UNL     1      41.812  -3.344  12.529  0.00  0.00    +0.000 A 
ATOM     27  C   UNL     1      41.911  -3.733  11.230  0.00  0.00    +0.000 A 
ATOM     28  C   UNL     1      41.088  -3.221  10.258  0.00  0.00    +0.000 A 
ATOM     29  C   UNL     1      40.118  -2.274  10.592  0.00  0.00    +0.000 A 
ATOM     30  C   UNL     1      40.035  -1.894  11.912  0.00  0.00    +0.000 A 
ENDBRANCH  24  25
ENDBRANCH  23  24
ENDBRANCH  22  23
ENDBRANCH   5  20
TORSDOF 7
ENDMDL
MODEL 6
REMARK VINA RESULT:      -7.4     23.937     27.115
REMARK  Name = 
REMARK  7 active torsions:
REMARK  status: ('A' for Active; 'I' for Inactive)
REMARK    1  A    between atoms: O_2  and  C_3
REMARK    2  A    between atoms: C_7  and  C_8
REMARK    3  A    between atoms: N_10  and  C_11
REMARK    4  A    between atoms: C_15  and  C_16
REMARK    5  A    between atoms: N_18  and  C_19
REMARK    6  A    between atoms: C_19  and  C_20
REMARK    7  A    between atoms: C_20  and  C_21
REMARK                            x       y       z     vdW  Elec       q    Type
REMARK                         _______ _______ _______ _____ _____    ______ ____
ROOT
ATOM      1  C   UNL     1      11.944  -0.559  26.864  0.00  0.00    +0.000 A 
ATOM      2  S   UNL     1      10.488   0.222  26.210  0.00  0.00    +0.000 S 
ATOM      3  C   UNL     1      10.884   1.820  26.482  0.00  0.00    +0.000 A 
ATOM      4  C   UNL     1      12.100   1.756  27.059  0.00  0.00    +0.000 A 
ATOM      5  C   UNL     1      12.664   0.537  27.264  0.00  0.00    +0.000 A 
ATOM      6  C   UNL     1      12.501   3.220  27.328  0.00  0.00    +0.000 C 
ATOM      7  C   UNL     1      11.774   3.934  26.234  0.00  0.00    +0.000 C 
ATOM      8  C   UNL     1      10.401   3.252  26.324  0.00  0.00    +0.000 C 
ENDROOT
BRANCH   1  11
ATOM      9  C   UNL     1      11.978  -3.099  26.299  0.00  0.00    +0.000 C 
ATOM     10  O   UNL     1      11.608  -3.214  25.122  0.00  0.00    +0.000 OA
ATOM     11  N   UNL     1      12.053  -1.918  26.845  0.00  0.00    +0.000 NA
BRANCH   9  16
ATOM     12  C   UNL     1      12.686  -6.749  26.865  0.00  0.00    +0.000 A 
ATOM     13  C   UNL     1      12.930  -6.788  28.216  0.00  0.00    +0.000 A 
ATOM     14  C   UNL     1      12.864  -5.605  28.962  0.00  0.00    +0.000 A 
ATOM     15  C   UNL     1      12.559  -4.405  28.365  0.00  0.00    +0.000 A 
ATOM     16  C   UNL     1      12.316  -4.370  27.016  0.00  0.00    +0.000 A 
ATOM     17  C   UNL     1      12.385  -5.525  26.313  0.00  0.00    +0.000 A 
BRANCH  12  19
ATOM     18  C   UNL     1      13.274  -9.119  26.595  0.00  0.00    +0.000 C 
ATOM     19  O   UNL     1      12.751  -7.912  26.127  0.00  0.00    +0.000 OA
ENDBRANCH  12  19
ENDBRANCH   9  16
ENDBRANCH   1  11
BRANCH   5  20
ATOM     20  C   UNL     1      14.009   0.393  27.897  0.00  0.00    +0.000 C 
ATOM     21  O   UNL     1      14.155   0.195  29.092  0.00  0.00    +0.000 OA
ATOM     22  N   UNL     1      15.177   0.494  27.058  0.00  0.00    +0.000 NA
BRANCH  22  23
ATOM     23  C   UNL     1      16.472   0.345  27.733  0.00  0.00    +0.000 C 
BRANCH  23  24
ATOM     24  C   UNL     1      17.496   1.230  27.068  0.00  0.00    +0.000 C 
BRANCH  24  25
ATOM     25  C   UNL     1      18.201   0.393  26.041  0.00  0.00    +0.000 A 
ATOM     26  C   UNL     1      18.785   0.981  24.947  0.00  0.00    +0.000 A 
ATOM     27  C   UNL     1      19.418   0.199  24.032  0.00  0.00    +0.000 A 
ATOM     28  C   UNL     1      19.487  -1.165  24.171  0.00  0.00    +0.000 A 
ATOM     29  C   UNL     1      18.899  -1.784  25.276  0.00  0.00    +0.000 A 
ATOM     30  C   UNL     1      18.264  -0.975  26.190  0.00  0.00    +0.000 A 
ENDBRANCH  24  25
ENDBRANCH  23  24
ENDBRANCH  22  23
ENDBRANCH   5  20
TORSDOF 7
ENDMDL
MODEL 7
REMARK VINA RESULT:      -7.4      3.332      4.418
REMARK  Name = 
REMARK  7 active torsions:
REMARK  status: ('A' for Active; 'I' for Inactive)
REMARK    1  A    between atoms: O_2  and  C_3
REMARK    2  A    between atoms: C_7  and  C_8
REMARK    3  A    between atoms: N_10  and  C_11
REMARK    4  A    between atoms: C_15  and  C_16
REMARK    5  A    between atoms: N_18  and  C_19
REMARK    6  A    between atoms: C_19  and  C_20
REMARK    7  A    between atoms: C_20  and  C_21
REMARK                            x       y       z     vdW  Elec       q    Type
REMARK                         _______ _______ _______ _____ _____    ______ ____
ROOT
ATOM      1  C   UNL     1      37.310   6.537  14.855  0.00  0.00    +0.000 A 
ATOM      2  S   UNL     1      37.248   8.208  14.255  0.00  0.00    +0.000 S 
ATOM      3  C   UNL     1      36.110   8.028  13.048  0.00  0.00    +0.000 A 
ATOM      4  C   UNL     1      35.786   6.721  13.104  0.00  0.00    +0.000 A 
ATOM      5  C   UNL     1      36.396   5.935  14.030  0.00  0.00    +0.000 A 
ATOM      6  C   UNL     1      34.733   6.515  11.998  0.00  0.00    +0.000 C 
ATOM      7  C   UNL     1      34.093   7.865  11.940  0.00  0.00    +0.000 C 
ATOM      8  C   UNL     1      35.339   8.761  11.964  0.00  0.00    +0.000 C 
ENDROOT
BRANCH   1  11
ATOM      9  C   UNL     1      38.684   5.411  16.756  0.00  0.00    +0.000 C 
ATOM     10  O   UNL     1      38.339   4.221  16.799  0.00  0.00    +0.000 OA
ATOM     11  N   UNL     1      38.146   6.214  15.883  0.00  0.00    +0.000 NA
BRANCH   9  16
ATOM     12  C   UNL     1      42.003   6.530  18.127  0.00  0.00    +0.000 A 
ATOM     13  C   UNL     1      41.738   6.632  19.471  0.00  0.00    +0.000 A 
ATOM     14  C   UNL     1      40.456   6.331  19.946  0.00  0.00    +0.000 A 
ATOM     15  C   UNL     1      39.456   5.935  19.089  0.00  0.00    +0.000 A 
ATOM     16  C   UNL     1      39.725   5.835  17.747  0.00  0.00    +0.000 A 
ATOM     17  C   UNL     1      40.971   6.130  17.309  0.00  0.00    +0.000 A 
BRANCH  12  19
ATOM     18  C   UNL     1      44.389   7.009  18.465  0.00  0.00    +0.000 C 
ATOM     19  O   UNL     1      43.265   6.825  17.656  0.00  0.00    +0.000 OA
ENDBRANCH  12  19
ENDBRANCH   9  16
ENDBRANCH   1  11
BRANCH   5  20
ATOM     20  C   UNL     1      36.085   4.479  14.148  0.00  0.00    +0.000 C 
ATOM     21  O   UNL     1      36.697   3.624  13.530  0.00  0.00    +0.000 OA
ATOM     22  N   UNL     1      35.016   4.075  15.027  0.00  0.00    +0.000 NA
BRANCH  22  23
ATOM     23  C   UNL     1      34.753   2.632  15.103  0.00  0.00    +0.000 C 
BRANCH  23  24
ATOM     24  C   UNL     1      35.272   2.090  16.411  0.00  0.00    +0.000 C 
BRANCH  24  25
ATOM     25  C   UNL     1      35.363   0.600  16.265  0.00  0.00    +0.000 A 
ATOM     26  C   UNL     1      36.174   0.043  15.308  0.00  0.00    +0.000 A 
ATOM     27  C   UNL     1      36.237  -1.311  15.198  0.00  0.00    +0.000 A 
ATOM     28  C   UNL     1      35.511  -2.138  16.019  0.00  0.00    +0.000 A 
ATOM     29  C   UNL     1      34.680  -1.592  16.999  0.00  0.00    +0.000 A 
ATOM     30  C   UNL     1      34.630  -0.221  17.094  0.00  0.00    +0.000 A 
ENDBRANCH  24  25
ENDBRANCH  23  24
ENDBRANCH  22  23
ENDBRANCH   5  20
TORSDOF 7
ENDMDL
MODEL 8
REMARK VINA RESULT:      -7.4      3.112      3.891
REMARK  Name = 
REMARK  7 active torsions:
REMARK  status: ('A' for Active; 'I' for Inactive)
REMARK    1  A    between atoms: O_2  and  C_3
REMARK    2  A    between atoms: C_7  and  C_8
REMARK    3  A    between atoms: N_10  and  C_11
REMARK    4  A    between atoms: C_15  and  C_16
REMARK    5  A    between atoms: N_18  and  C_19
REMARK    6  A    between atoms: C_19  and  C_20
REMARK    7  A    between atoms: C_20  and  C_21
REMARK                            x       y       z     vdW  Elec       q    Type
REMARK                         _______ _______ _______ _____ _____    ______ ____
ROOT
ATOM      1  C   UNL     1      37.047   6.648  14.621  0.00  0.00    +0.000 A 
ATOM      2  S   UNL     1      37.038   8.253  13.859  0.00  0.00    +0.000 S 
ATOM      3  C   UNL     1      36.222   7.887  12.450  0.00  0.00    +0.000 A 
ATOM      4  C   UNL     1      35.963   6.568  12.561  0.00  0.00    +0.000 A 
ATOM      5  C   UNL     1      36.381   5.912  13.675  0.00  0.00    +0.000 A 
ATOM      6  C   UNL     1      35.207   6.191  11.272  0.00  0.00    +0.000 C 
ATOM      7  C   UNL     1      34.529   7.480  10.936  0.00  0.00    +0.000 C 
ATOM      8  C   UNL     1      35.687   8.465  11.151  0.00  0.00    +0.000 C 
ENDROOT
BRANCH   1  11
ATOM      9  C   UNL     1      38.144   5.779  16.815  0.00  0.00    +0.000 C 
ATOM     10  O   UNL     1      38.183   4.543  16.736  0.00  0.00    +0.000 OA
ATOM     11  N   UNL     1      37.636   6.477  15.839  0.00  0.00    +0.000 NA
BRANCH   9  16
ATOM     12  C   UNL     1      38.598   8.176  19.677  0.00  0.00    +0.000 A 
ATOM     13  C   UNL     1      39.634   7.600  20.372  0.00  0.00    +0.000 A 
ATOM     14  C   UNL     1      40.199   6.408  19.904  0.00  0.00    +0.000 A 
ATOM     15  C   UNL     1      39.735   5.804  18.759  0.00  0.00    +0.000 A 
ATOM     16  C   UNL     1      38.700   6.382  18.068  0.00  0.00    +0.000 A 
ATOM     17  C   UNL     1      38.168   7.535  18.538  0.00  0.00    +0.000 A 
BRANCH  12  19
ATOM     18  C   UNL     1      38.508  10.075  21.234  0.00  0.00    +0.000 C 
ATOM     19  O   UNL     1      38.039   9.350  20.136  0.00  0.00    +0.000 OA
ENDBRANCH  12  19
ENDBRANCH   9  16
ENDBRANCH   1  11
BRANCH   5  20
ATOM     20  C   UNL     1      36.128   4.452  13.865  0.00  0.00    +0.000 C 
ATOM     21  O   UNL     1      36.818   3.593  13.343  0.00  0.00    +0.000 OA
ATOM     22  N   UNL     1      35.022   4.050  14.697  0.00  0.00    +0.000 NA
BRANCH  22  23
ATOM     23  C   UNL     1      34.819   2.603  14.848  0.00  0.00    +0.000 C 
BRANCH  23  24
ATOM     24  C   UNL     1      35.423   2.139  16.149  0.00  0.00    +0.000 C 
BRANCH  24  25
ATOM     25  C   UNL     1      35.452   0.640  16.111  0.00  0.00    +0.000 A 
ATOM     26  C   UNL     1      36.222  -0.018  15.185  0.00  0.00    +0.000 A 
ATOM     27  C   UNL     1      36.230  -1.377  15.174  0.00  0.00    +0.000 A 
ATOM     28  C   UNL     1      35.486  -2.112  16.063  0.00  0.00    +0.000 A 
ATOM     29  C   UNL     1      34.694  -1.464  17.013  0.00  0.00    +0.000 A 
ATOM     30  C   UNL     1      34.701  -0.088  17.008  0.00  0.00    +0.000 A 
ENDBRANCH  24  25
ENDBRANCH  23  24
ENDBRANCH  22  23
ENDBRANCH   5  20
TORSDOF 7
ENDMDL
MODEL 9
REMARK VINA RESULT:      -7.4      4.499      5.768
REMARK  Name = 
REMARK  7 active torsions:
REMARK  status: ('A' for Active; 'I' for Inactive)
REMARK    1  A    between atoms: O_2  and  C_3
REMARK    2  A    between atoms: C_7  and  C_8
REMARK    3  A    between atoms: N_10  and  C_11
REMARK    4  A    between atoms: C_15  and  C_16
REMARK    5  A    between atoms: N_18  and  C_19
REMARK    6  A    between atoms: C_19  and  C_20
REMARK    7  A    between atoms: C_20  and  C_21
REMARK                            x       y       z     vdW  Elec       q    Type
REMARK                         _______ _______ _______ _____ _____    ______ ____
ROOT
ATOM      1  C   UNL     1      38.683   0.001  11.995  0.00  0.00    +0.000 A 
ATOM      2  S   UNL     1      39.150   0.683  10.422  0.00  0.00    +0.000 S 
ATOM      3  C   UNL     1      40.101  -0.564   9.850  0.00  0.00    +0.000 A 
ATOM      4  C   UNL     1      40.061  -1.479  10.839  0.00  0.00    +0.000 A 
ATOM      5  C   UNL     1      39.334  -1.205  11.954  0.00  0.00    +0.000 A 
ATOM      6  C   UNL     1      40.931  -2.651  10.345  0.00  0.00    +0.000 C 
ATOM      7  C   UNL     1      40.769  -2.539   8.863  0.00  0.00    +0.000 C 
ATOM      8  C   UNL     1      40.951  -1.026   8.679  0.00  0.00    +0.000 C 
ENDROOT
BRANCH   1  11
ATOM      9  C   UNL     1      37.191   1.758  13.203  0.00  0.00    +0.000 C 
ATOM     10  O   UNL     1      37.166   2.768  12.484  0.00  0.00    +0.000 OA
ATOM     11  N   UNL     1      37.875   0.712  12.832  0.00  0.00    +0.000 NA
BRANCH   9  16
ATOM     12  C   UNL     1      36.165   1.077  16.756  0.00  0.00    +0.000 A 
ATOM     13  C   UNL     1      35.056   1.876  16.892  0.00  0.00    +0.000 A 
ATOM     14  C   UNL     1      34.629   2.653  15.809  0.00  0.00    +0.000 A 
ATOM     15  C   UNL     1      35.302   2.630  14.610  0.00  0.00    +0.000 A 
ATOM     16  C   UNL     1      36.409   1.832  14.478  0.00  0.00    +0.000 A 
ATOM     17  C   UNL     1      36.805   1.088  15.538  0.00  0.00    +0.000 A 
BRANCH  12  19
ATOM     18  C   UNL     1      35.740  -0.400  18.673  0.00  0.00    +0.000 C 
ATOM     19  O   UNL     1      36.588   0.311  17.822  0.00  0.00    +0.000 OA
ENDBRANCH  12  19
ENDBRANCH   9  16
ENDBRANCH   1  11
BRANCH   5  20
ATOM     20  C   UNL     1      39.245  -2.174  13.087  0.00  0.00    +0.000 C 
ATOM     21  O   UNL     1      38.706  -3.262  12.981  0.00  0.00    +0.000 OA
ATOM     22  N   UNL     1      39.821  -1.801  14.355  0.00  0.00    +0.000 NA
BRANCH  22  23
ATOM     23  C   UNL     1      39.705  -2.791  15.434  0.00  0.00    +0.000 C 
BRANCH  23  24
ATOM     24  C   UNL     1      38.669  -2.336  16.431  0.00  0.00    +0.000 C 
BRANCH  24  25
ATOM     25  C   UNL     1      37.413  -3.103  16.142  0.00  0.00    +0.000 A 
ATOM     26  C   UNL     1      37.336  -4.444  16.425  0.00  0.00    +0.000 A 
ATOM     27  C   UNL     1      36.185  -5.115  16.153  0.00  0.00    +0.000 A 
ATOM     28  C   UNL     1      35.096  -4.487  15.601  0.00  0.00    +0.000 A 
ATOM     29  C   UNL     1      35.152  -3.124  15.305  0.00  0.00    +0.000 A 
ATOM     30  C   UNL     1      36.326  -2.464  15.588  0.00  0.00    +0.000 A 
ENDBRANCH  24  25
ENDBRANCH  23  24
ENDBRANCH  22  23
ENDBRANCH   5  20
TORSDOF 7
ENDMDL
MODEL 10
REMARK VINA RESULT:      -7.3      2.287      8.383
REMARK  Name = 
REMARK  7 active torsions:
REMARK  status: ('A' for Active; 'I' for Inactive)
REMARK    1  A    between atoms: O_2  and  C_3
REMARK    2  A    between atoms: C_7  and  C_8
REMARK    3  A    between atoms: N_10  and  C_11
REMARK    4  A    between atoms: C_15  and  C_16
REMARK    5  A    between atoms: N_18  and  C_19
REMARK    6  A    between atoms: C_19  and  C_20
REMARK    7  A    between atoms: C_20  and  C_21
REMARK                            x       y       z     vdW  Elec       q    Type
REMARK                         _______ _______ _______ _____ _____    ______ ____
ROOT
ATOM      1  C   UNL     1      38.448   3.351  15.451  0.00  0.00    +0.000 A 
ATOM      2  S   UNL     1      39.208   3.103  13.865  0.00  0.00    +0.000 S 
ATOM      3  C   UNL     1      40.254   4.404  13.851  0.00  0.00    +0.000 A 
ATOM      4  C   UNL     1      40.025   5.012  15.033  0.00  0.00    +0.000 A 
ATOM      5  C   UNL     1      39.097   4.483  15.872  0.00  0.00    +0.000 A 
ATOM      6  C   UNL     1      40.977   6.224  15.057  0.00  0.00    +0.000 C 
ATOM      7  C   UNL     1      42.103   5.737  14.204  0.00  0.00    +0.000 C 
ATOM      8  C   UNL     1      41.319   5.119  13.038  0.00  0.00    +0.000 C 
ENDROOT
BRANCH   1  11
ATOM      9  C   UNL     1      36.288   2.143  16.255  0.00  0.00    +0.000 C 
ATOM     10  O   UNL     1      35.381   2.988  16.263  0.00  0.00    +0.000 OA
ATOM     11  N   UNL     1      37.491   2.483  15.889  0.00  0.00    +0.000 NA
BRANCH   9  16
ATOM     12  C   UNL     1      35.555  -1.539  16.045  0.00  0.00    +0.000 A 
ATOM     13  C   UNL     1      35.227  -1.842  17.344  0.00  0.00    +0.000 A 
ATOM     14  C   UNL     1      35.243  -0.830  18.311  0.00  0.00    +0.000 A 
ATOM     15  C   UNL     1      35.581   0.462  17.983  0.00  0.00    +0.000 A 
ATOM     16  C   UNL     1      35.909   0.759  16.685  0.00  0.00    +0.000 A 
ATOM     17  C   UNL     1      35.887  -0.234  15.765  0.00  0.00    +0.000 A 
BRANCH  12  19
ATOM     18  C   UNL     1      35.968  -3.846  15.305  0.00  0.00    +0.000 C 
ATOM     19  O   UNL     1      35.541  -2.534  15.089  0.00  0.00    +0.000 OA
ENDBRANCH  12  19
ENDBRANCH   9  16
ENDBRANCH   1  11
BRANCH   5  20
ATOM     20  C   UNL     1      38.794   5.104  17.196  0.00  0.00    +0.000 C 
ATOM     21  O   UNL     1      38.808   4.470  18.238  0.00  0.00    +0.000 OA
ATOM     22  N   UNL     1      38.472   6.509  17.237  0.00  0.00    +0.000 NA
BRANCH  22  23
ATOM     23  C   UNL     1      38.183   7.067  18.564  0.00  0.00    +0.000 C 
BRANCH  23  24
ATOM     24  C   UNL     1      39.105   8.227  18.839  0.00  0.00    +0.000 C 
BRANCH  24  25
ATOM     25  C   UNL     1      40.467   7.655  19.101  0.00  0.00    +0.000 A 
ATOM     26  C   UNL     1      41.526   7.980  18.290  0.00  0.00    +0.000 A 
ATOM     27  C   UNL     1      42.749   7.448  18.550  0.00  0.00    +0.000 A 
ATOM     28  C   UNL     1      42.956   6.591  19.603  0.00  0.00    +0.000 A 
ATOM     29  C   UNL     1      41.893   6.245  20.439  0.00  0.00    +0.000 A 
ATOM     30  C   UNL     1      40.663   6.795  20.160  0.00  0.00    +0.000 A 
ENDBRANCH  24  25
ENDBRANCH  23  24
ENDBRANCH  22  23
ENDBRANCH   5  20
TORSDOF 7
ENDMDL
