MODEL 1
REMARK VINA RESULT:      -8.5      0.000      0.000
REMARK  Name = 
REMARK  7 active torsions:
REMARK  status: ('A' for Active; 'I' for Inactive)
REMARK    1  A    between atoms: C_5  and  C_6
REMARK    2  A    between atoms: N_8  and  C_9
REMARK    3  A    between atoms: C_9  and  C_16
REMARK    4  A    between atoms: C_10  and  C_11
REMARK    5  A    between atoms: N_18  and  C_19
REMARK    6  A    between atoms: C_19  and  C_20
REMARK    7  A    between atoms: C_20  and  C_21
REMARK                            x       y       z     vdW  Elec       q    Type
REMARK                         _______ _______ _______ _____ _____    ______ ____
ROOT
ATOM      1  C   UNL     1      37.964   3.794  15.898  0.00  0.00    +0.000 C 
ATOM      2  C   UNL     1      38.935   3.333  15.181  0.00  0.00    +0.000 C 
ENDROOT
BRANCH   2   3
ATOM      3  C   UNL     1      38.986   2.145  14.370  0.00  0.00    +0.000 A 
ATOM      4  C   UNL     1      39.588   0.924  14.596  0.00  0.00    +0.000 A 
ATOM      5  C   UNL     1      39.353   0.119  13.526  0.00  0.00    +0.000 A 
ATOM      6  C   UNL     1      38.603   0.870  12.654  0.00  0.00    +0.000 A 
ATOM      7  O   UNL     1      38.406   2.038  13.167  0.00  0.00    +0.000 OA
ENDBRANCH   2   3
BRANCH   1  10
ATOM      8  C   UNL     1      38.556   5.014  17.991  0.00  0.00    +0.000 C 
ATOM      9  O   UNL     1      38.558   3.891  18.539  0.00  0.00    +0.000 OA
ATOM     10  N   UNL     1      38.253   5.038  16.596  0.00  0.00    +0.000 NA
BRANCH   8  15
ATOM     11  C   UNL     1      39.663   9.921  20.837  0.00  0.00    +0.000 C 
ATOM     12  C   UNL     1      39.396   8.643  20.114  0.00  0.00    +0.000 A 
ATOM     13  C   UNL     1      40.185   7.522  20.281  0.00  0.00    +0.000 A 
ATOM     14  C   UNL     1      39.910   6.345  19.591  0.00  0.00    +0.000 A 
ATOM     15  C   UNL     1      38.848   6.247  18.719  0.00  0.00    +0.000 A 
ATOM     16  C   UNL     1      38.058   7.361  18.550  0.00  0.00    +0.000 A 
ATOM     17  C   UNL     1      38.329   8.549  19.240  0.00  0.00    +0.000 A 
ATOM     18  C   UNL     1      37.482   9.759  19.065  0.00  0.00    +0.000 C 
ENDBRANCH   8  15
ENDBRANCH   1  10
BRANCH   1  19
ATOM     19  C   UNL     1      36.702   3.140  16.033  0.00  0.00    +0.000 C 
ATOM     20  O   UNL     1      35.665   3.521  15.399  0.00  0.00    +0.000 OA
ATOM     21  N   UNL     1      36.507   2.032  16.873  0.00  0.00    +0.000 NA
BRANCH  21  22
ATOM     22  C   UNL     1      35.261   1.319  17.066  0.00  0.00    +0.000 C 
BRANCH  22  23
ATOM     23  C   UNL     1      35.454  -0.081  16.523  0.00  0.00    +0.000 C 
BRANCH  23  24
ATOM     24  C   UNL     1      36.436  -0.845  17.303  0.00  0.00    +0.000 A 
ATOM     25  C   UNL     1      37.534  -1.370  16.687  0.00  0.00    +0.000 A 
ATOM     26  C   UNL     1      38.469  -2.092  17.388  0.00  0.00    +0.000 A 
ATOM     27  C   UNL     1      38.294  -2.286  18.721  0.00  0.00    +0.000 A 
ATOM     28  C   UNL     1      37.177  -1.755  19.362  0.00  0.00    +0.000 A 
ATOM     29  C   UNL     1      36.251  -1.035  18.645  0.00  0.00    +0.000 A 
ATOM     30  F   UNL     1      35.170  -0.532  19.315  0.00  0.00    +0.000 F 
ENDBRANCH  23  24
ENDBRANCH  22  23
ENDBRANCH  21  22
ENDBRANCH   1  19
TORSDOF 7
ENDMDL
MODEL 2
REMARK VINA RESULT:      -7.9      3.064      8.353
REMARK  Name = 
REMARK  7 active torsions:
REMARK  status: ('A' for Active; 'I' for Inactive)
REMARK    1  A    between atoms: C_5  and  C_6
REMARK    2  A    between atoms: N_8  and  C_9
REMARK    3  A    between atoms: C_9  and  C_16
REMARK    4  A    between atoms: C_10  and  C_11
REMARK    5  A    between atoms: N_18  and  C_19
REMARK    6  A    between atoms: C_19  and  C_20
REMARK    7  A    between atoms: C_20  and  C_21
REMARK                            x       y       z     vdW  Elec       q    Type
REMARK                         _______ _______ _______ _____ _____    ______ ____
ROOT
ATOM      1  C   UNL     1      36.288   4.055  14.380  0.00  0.00    +0.000 C 
ATOM      2  C   UNL     1      35.197   4.589  13.940  0.00  0.00    +0.000 C 
ENDROOT
BRANCH   2   3
ATOM      3  C   UNL     1      34.891   5.975  13.700  0.00  0.00    +0.000 A 
ATOM      4  C   UNL     1      34.060   6.845  14.377  0.00  0.00    +0.000 A 
ATOM      5  C   UNL     1      34.106   8.056  13.761  0.00  0.00    +0.000 A 
ATOM      6  C   UNL     1      34.974   7.904  12.706  0.00  0.00    +0.000 A 
ATOM      7  O   UNL     1      35.412   6.690  12.695  0.00  0.00    +0.000 OA
ENDBRANCH   2   3
BRANCH   1  10
ATOM      8  C   UNL     1      35.697   2.002  15.666  0.00  0.00    +0.000 C 
ATOM      9  O   UNL     1      35.250   2.783  16.535  0.00  0.00    +0.000 OA
ATOM     10  N   UNL     1      36.257   2.605  14.500  0.00  0.00    +0.000 NA
BRANCH   8  15
ATOM     11  C   UNL     1      35.562  -3.751  16.204  0.00  0.00    +0.000 C 
ATOM     12  C   UNL     1      35.582  -2.263  16.085  0.00  0.00    +0.000 A 
ATOM     13  C   UNL     1      34.876  -1.445  16.944  0.00  0.00    +0.000 A 
ATOM     14  C   UNL     1      34.915  -0.060  16.807  0.00  0.00    +0.000 A 
ATOM     15  C   UNL     1      35.654   0.549  15.817  0.00  0.00    +0.000 A 
ATOM     16  C   UNL     1      36.361  -0.263  14.958  0.00  0.00    +0.000 A 
ATOM     17  C   UNL     1      36.326  -1.656  15.091  0.00  0.00    +0.000 A 
ATOM     18  C   UNL     1      37.086  -2.543  14.169  0.00  0.00    +0.000 C 
ENDBRANCH   8  15
ENDBRANCH   1  10
BRANCH   1  19
ATOM     19  C   UNL     1      37.442   4.809  14.752  0.00  0.00    +0.000 C 
ATOM     20  O   UNL     1      38.166   5.415  13.897  0.00  0.00    +0.000 OA
ATOM     21  N   UNL     1      37.867   4.938  16.084  0.00  0.00    +0.000 NA
BRANCH  21  22
ATOM     22  C   UNL     1      39.026   5.680  16.538  0.00  0.00    +0.000 C 
BRANCH  22  23
ATOM     23  C   UNL     1      39.193   5.393  18.016  0.00  0.00    +0.000 C 
BRANCH  23  24
ATOM     24  C   UNL     1      38.881   6.564  18.845  0.00  0.00    +0.000 A 
ATOM     25  C   UNL     1      37.858   7.396  18.490  0.00  0.00    +0.000 A 
ATOM     26  C   UNL     1      37.545   8.501  19.242  0.00  0.00    +0.000 A 
ATOM     27  C   UNL     1      38.268   8.771  20.360  0.00  0.00    +0.000 A 
ATOM     28  C   UNL     1      39.314   7.929  20.733  0.00  0.00    +0.000 A 
ATOM     29  C   UNL     1      39.614   6.827  19.969  0.00  0.00    +0.000 A 
ATOM     30  F   UNL     1      40.650   6.029  20.373  0.00  0.00    +0.000 F 
ENDBRANCH  23  24
ENDBRANCH  22  23
ENDBRANCH  21  22
ENDBRANCH   1  19
TORSDOF 7
ENDMDL
MODEL 3
REMARK VINA RESULT:      -7.8      1.873      2.493
REMARK  Name = 
REMARK  7 active torsions:
REMARK  status: ('A' for Active; 'I' for Inactive)
REMARK    1  A    between atoms: C_5  and  C_6
REMARK    2  A    between atoms: N_8  and  C_9
REMARK    3  A    between atoms: C_9  and  C_16
REMARK    4  A    between atoms: C_10  and  C_11
REMARK    5  A    between atoms: N_18  and  C_19
REMARK    6  A    between atoms: C_19  and  C_20
REMARK    7  A    between atoms: C_20  and  C_21
REMARK                            x       y       z     vdW  Elec       q    Type
REMARK                         _______ _______ _______ _____ _____    ______ ____
ROOT
ATOM      1  C   UNL     1      37.987   3.110  15.464  0.00  0.00    +0.000 C 
ATOM      2  C   UNL     1      38.551   2.899  14.321  0.00  0.00    +0.000 C 
ENDROOT
BRANCH   2   3
ATOM      3  C   UNL     1      37.989   2.355  13.113  0.00  0.00    +0.000 A 
ATOM      4  C   UNL     1      37.512   1.091  12.829  0.00  0.00    +0.000 A 
ATOM      5  C   UNL     1      37.081   1.069  11.540  0.00  0.00    +0.000 A 
ATOM      6  C   UNL     1      37.304   2.333  11.052  0.00  0.00    +0.000 A 
ATOM      7  O   UNL     1      37.830   3.056  11.983  0.00  0.00    +0.000 OA
ENDBRANCH   2   3
BRANCH   1  10
ATOM      8  C   UNL     1      38.925   5.101  16.637  0.00  0.00    +0.000 C 
ATOM      9  O   UNL     1      38.209   5.779  15.869  0.00  0.00    +0.000 OA
ATOM     10  N   UNL     1      38.857   3.684  16.481  0.00  0.00    +0.000 NA
BRANCH   8  15
ATOM     11  C   UNL     1      42.399   7.494  20.588  0.00  0.00    +0.000 C 
ATOM     12  C   UNL     1      41.484   6.874  19.585  0.00  0.00    +0.000 A 
ATOM     13  C   UNL     1      40.212   6.448  19.911  0.00  0.00    +0.000 A 
ATOM     14  C   UNL     1      39.383   5.873  18.952  0.00  0.00    +0.000 A 
ATOM     15  C   UNL     1      39.791   5.706  17.647  0.00  0.00    +0.000 A 
ATOM     16  C   UNL     1      41.058   6.130  17.317  0.00  0.00    +0.000 A 
ATOM     17  C   UNL     1      41.898   6.709  18.276  0.00  0.00    +0.000 A 
ATOM     18  C   UNL     1      43.269   7.171  17.930  0.00  0.00    +0.000 C 
ENDBRANCH   8  15
ENDBRANCH   1  10
BRANCH   1  19
ATOM     19  C   UNL     1      36.624   2.791  15.744  0.00  0.00    +0.000 C 
ATOM     20  O   UNL     1      35.656   3.497  15.312  0.00  0.00    +0.000 OA
ATOM     21  N   UNL     1      36.247   1.680  16.515  0.00  0.00    +0.000 NA
BRANCH  21  22
ATOM     22  C   UNL     1      34.890   1.294  16.844  0.00  0.00    +0.000 C 
BRANCH  22  23
ATOM     23  C   UNL     1      34.827  -0.218  16.793  0.00  0.00    +0.000 C 
BRANCH  23  24
ATOM     24  C   UNL     1      35.971  -0.842  17.470  0.00  0.00    +0.000 A 
ATOM     25  C   UNL     1      36.016  -0.881  18.834  0.00  0.00    +0.000 A 
ATOM     26  C   UNL     1      37.073  -1.453  19.496  0.00  0.00    +0.000 A 
ATOM     27  C   UNL     1      38.094  -1.991  18.778  0.00  0.00    +0.000 A 
ATOM     28  C   UNL     1      38.060  -1.958  17.386  0.00  0.00    +0.000 A 
ATOM     29  C   UNL     1      36.994  -1.381  16.739  0.00  0.00    +0.000 A 
ATOM     30  F   UNL     1      37.002  -1.370  15.371  0.00  0.00    +0.000 F 
ENDBRANCH  23  24
ENDBRANCH  22  23
ENDBRANCH  21  22
ENDBRANCH   1  19
TORSDOF 7
ENDMDL
MODEL 4
REMARK VINA RESULT:      -7.8      4.391      5.894
REMARK  Name = 
REMARK  7 active torsions:
REMARK  status: ('A' for Active; 'I' for Inactive)
REMARK    1  A    between atoms: C_5  and  C_6
REMARK    2  A    between atoms: N_8  and  C_9
REMARK    3  A    between atoms: C_9  and  C_16
REMARK    4  A    between atoms: C_10  and  C_11
REMARK    5  A    between atoms: N_18  and  C_19
REMARK    6  A    between atoms: C_19  and  C_20
REMARK    7  A    between atoms: C_20  and  C_21
REMARK                            x       y       z     vdW  Elec       q    Type
REMARK                         _______ _______ _______ _____ _____    ______ ____
ROOT
ATOM      1  C   UNL     1      36.050   1.642  15.166  0.00  0.00    +0.000 C 
ATOM      2  C   UNL     1      35.395   1.400  16.253  0.00  0.00    +0.000 C 
ENDROOT
BRANCH   2   3
ATOM      3  C   UNL     1      35.666   0.434  17.286  0.00  0.00    +0.000 A 
ATOM      4  C   UNL     1      35.262  -0.879  17.421  0.00  0.00    +0.000 A 
ATOM      5  C   UNL     1      35.781  -1.375  18.575  0.00  0.00    +0.000 A 
ATOM      6  C   UNL     1      36.501  -0.347  19.132  0.00  0.00    +0.000 A 
ATOM      7  O   UNL     1      36.417   0.688  18.365  0.00  0.00    +0.000 OA
ENDBRANCH   2   3
BRANCH   1  10
ATOM      8  C   UNL     1      35.963   4.043  14.495  0.00  0.00    +0.000 C 
ATOM      9  O   UNL     1      36.850   4.223  15.358  0.00  0.00    +0.000 OA
ATOM     10  N   UNL     1      35.495   2.703  14.338  0.00  0.00    +0.000 NA
BRANCH   8  15
ATOM     11  C   UNL     1      33.875   8.331  11.232  0.00  0.00    +0.000 C 
ATOM     12  C   UNL     1      34.397   7.229  12.092  0.00  0.00    +0.000 A 
ATOM     13  C   UNL     1      33.886   6.968  13.347  0.00  0.00    +0.000 A 
ATOM     14  C   UNL     1      34.396   5.932  14.126  0.00  0.00    +0.000 A 
ATOM     15  C   UNL     1      35.423   5.129  13.681  0.00  0.00    +0.000 A 
ATOM     16  C   UNL     1      35.935   5.385  12.430  0.00  0.00    +0.000 A 
ATOM     17  C   UNL     1      35.428   6.425  11.641  0.00  0.00    +0.000 A 
ATOM     18  C   UNL     1      35.974   6.710  10.287  0.00  0.00    +0.000 C 
ENDBRANCH   8  15
ENDBRANCH   1  10
BRANCH   1  19
ATOM     19  C   UNL     1      37.218   0.922  14.770  0.00  0.00    +0.000 C 
ATOM     20  O   UNL     1      38.369   1.169  15.256  0.00  0.00    +0.000 OA
ATOM     21  N   UNL     1      37.188  -0.107  13.816  0.00  0.00    +0.000 NA
BRANCH  21  22
ATOM     22  C   UNL     1      38.326  -0.879  13.360  0.00  0.00    +0.000 C 
BRANCH  22  23
ATOM     23  C   UNL     1      37.928  -2.339  13.407  0.00  0.00    +0.000 C 
BRANCH  23  24
ATOM     24  C   UNL     1      38.016  -2.892  14.764  0.00  0.00    +0.000 A 
ATOM     25  C   UNL     1      39.045  -2.525  15.583  0.00  0.00    +0.000 A 
ATOM     26  C   UNL     1      39.158  -3.028  16.856  0.00  0.00    +0.000 A 
ATOM     27  C   UNL     1      38.224  -3.906  17.308  0.00  0.00    +0.000 A 
ATOM     28  C   UNL     1      37.169  -4.287  16.483  0.00  0.00    +0.000 A 
ATOM     29  C   UNL     1      37.072  -3.775  15.211  0.00  0.00    +0.000 A 
ATOM     30  F   UNL     1      36.019  -4.177  14.435  0.00  0.00    +0.000 F 
ENDBRANCH  23  24
ENDBRANCH  22  23
ENDBRANCH  21  22
ENDBRANCH   1  19
TORSDOF 7
ENDMDL
MODEL 5
REMARK VINA RESULT:      -7.7      2.950      4.035
REMARK  Name = 
REMARK  7 active torsions:
REMARK  status: ('A' for Active; 'I' for Inactive)
REMARK    1  A    between atoms: C_5  and  C_6
REMARK    2  A    between atoms: N_8  and  C_9
REMARK    3  A    between atoms: C_9  and  C_16
REMARK    4  A    between atoms: C_10  and  C_11
REMARK    5  A    between atoms: N_18  and  C_19
REMARK    6  A    between atoms: C_19  and  C_20
REMARK    7  A    between atoms: C_20  and  C_21
REMARK                            x       y       z     vdW  Elec       q    Type
REMARK                         _______ _______ _______ _____ _____    ______ ____
ROOT
ATOM      1  C   UNL     1      37.327   5.448  15.289  0.00  0.00    +0.000 C 
ATOM      2  C   UNL     1      36.808   6.521  14.791  0.00  0.00    +0.000 C 
ENDROOT
BRANCH   2   3
ATOM      3  C   UNL     1      35.979   6.677  13.624  0.00  0.00    +0.000 A 
ATOM      4  C   UNL     1      34.609   6.601  13.474  0.00  0.00    +0.000 A 
ATOM      5  C   UNL     1      34.302   6.822  12.169  0.00  0.00    +0.000 A 
ATOM      6  C   UNL     1      35.503   7.033  11.535  0.00  0.00    +0.000 A 
ATOM      7  O   UNL     1      36.456   6.943  12.401  0.00  0.00    +0.000 OA
ENDBRANCH   2   3
BRANCH   1  10
ATOM      8  C   UNL     1      39.518   5.903  16.390  0.00  0.00    +0.000 C 
ATOM      9  O   UNL     1      39.991   5.938  15.232  0.00  0.00    +0.000 OA
ATOM     10  N   UNL     1      38.117   5.652  16.495  0.00  0.00    +0.000 NA
BRANCH   8  15
ATOM     11  C   UNL     1      42.815   6.717  21.066  0.00  0.00    +0.000 C 
ATOM     12  C   UNL     1      41.944   6.504  19.873  0.00  0.00    +0.000 A 
ATOM     13  C   UNL     1      40.602   6.202  19.985  0.00  0.00    +0.000 A 
ATOM     14  C   UNL     1      39.815   6.008  18.852  0.00  0.00    +0.000 A 
ATOM     15  C   UNL     1      40.338   6.109  17.582  0.00  0.00    +0.000 A 
ATOM     16  C   UNL     1      41.676   6.410  17.465  0.00  0.00    +0.000 A 
ATOM     17  C   UNL     1      42.473   6.606  18.600  0.00  0.00    +0.000 A 
ATOM     18  C   UNL     1      43.919   6.932  18.486  0.00  0.00    +0.000 C 
ENDBRANCH   8  15
ENDBRANCH   1  10
BRANCH   1  19
ATOM     19  C   UNL     1      37.174   4.153  14.709  0.00  0.00    +0.000 C 
ATOM     20  O   UNL     1      37.869   3.765  13.715  0.00  0.00    +0.000 OA
ATOM     21  N   UNL     1      36.248   3.212  15.186  0.00  0.00    +0.000 NA
BRANCH  21  22
ATOM     22  C   UNL     1      36.031   1.884  14.650  0.00  0.00    +0.000 C 
BRANCH  22  23
ATOM     23  C   UNL     1      36.817   0.917  15.511  0.00  0.00    +0.000 C 
BRANCH  23  24
ATOM     24  C   UNL     1      36.001  -0.224  15.945  0.00  0.00    +0.000 A 
ATOM     25  C   UNL     1      36.159  -1.440  15.347  0.00  0.00    +0.000 A 
ATOM     26  C   UNL     1      35.409  -2.526  15.727  0.00  0.00    +0.000 A 
ATOM     27  C   UNL     1      34.492  -2.383  16.720  0.00  0.00    +0.000 A 
ATOM     28  C   UNL     1      34.321  -1.147  17.339  0.00  0.00    +0.000 A 
ATOM     29  C   UNL     1      35.080  -0.071  16.945  0.00  0.00    +0.000 A 
ATOM     30  F   UNL     1      34.879   1.124  17.580  0.00  0.00    +0.000 F 
ENDBRANCH  23  24
ENDBRANCH  22  23
ENDBRANCH  21  22
ENDBRANCH   1  19
TORSDOF 7
ENDMDL
MODEL 6
REMARK VINA RESULT:      -7.5      3.345      8.727
REMARK  Name = 
REMARK  7 active torsions:
REMARK  status: ('A' for Active; 'I' for Inactive)
REMARK    1  A    between atoms: C_5  and  C_6
REMARK    2  A    between atoms: N_8  and  C_9
REMARK    3  A    between atoms: C_9  and  C_16
REMARK    4  A    between atoms: C_10  and  C_11
REMARK    5  A    between atoms: N_18  and  C_19
REMARK    6  A    between atoms: C_19  and  C_20
REMARK    7  A    between atoms: C_20  and  C_21
REMARK                            x       y       z     vdW  Elec       q    Type
REMARK                         _______ _______ _______ _____ _____    ______ ____
ROOT
ATOM      1  C   UNL     1      38.367   4.388  16.561  0.00  0.00    +0.000 C 
ATOM      2  C   UNL     1      38.506   4.611  17.826  0.00  0.00    +0.000 C 
ENDROOT
BRANCH   2   3
ATOM      3  C   UNL     1      38.763   5.850  18.512  0.00  0.00    +0.000 A 
ATOM      4  C   UNL     1      39.778   6.209  19.376  0.00  0.00    +0.000 A 
ATOM      5  C   UNL     1      39.583   7.498  19.762  0.00  0.00    +0.000 A 
ATOM      6  C   UNL     1      38.440   7.910  19.121  0.00  0.00    +0.000 A 
ATOM      7  O   UNL     1      37.987   6.936  18.404  0.00  0.00    +0.000 OA
ENDBRANCH   2   3
BRANCH   1  10
ATOM      8  C   UNL     1      36.776   2.490  16.269  0.00  0.00    +0.000 C 
ATOM      9  O   UNL     1      35.890   3.295  16.632  0.00  0.00    +0.000 OA
ATOM     10  N   UNL     1      38.108   3.000  16.206  0.00  0.00    +0.000 NA
BRANCH   8  15
ATOM     11  C   UNL     1      35.590  -3.011  14.954  0.00  0.00    +0.000 C 
ATOM     12  C   UNL     1      35.911  -1.589  15.273  0.00  0.00    +0.000 A 
ATOM     13  C   UNL     1      36.780  -0.839  14.507  0.00  0.00    +0.000 A 
ATOM     14  C   UNL     1      37.059   0.486  14.832  0.00  0.00    +0.000 A 
ATOM     15  C   UNL     1      36.484   1.101  15.922  0.00  0.00    +0.000 A 
ATOM     16  C   UNL     1      35.617   0.357  16.689  0.00  0.00    +0.000 A 
ATOM     17  C   UNL     1      35.331  -0.975  16.369  0.00  0.00    +0.000 A 
ATOM     18  C   UNL     1      34.395  -1.788  17.190  0.00  0.00    +0.000 C 
ENDBRANCH   8  15
ENDBRANCH   1  10
BRANCH   1  19
ATOM     19  C   UNL     1      38.480   5.403  15.563  0.00  0.00    +0.000 C 
ATOM     20  O   UNL     1      39.597   5.734  15.049  0.00  0.00    +0.000 OA
ATOM     21  N   UNL     1      37.372   6.114  15.075  0.00  0.00    +0.000 NA
BRANCH  21  22
ATOM     22  C   UNL     1      37.405   7.156  14.070  0.00  0.00    +0.000 C 
BRANCH  22  23
ATOM     23  C   UNL     1      35.977   7.410  13.636  0.00  0.00    +0.000 C 
BRANCH  23  24
ATOM     24  C   UNL     1      35.258   8.275  14.580  0.00  0.00    +0.000 A 
ATOM     25  C   UNL     1      35.914   9.301  15.196  0.00  0.00    +0.000 A 
ATOM     26  C   UNL     1      35.272  10.126  16.086  0.00  0.00    +0.000 A 
ATOM     27  C   UNL     1      33.957   9.916  16.356  0.00  0.00    +0.000 A 
ATOM     28  C   UNL     1      33.276   8.872  15.733  0.00  0.00    +0.000 A 
ATOM     29  C   UNL     1      33.934   8.056  14.845  0.00  0.00    +0.000 A 
ATOM     30  F   UNL     1      33.226   7.044  14.256  0.00  0.00    +0.000 F 
ENDBRANCH  23  24
ENDBRANCH  22  23
ENDBRANCH  21  22
ENDBRANCH   1  19
TORSDOF 7
ENDMDL
MODEL 7
REMARK VINA RESULT:      -7.5      2.728      8.646
REMARK  Name = 
REMARK  7 active torsions:
REMARK  status: ('A' for Active; 'I' for Inactive)
REMARK    1  A    between atoms: C_5  and  C_6
REMARK    2  A    between atoms: N_8  and  C_9
REMARK    3  A    between atoms: C_9  and  C_16
REMARK    4  A    between atoms: C_10  and  C_11
REMARK    5  A    between atoms: N_18  and  C_19
REMARK    6  A    between atoms: C_19  and  C_20
REMARK    7  A    between atoms: C_20  and  C_21
REMARK                            x       y       z     vdW  Elec       q    Type
REMARK                         _______ _______ _______ _____ _____    ______ ____
ROOT
ATOM      1  C   UNL     1      36.753   2.375  15.455  0.00  0.00    +0.000 C 
ATOM      2  C   UNL     1      35.917   2.836  14.584  0.00  0.00    +0.000 C 
ENDROOT
BRANCH   2   3
ATOM      3  C   UNL     1      35.835   4.152  14.006  0.00  0.00    +0.000 A 
ATOM      4  C   UNL     1      36.571   4.742  12.998  0.00  0.00    +0.000 A 
ATOM      5  C   UNL     1      36.111   6.007  12.810  0.00  0.00    +0.000 A 
ATOM      6  C   UNL     1      35.091   6.172  13.715  0.00  0.00    +0.000 A 
ATOM      7  O   UNL     1      34.953   5.082  14.394  0.00  0.00    +0.000 OA
ENDBRANCH   2   3
BRANCH   1  10
ATOM      8  C   UNL     1      37.265  -0.044  15.129  0.00  0.00    +0.000 C 
ATOM      9  O   UNL     1      38.045   0.334  14.228  0.00  0.00    +0.000 OA
ATOM     10  N   UNL     1      36.551   0.980  15.821  0.00  0.00    +0.000 NA
BRANCH   8  15
ATOM     11  C   UNL     1      36.481  -5.614  16.454  0.00  0.00    +0.000 C 
ATOM     12  C   UNL     1      36.704  -4.176  16.126  0.00  0.00    +0.000 A 
ATOM     13  C   UNL     1      37.762  -3.457  16.644  0.00  0.00    +0.000 A 
ATOM     14  C   UNL     1      37.943  -2.115  16.318  0.00  0.00    +0.000 A 
ATOM     15  C   UNL     1      37.081  -1.453  15.472  0.00  0.00    +0.000 A 
ATOM     16  C   UNL     1      36.025  -2.166  14.952  0.00  0.00    +0.000 A 
ATOM     17  C   UNL     1      35.837  -3.515  15.275  0.00  0.00    +0.000 A 
ATOM     18  C   UNL     1      34.700  -4.295  14.719  0.00  0.00    +0.000 C 
ENDBRANCH   8  15
ENDBRANCH   1  10
BRANCH   1  19
ATOM     19  C   UNL     1      37.789   3.158  16.048  0.00  0.00    +0.000 C 
ATOM     20  O   UNL     1      38.922   3.324  15.491  0.00  0.00    +0.000 OA
ATOM     21  N   UNL     1      37.639   3.802  17.287  0.00  0.00    +0.000 NA
BRANCH  21  22
ATOM     22  C   UNL     1      38.641   4.607  17.954  0.00  0.00    +0.000 C 
BRANCH  22  23
ATOM     23  C   UNL     1      38.479   6.029  17.458  0.00  0.00    +0.000 C 
BRANCH  23  24
ATOM     24  C   UNL     1      38.373   6.990  18.563  0.00  0.00    +0.000 A 
ATOM     25  C   UNL     1      37.411   7.957  18.534  0.00  0.00    +0.000 A 
ATOM     26  C   UNL     1      37.288   8.873  19.550  0.00  0.00    +0.000 A 
ATOM     27  C   UNL     1      38.143   8.812  20.605  0.00  0.00    +0.000 A 
ATOM     28  C   UNL     1      39.129   7.829  20.647  0.00  0.00    +0.000 A 
ATOM     29  C   UNL     1      39.238   6.921  19.621  0.00  0.00    +0.000 A 
ATOM     30  F   UNL     1      40.221   5.973  19.704  0.00  0.00    +0.000 F 
ENDBRANCH  23  24
ENDBRANCH  22  23
ENDBRANCH  21  22
ENDBRANCH   1  19
TORSDOF 7
ENDMDL
MODEL 8
REMARK VINA RESULT:      -7.5      2.833      8.427
REMARK  Name = 
REMARK  7 active torsions:
REMARK  status: ('A' for Active; 'I' for Inactive)
REMARK    1  A    between atoms: C_5  and  C_6
REMARK    2  A    between atoms: N_8  and  C_9
REMARK    3  A    between atoms: C_9  and  C_16
REMARK    4  A    between atoms: C_10  and  C_11
REMARK    5  A    between atoms: N_18  and  C_19
REMARK    6  A    between atoms: C_19  and  C_20
REMARK    7  A    between atoms: C_20  and  C_21
REMARK                            x       y       z     vdW  Elec       q    Type
REMARK                         _______ _______ _______ _____ _____    ______ ____
ROOT
ATOM      1  C   UNL     1      37.015   3.118  14.407  0.00  0.00    +0.000 C 
ATOM      2  C   UNL     1      36.083   3.770  13.794  0.00  0.00    +0.000 C 
ENDROOT
BRANCH   2   3
ATOM      3  C   UNL     1      35.968   5.184  13.549  0.00  0.00    +0.000 A 
ATOM      4  C   UNL     1      36.252   5.930  12.423  0.00  0.00    +0.000 A 
ATOM      5  C   UNL     1      35.977   7.234  12.687  0.00  0.00    +0.000 A 
ATOM      6  C   UNL     1      35.524   7.265  13.983  0.00  0.00    +0.000 A 
ATOM      7  O   UNL     1      35.529   6.064  14.458  0.00  0.00    +0.000 OA
ENDBRANCH   2   3
BRANCH   1  10
ATOM      8  C   UNL     1      36.149   1.103  15.595  0.00  0.00    +0.000 C 
ATOM      9  O   UNL     1      35.763   1.900  16.478  0.00  0.00    +0.000 OA
ATOM     10  N   UNL     1      36.816   1.677  14.471  0.00  0.00    +0.000 NA
BRANCH   8  15
ATOM     11  C   UNL     1      35.345  -4.611  15.913  0.00  0.00    +0.000 C 
ATOM     12  C   UNL     1      35.537  -3.133  15.850  0.00  0.00    +0.000 A 
ATOM     13  C   UNL     1      34.882  -2.267  16.703  0.00  0.00    +0.000 A 
ATOM     14  C   UNL     1      35.083  -0.891  16.619  0.00  0.00    +0.000 A 
ATOM     15  C   UNL     1      35.937  -0.339  15.690  0.00  0.00    +0.000 A 
ATOM     16  C   UNL     1      36.593  -1.199  14.838  0.00  0.00    +0.000 A 
ATOM     17  C   UNL     1      36.396  -2.582  14.917  0.00  0.00    +0.000 A 
ATOM     18  C   UNL     1      37.100  -3.520  14.002  0.00  0.00    +0.000 C 
ENDBRANCH   8  15
ENDBRANCH   1  10
BRANCH   1  19
ATOM     19  C   UNL     1      38.151   3.740  15.007  0.00  0.00    +0.000 C 
ATOM     20  O   UNL     1      39.316   3.672  14.495  0.00  0.00    +0.000 OA
ATOM     21  N   UNL     1      38.074   4.469  16.204  0.00  0.00    +0.000 NA
BRANCH  21  22
ATOM     22  C   UNL     1      39.179   5.124  16.874  0.00  0.00    +0.000 C 
BRANCH  22  23
ATOM     23  C   UNL     1      38.921   5.030  18.364  0.00  0.00    +0.000 C 
BRANCH  23  24
ATOM     24  C   UNL     1      39.470   6.181  19.092  0.00  0.00    +0.000 A 
ATOM     25  C   UNL     1      40.734   6.122  19.605  0.00  0.00    +0.000 A 
ATOM     26  C   UNL     1      41.274   7.179  20.294  0.00  0.00    +0.000 A 
ATOM     27  C   UNL     1      40.535   8.306  20.467  0.00  0.00    +0.000 A 
ATOM     28  C   UNL     1      39.244   8.379  19.948  0.00  0.00    +0.000 A 
ATOM     29  C   UNL     1      38.719   7.311  19.261  0.00  0.00    +0.000 A 
ATOM     30  F   UNL     1      37.447   7.427  18.769  0.00  0.00    +0.000 F 
ENDBRANCH  23  24
ENDBRANCH  22  23
ENDBRANCH  21  22
ENDBRANCH   1  19
TORSDOF 7
ENDMDL
MODEL 9
REMARK VINA RESULT:      -7.5      2.069      7.365
REMARK  Name = 
REMARK  7 active torsions:
REMARK  status: ('A' for Active; 'I' for Inactive)
REMARK    1  A    between atoms: C_5  and  C_6
REMARK    2  A    between atoms: N_8  and  C_9
REMARK    3  A    between atoms: C_9  and  C_16
REMARK    4  A    between atoms: C_10  and  C_11
REMARK    5  A    between atoms: N_18  and  C_19
REMARK    6  A    between atoms: C_19  and  C_20
REMARK    7  A    between atoms: C_20  and  C_21
REMARK                            x       y       z     vdW  Elec       q    Type
REMARK                         _______ _______ _______ _____ _____    ______ ____
ROOT
ATOM      1  C   UNL     1      37.984   2.725  15.006  0.00  0.00    +0.000 C 
ATOM      2  C   UNL     1      38.813   3.655  15.347  0.00  0.00    +0.000 C 
ENDROOT
BRANCH   2   3
ATOM      3  C   UNL     1      38.738   4.588  16.441  0.00  0.00    +0.000 A 
ATOM      4  C   UNL     1      38.492   5.946  16.452  0.00  0.00    +0.000 A 
ATOM      5  C   UNL     1      38.525   6.381  17.739  0.00  0.00    +0.000 A 
ATOM      6  C   UNL     1      38.792   5.271  18.502  0.00  0.00    +0.000 A 
ATOM      7  O   UNL     1      38.911   4.247  17.724  0.00  0.00    +0.000 OA
ENDBRANCH   2   3
BRANCH   1  10
ATOM      8  C   UNL     1      39.112   0.740  14.001  0.00  0.00    +0.000 C 
ATOM      9  O   UNL     1      39.378   0.408  15.176  0.00  0.00    +0.000 OA
ATOM     10  N   UNL     1      38.376   1.952  13.835  0.00  0.00    +0.000 NA
BRANCH   8  15
ATOM     11  C   UNL     1      40.763  -2.448   9.472  0.00  0.00    +0.000 C 
ATOM     12  C   UNL     1      40.328  -1.608  10.626  0.00  0.00    +0.000 A 
ATOM     13  C   UNL     1      39.712  -0.384  10.456  0.00  0.00    +0.000 A 
ATOM     14  C   UNL     1      39.318   0.377  11.554  0.00  0.00    +0.000 A 
ATOM     15  C   UNL     1      39.522  -0.055  12.845  0.00  0.00    +0.000 A 
ATOM     16  C   UNL     1      40.134  -1.275  13.020  0.00  0.00    +0.000 A 
ATOM     17  C   UNL     1      40.533  -2.045  11.921  0.00  0.00    +0.000 A 
ATOM     18  C   UNL     1      41.196  -3.366  12.098  0.00  0.00    +0.000 C 
ENDBRANCH   8  15
ENDBRANCH   1  10
BRANCH   1  19
ATOM     19  C   UNL     1      36.758   2.469  15.691  0.00  0.00    +0.000 C 
ATOM     20  O   UNL     1      35.670   3.056  15.386  0.00  0.00    +0.000 OA
ATOM     21  N   UNL     1      36.658   1.555  16.752  0.00  0.00    +0.000 NA
BRANCH  21  22
ATOM     22  C   UNL     1      35.456   1.244  17.498  0.00  0.00    +0.000 C 
BRANCH  22  23
ATOM     23  C   UNL     1      35.179  -0.233  17.311  0.00  0.00    +0.000 C 
BRANCH  23  24
ATOM     24  C   UNL     1      36.305  -1.066  17.754  0.00  0.00    +0.000 A 
ATOM     25  C   UNL     1      36.560  -1.211  19.087  0.00  0.00    +0.000 A 
ATOM     26  C   UNL     1      37.607  -1.980  19.533  0.00  0.00    +0.000 A 
ATOM     27  C   UNL     1      38.403  -2.607  18.628  0.00  0.00    +0.000 A 
ATOM     28  C   UNL     1      38.153  -2.467  17.265  0.00  0.00    +0.000 A 
ATOM     29  C   UNL     1      37.101  -1.693  16.836  0.00  0.00    +0.000 A 
ATOM     30  F   UNL     1      36.892  -1.584  15.488  0.00  0.00    +0.000 F 
ENDBRANCH  23  24
ENDBRANCH  22  23
ENDBRANCH  21  22
ENDBRANCH   1  19
TORSDOF 7
ENDMDL
MODEL 10
REMARK VINA RESULT:      -7.4      4.079      7.437
REMARK  Name = 
REMARK  7 active torsions:
REMARK  status: ('A' for Active; 'I' for Inactive)
REMARK    1  A    between atoms: C_5  and  C_6
REMARK    2  A    between atoms: N_8  and  C_9
REMARK    3  A    between atoms: C_9  and  C_16
REMARK    4  A    between atoms: C_10  and  C_11
REMARK    5  A    between atoms: N_18  and  C_19
REMARK    6  A    between atoms: C_19  and  C_20
REMARK    7  A    between atoms: C_20  and  C_21
REMARK                            x       y       z     vdW  Elec       q    Type
REMARK                         _______ _______ _______ _____ _____    ______ ____
ROOT
ATOM      1  C   UNL     1      36.227   3.463  15.137  0.00  0.00    +0.000 C 
ATOM      2  C   UNL     1      35.450   2.431  15.122  0.00  0.00    +0.000 C 
ENDROOT
BRANCH   2   3
ATOM      3  C   UNL     1      35.548   1.205  15.871  0.00  0.00    +0.000 A 
ATOM      4  C   UNL     1      34.854   0.769  16.982  0.00  0.00    +0.000 A 
ATOM      5  C   UNL     1      35.309  -0.465  17.321  0.00  0.00    +0.000 A 
ATOM      6  C   UNL     1      36.284  -0.768  16.402  0.00  0.00    +0.000 A 
ATOM      7  O   UNL     1      36.401   0.217  15.574  0.00  0.00    +0.000 OA
ENDBRANCH   2   3
BRANCH   1  10
ATOM      8  C   UNL     1      36.343   4.595  12.917  0.00  0.00    +0.000 C 
ATOM      9  O   UNL     1      37.125   3.676  12.590  0.00  0.00    +0.000 OA
ATOM     10  N   UNL     1      35.827   4.545  14.248  0.00  0.00    +0.000 NA
BRANCH   8  15
ATOM     11  C   UNL     1      34.813   8.876   9.349  0.00  0.00    +0.000 C 
ATOM     12  C   UNL     1      35.216   7.757  10.251  0.00  0.00    +0.000 A 
ATOM     13  C   UNL     1      35.745   6.576   9.770  0.00  0.00    +0.000 A 
ATOM     14  C   UNL     1      36.111   5.551  10.638  0.00  0.00    +0.000 A 
ATOM     15  C   UNL     1      35.963   5.669  12.002  0.00  0.00    +0.000 A 
ATOM     16  C   UNL     1      35.437   6.845  12.486  0.00  0.00    +0.000 A 
ATOM     17  C   UNL     1      35.067   7.880  11.620  0.00  0.00    +0.000 A 
ATOM     18  C   UNL     1      34.498   9.155  12.132  0.00  0.00    +0.000 C 
ENDBRANCH   8  15
ENDBRANCH   1  10
BRANCH   1  19
ATOM     19  C   UNL     1      37.406   3.554  15.936  0.00  0.00    +0.000 C 
ATOM     20  O   UNL     1      38.481   2.937  15.640  0.00  0.00    +0.000 OA
ATOM     21  N   UNL     1      37.472   4.324  17.108  0.00  0.00    +0.000 NA
BRANCH  21  22
ATOM     22  C   UNL     1      38.627   4.463  17.972  0.00  0.00    +0.000 C 
BRANCH  22  23
ATOM     23  C   UNL     1      39.243   5.816  17.686  0.00  0.00    +0.000 C 
BRANCH  23  24
ATOM     24  C   UNL     1      38.806   6.836  18.649  0.00  0.00    +0.000 A 
ATOM     25  C   UNL     1      37.779   7.676  18.330  0.00  0.00    +0.000 A 
ATOM     26  C   UNL     1      37.350   8.642  19.207  0.00  0.00    +0.000 A 
ATOM     27  C   UNL     1      37.961   8.761  20.415  0.00  0.00    +0.000 A 
ATOM     28  C   UNL     1      39.010   7.909  20.752  0.00  0.00    +0.000 A 
ATOM     29  C   UNL     1      39.427   6.948  19.862  0.00  0.00    +0.000 A 
ATOM     30  F   UNL     1      40.461   6.133  20.235  0.00  0.00    +0.000 F 
ENDBRANCH  23  24
ENDBRANCH  22  23
ENDBRANCH  21  22
ENDBRANCH   1  19
TORSDOF 7
ENDMDL
