MODEL 1
REMARK VINA RESULT:      -5.5      0.000      0.000
REMARK  Name = 
REMARK  5 active torsions:
REMARK  status: ('A' for Active; 'I' for Inactive)
REMARK    1  A    between atoms: C_2  and  C_3
REMARK    2  A    between atoms: N_9  and  C_10
REMARK    3  A    between atoms: C_10  and  C_11
REMARK    4  A    between atoms: C_11  and  O_12
REMARK    5  A    between atoms: O_12  and  C_13
REMARK                            x       y       z     vdW  Elec       q    Type
REMARK                         _______ _______ _______ _____ _____    ______ ____
ROOT
ATOM      1  C   UNL     1      27.041  24.248  26.139  0.00  0.00    +0.000 C 
ATOM      2  C   UNL     1      26.116  24.919  25.172  0.00  0.00    +0.000 C 
ATOM      3  N   UNL     1      25.273  24.008  24.446  0.00  0.00    +0.000 NA
ATOM      4  C   UNL     1      25.851  23.723  23.157  0.00  0.00    +0.000 C 
ATOM      5  O   UNL     1      25.476  22.778  22.409  0.00  0.00    +0.000 OA
ATOM      6  N   UNL     1      26.864  24.692  22.959  0.00  0.00    +0.000 N 
ATOM      7  C   UNL     1      26.930  25.569  24.088  0.00  0.00    +0.000 C 
ATOM      8  O   UNL     1      27.548  26.648  24.126  0.00  0.00    +0.000 OA
ENDROOT
BRANCH   2   9
ATOM      9  C   UNL     1      25.356  26.010  25.873  0.00  0.00    +0.000 C 
ATOM     10  C   UNL     1      24.245  25.651  26.821  0.00  0.00    +0.000 C 
ATOM     11  C   UNL     1      23.865  26.182  25.452  0.00  0.00    +0.000 C 
ENDBRANCH   2   9
BRANCH   6  12
ATOM     12  C   UNL     1      27.714  24.789  21.789  0.00  0.00    +0.000 C 
BRANCH  12  13
ATOM     13  C   UNL     1      28.787  23.743  21.800  0.00  0.00    +0.000 C 
BRANCH  13  14
ATOM     14  O   UNL     1      29.936  24.249  22.426  0.00  0.00    +0.000 OA
BRANCH  14  15
ATOM     15  C   UNL     1      30.181  23.901  23.749  0.00  0.00    +0.000 A 
ATOM     16  C   UNL     1      30.019  22.638  24.252  0.00  0.00    +0.000 A 
ATOM     17  C   UNL     1      30.291  22.400  25.581  0.00  0.00    +0.000 A 
ATOM     18  C   UNL     1      30.723  23.405  26.419  0.00  0.00    +0.000 A 
ATOM     19  C   UNL     1      30.883  24.680  25.898  0.00  0.00    +0.000 A 
ATOM     20  C   UNL     1      30.618  24.938  24.575  0.00  0.00    +0.000 A 
ATOM     21  F   UNL     1      30.782  26.205  24.077  0.00  0.00    +0.000 F 
ENDBRANCH  14  15
ENDBRANCH  13  14
ENDBRANCH  12  13
ENDBRANCH   6  12
TORSDOF 5
ENDMDL
MODEL 2
REMARK VINA RESULT:      -5.4     12.593     15.640
REMARK  Name = 
REMARK  5 active torsions:
REMARK  status: ('A' for Active; 'I' for Inactive)
REMARK    1  A    between atoms: C_2  and  C_3
REMARK    2  A    between atoms: N_9  and  C_10
REMARK    3  A    between atoms: C_10  and  C_11
REMARK    4  A    between atoms: C_11  and  O_12
REMARK    5  A    between atoms: O_12  and  C_13
REMARK                            x       y       z     vdW  Elec       q    Type
REMARK                         _______ _______ _______ _____ _____    ______ ____
ROOT
ATOM      1  C   UNL     1      33.029  19.824   7.886  0.00  0.00    +0.000 C 
ATOM      2  C   UNL     1      33.837  20.345   9.034  0.00  0.00    +0.000 C 
ATOM      3  N   UNL     1      33.600  19.655  10.273  0.00  0.00    +0.000 NA
ATOM      4  C   UNL     1      32.645  20.386  11.068  0.00  0.00    +0.000 C 
ATOM      5  O   UNL     1      32.057  19.910  12.079  0.00  0.00    +0.000 OA
ATOM      6  N   UNL     1      32.542  21.668  10.477  0.00  0.00    +0.000 N 
ATOM      7  C   UNL     1      33.405  21.753   9.338  0.00  0.00    +0.000 C 
ATOM      8  O   UNL     1      33.713  22.802   8.744  0.00  0.00    +0.000 OA
ENDROOT
BRANCH   2   9
ATOM      9  C   UNL     1      35.288  20.399   8.646  0.00  0.00    +0.000 C 
ATOM     10  C   UNL     1      35.847  19.361   7.713  0.00  0.00    +0.000 C 
ATOM     11  C   UNL     1      36.183  19.242   9.187  0.00  0.00    +0.000 C 
ENDBRANCH   2   9
BRANCH   6  12
ATOM     12  C   UNL     1      31.689  22.742  10.947  0.00  0.00    +0.000 C 
BRANCH  12  13
ATOM     13  C   UNL     1      30.339  22.697  10.299  0.00  0.00    +0.000 C 
BRANCH  13  14
ATOM     14  O   UNL     1      29.444  21.990  11.117  0.00  0.00    +0.000 OA
BRANCH  14  15
ATOM     15  C   UNL     1      28.707  22.694  12.060  0.00  0.00    +0.000 A 
ATOM     16  C   UNL     1      29.255  23.344  13.133  0.00  0.00    +0.000 A 
ATOM     17  C   UNL     1      28.432  24.015  14.010  0.00  0.00    +0.000 A 
ATOM     18  C   UNL     1      27.065  24.048  13.832  0.00  0.00    +0.000 A 
ATOM     19  C   UNL     1      26.522  23.387  12.741  0.00  0.00    +0.000 A 
ATOM     20  C   UNL     1      27.325  22.713  11.855  0.00  0.00    +0.000 A 
ATOM     21  F   UNL     1      26.771  22.064  10.782  0.00  0.00    +0.000 F 
ENDBRANCH  14  15
ENDBRANCH  13  14
ENDBRANCH  12  13
ENDBRANCH   6  12
TORSDOF 5
ENDMDL
MODEL 3
REMARK VINA RESULT:      -5.4     13.000     14.070
REMARK  Name = 
REMARK  5 active torsions:
REMARK  status: ('A' for Active; 'I' for Inactive)
REMARK    1  A    between atoms: C_2  and  C_3
REMARK    2  A    between atoms: N_9  and  C_10
REMARK    3  A    between atoms: C_10  and  C_11
REMARK    4  A    between atoms: C_11  and  O_12
REMARK    5  A    between atoms: O_12  and  C_13
REMARK                            x       y       z     vdW  Elec       q    Type
REMARK                         _______ _______ _______ _____ _____    ______ ____
ROOT
ATOM      1  C   UNL     1      29.876  20.663  10.266  0.00  0.00    +0.000 C 
ATOM      2  C   UNL     1      30.367  21.618  11.310  0.00  0.00    +0.000 C 
ATOM      3  N   UNL     1      31.234  22.644  10.797  0.00  0.00    +0.000 NA
ATOM      4  C   UNL     1      32.612  22.266  10.993  0.00  0.00    +0.000 C 
ATOM      5  O   UNL     1      33.586  22.838  10.431  0.00  0.00    +0.000 OA
ATOM      6  N   UNL     1      32.595  21.182  11.902  0.00  0.00    +0.000 N 
ATOM      7  C   UNL     1      31.248  20.875  12.275  0.00  0.00    +0.000 C 
ATOM      8  O   UNL     1      30.912  20.137  13.218  0.00  0.00    +0.000 OA
ENDROOT
BRANCH   2   9
ATOM      9  C   UNL     1      29.201  22.153  12.092  0.00  0.00    +0.000 C 
ATOM     10  C   UNL     1      27.910  22.464  11.385  0.00  0.00    +0.000 C 
ATOM     11  C   UNL     1      28.795  23.628  11.788  0.00  0.00    +0.000 C 
ENDBRANCH   2   9
BRANCH   6  12
ATOM     12  C   UNL     1      33.766  20.478  12.389  0.00  0.00    +0.000 C 
BRANCH  12  13
ATOM     13  C   UNL     1      34.576  19.913  11.262  0.00  0.00    +0.000 C 
BRANCH  13  14
ATOM     14  O   UNL     1      35.563  19.055  11.771  0.00  0.00    +0.000 OA
BRANCH  14  15
ATOM     15  C   UNL     1      36.428  19.540  12.743  0.00  0.00    +0.000 A 
ATOM     16  C   UNL     1      37.273  20.600  12.557  0.00  0.00    +0.000 A 
ATOM     17  C   UNL     1      38.092  21.001  13.590  0.00  0.00    +0.000 A 
ATOM     18  C   UNL     1      38.081  20.358  14.808  0.00  0.00    +0.000 A 
ATOM     19  C   UNL     1      37.221  19.285  14.985  0.00  0.00    +0.000 A 
ATOM     20  C   UNL     1      36.396  18.870  13.968  0.00  0.00    +0.000 A 
ATOM     21  F   UNL     1      35.552  17.807  14.160  0.00  0.00    +0.000 F 
ENDBRANCH  14  15
ENDBRANCH  13  14
ENDBRANCH  12  13
ENDBRANCH   6  12
TORSDOF 5
ENDMDL
MODEL 4
REMARK VINA RESULT:      -5.4      2.102      4.093
REMARK  Name = 
REMARK  5 active torsions:
REMARK  status: ('A' for Active; 'I' for Inactive)
REMARK    1  A    between atoms: C_2  and  C_3
REMARK    2  A    between atoms: N_9  and  C_10
REMARK    3  A    between atoms: C_10  and  C_11
REMARK    4  A    between atoms: C_11  and  O_12
REMARK    5  A    between atoms: O_12  and  C_13
REMARK                            x       y       z     vdW  Elec       q    Type
REMARK                         _______ _______ _______ _____ _____    ______ ____
ROOT
ATOM      1  C   UNL     1      29.561  25.484  23.345  0.00  0.00    +0.000 C 
ATOM      2  C   UNL     1      28.240  25.669  22.665  0.00  0.00    +0.000 C 
ATOM      3  N   UNL     1      27.408  26.672  23.274  0.00  0.00    +0.000 NA
ATOM      4  C   UNL     1      26.466  26.051  24.171  0.00  0.00    +0.000 C 
ATOM      5  O   UNL     1      25.784  26.683  25.024  0.00  0.00    +0.000 OA
ATOM      6  N   UNL     1      26.496  24.667  23.874  0.00  0.00    +0.000 N 
ATOM      7  C   UNL     1      27.430  24.412  22.821  0.00  0.00    +0.000 C 
ATOM      8  O   UNL     1      27.523  23.348  22.183  0.00  0.00    +0.000 OA
ENDROOT
BRANCH   2   9
ATOM      9  C   UNL     1      28.455  25.880  21.194  0.00  0.00    +0.000 C 
ATOM     10  C   UNL     1      29.544  26.807  20.727  0.00  0.00    +0.000 C 
ATOM     11  C   UNL     1      28.112  27.302  20.651  0.00  0.00    +0.000 C 
ENDBRANCH   2   9
BRANCH   6  12
ATOM     12  C   UNL     1      25.702  23.651  24.536  0.00  0.00    +0.000 C 
BRANCH  12  13
ATOM     13  C   UNL     1      26.286  23.275  25.864  0.00  0.00    +0.000 C 
BRANCH  13  14
ATOM     14  O   UNL     1      27.309  22.332  25.682  0.00  0.00    +0.000 OA
BRANCH  14  15
ATOM     15  C   UNL     1      28.479  22.470  26.417  0.00  0.00    +0.000 A 
ATOM     16  C   UNL     1      28.517  22.602  27.779  0.00  0.00    +0.000 A 
ATOM     17  C   UNL     1      29.733  22.732  28.412  0.00  0.00    +0.000 A 
ATOM     18  C   UNL     1      30.916  22.733  27.705  0.00  0.00    +0.000 A 
ATOM     19  C   UNL     1      30.865  22.598  26.326  0.00  0.00    +0.000 A 
ATOM     20  C   UNL     1      29.663  22.466  25.676  0.00  0.00    +0.000 A 
ATOM     21  F   UNL     1      29.630  22.335  24.312  0.00  0.00    +0.000 F 
ENDBRANCH  14  15
ENDBRANCH  13  14
ENDBRANCH  12  13
ENDBRANCH   6  12
TORSDOF 5
ENDMDL
MODEL 5
REMARK VINA RESULT:      -5.3     21.669     23.465
REMARK  Name = 
REMARK  5 active torsions:
REMARK  status: ('A' for Active; 'I' for Inactive)
REMARK    1  A    between atoms: C_2  and  C_3
REMARK    2  A    between atoms: N_9  and  C_10
REMARK    3  A    between atoms: C_10  and  C_11
REMARK    4  A    between atoms: C_11  and  O_12
REMARK    5  A    between atoms: O_12  and  C_13
REMARK                            x       y       z     vdW  Elec       q    Type
REMARK                         _______ _______ _______ _____ _____    ______ ____
ROOT
ATOM      1  C   UNL     1      17.673   9.584  42.498  0.00  0.00    +0.000 C 
ATOM      2  C   UNL     1      17.701   8.703  41.287  0.00  0.00    +0.000 C 
ATOM      3  N   UNL     1      19.009   8.202  40.962  0.00  0.00    +0.000 NA
ATOM      4  C   UNL     1      19.613   9.027  39.946  0.00  0.00    +0.000 C 
ATOM      5  O   UNL     1      20.837   8.987  39.641  0.00  0.00    +0.000 OA
ATOM      6  N   UNL     1      18.570   9.825  39.418  0.00  0.00    +0.000 N 
ATOM      7  C   UNL     1      17.338   9.521  40.079  0.00  0.00    +0.000 C 
ATOM      8  O   UNL     1      16.209   9.878  39.698  0.00  0.00    +0.000 OA
ENDROOT
BRANCH   2   9
ATOM      9  C   UNL     1      16.663   7.625  41.424  0.00  0.00    +0.000 C 
ATOM     10  C   UNL     1      16.784   6.613  42.530  0.00  0.00    +0.000 C 
ATOM     11  C   UNL     1      17.144   6.172  41.124  0.00  0.00    +0.000 C 
ENDBRANCH   2   9
BRANCH   6  12
ATOM     12  C   UNL     1      18.719  10.810  38.365  0.00  0.00    +0.000 C 
BRANCH  12  13
ATOM     13  C   UNL     1      18.830  10.163  37.019  0.00  0.00    +0.000 C 
BRANCH  13  14
ATOM     14  O   UNL     1      17.567   9.720  36.599  0.00  0.00    +0.000 OA
BRANCH  14  15
ATOM     15  C   UNL     1      16.980  10.331  35.499  0.00  0.00    +0.000 A 
ATOM     16  C   UNL     1      17.323  10.066  34.200  0.00  0.00    +0.000 A 
ATOM     17  C   UNL     1      16.677  10.729  33.181  0.00  0.00    +0.000 A 
ATOM     18  C   UNL     1      15.689  11.656  33.437  0.00  0.00    +0.000 A 
ATOM     19  C   UNL     1      15.349  11.916  34.756  0.00  0.00    +0.000 A 
ATOM     20  C   UNL     1      15.982  11.265  35.787  0.00  0.00    +0.000 A 
ATOM     21  F   UNL     1      15.633  11.535  37.085  0.00  0.00    +0.000 F 
ENDBRANCH  14  15
ENDBRANCH  13  14
ENDBRANCH  12  13
ENDBRANCH   6  12
TORSDOF 5
ENDMDL
MODEL 6
REMARK VINA RESULT:      -5.3     12.817     14.934
REMARK  Name = 
REMARK  5 active torsions:
REMARK  status: ('A' for Active; 'I' for Inactive)
REMARK    1  A    between atoms: C_2  and  C_3
REMARK    2  A    between atoms: N_9  and  C_10
REMARK    3  A    between atoms: C_10  and  C_11
REMARK    4  A    between atoms: C_11  and  O_12
REMARK    5  A    between atoms: O_12  and  C_13
REMARK                            x       y       z     vdW  Elec       q    Type
REMARK                         _______ _______ _______ _____ _____    ______ ____
ROOT
ATOM      1  C   UNL     1      30.961  20.843  12.519  0.00  0.00    +0.000 C 
ATOM      2  C   UNL     1      30.650  21.810  11.419  0.00  0.00    +0.000 C 
ATOM      3  N   UNL     1      29.744  21.293  10.429  0.00  0.00    +0.000 NA
ATOM      4  C   UNL     1      30.484  20.786   9.301  0.00  0.00    +0.000 C 
ATOM      5  O   UNL     1      29.985  20.055   8.401  0.00  0.00    +0.000 OA
ATOM      6  N   UNL     1      31.804  21.277   9.445  0.00  0.00    +0.000 N 
ATOM      7  C   UNL     1      31.903  22.073  10.630  0.00  0.00    +0.000 C 
ATOM      8  O   UNL     1      32.854  22.823  10.917  0.00  0.00    +0.000 OA
ENDROOT
BRANCH   2   9
ATOM      9  C   UNL     1      30.211  23.121  12.007  0.00  0.00    +0.000 C 
ATOM     10  C   UNL     1      29.402  23.133  13.275  0.00  0.00    +0.000 C 
ATOM     11  C   UNL     1      28.679  23.407  11.971  0.00  0.00    +0.000 C 
ENDBRANCH   2   9
BRANCH   6  12
ATOM     12  C   UNL     1      32.900  21.016   8.533  0.00  0.00    +0.000 C 
BRANCH  12  13
ATOM     13  C   UNL     1      33.510  19.670   8.777  0.00  0.00    +0.000 C 
BRANCH  13  14
ATOM     14  O   UNL     1      33.795  19.519  10.143  0.00  0.00    +0.000 OA
BRANCH  14  15
ATOM     15  C   UNL     1      35.109  19.667  10.569  0.00  0.00    +0.000 A 
ATOM     16  C   UNL     1      36.202  19.406   9.787  0.00  0.00    +0.000 A 
ATOM     17  C   UNL     1      37.464  19.587  10.308  0.00  0.00    +0.000 A 
ATOM     18  C   UNL     1      37.654  20.026  11.600  0.00  0.00    +0.000 A 
ATOM     19  C   UNL     1      36.539  20.287  12.383  0.00  0.00    +0.000 A 
ATOM     20  C   UNL     1      35.272  20.114  11.882  0.00  0.00    +0.000 A 
ATOM     21  F   UNL     1      34.181  20.377  12.669  0.00  0.00    +0.000 F 
ENDBRANCH  14  15
ENDBRANCH  13  14
ENDBRANCH  12  13
ENDBRANCH   6  12
TORSDOF 5
ENDMDL
MODEL 7
REMARK VINA RESULT:      -5.1      3.442      4.703
REMARK  Name = 
REMARK  5 active torsions:
REMARK  status: ('A' for Active; 'I' for Inactive)
REMARK    1  A    between atoms: C_2  and  C_3
REMARK    2  A    between atoms: N_9  and  C_10
REMARK    3  A    between atoms: C_10  and  C_11
REMARK    4  A    between atoms: C_11  and  O_12
REMARK    5  A    between atoms: O_12  and  C_13
REMARK                            x       y       z     vdW  Elec       q    Type
REMARK                         _______ _______ _______ _____ _____    ______ ____
ROOT
ATOM      1  C   UNL     1      26.099  26.643  27.587  0.00  0.00    +0.000 C 
ATOM      2  C   UNL     1      25.099  25.628  28.047  0.00  0.00    +0.000 C 
ATOM      3  N   UNL     1      24.924  25.588  29.473  0.00  0.00    +0.000 NA
ATOM      4  C   UNL     1      25.730  24.536  30.039  0.00  0.00    +0.000 C 
ATOM      5  O   UNL     1      25.976  24.421  31.271  0.00  0.00    +0.000 OA
ATOM      6  N   UNL     1      26.142  23.730  28.951  0.00  0.00    +0.000 N 
ATOM      7  C   UNL     1      25.614  24.253  27.727  0.00  0.00    +0.000 C 
ATOM      8  O   UNL     1      25.603  23.657  26.635  0.00  0.00    +0.000 OA
ENDROOT
BRANCH   2   9
ATOM      9  C   UNL     1      23.813  25.808  27.290  0.00  0.00    +0.000 C 
ATOM     10  C   UNL     1      23.443  27.169  26.767  0.00  0.00    +0.000 C 
ATOM     11  C   UNL     1      22.717  26.663  27.999  0.00  0.00    +0.000 C 
ENDBRANCH   2   9
BRANCH   6  12
ATOM     12  C   UNL     1      26.975  22.548  29.050  0.00  0.00    +0.000 C 
BRANCH  12  13
ATOM     13  C   UNL     1      28.334  22.783  28.465  0.00  0.00    +0.000 C 
BRANCH  13  14
ATOM     14  O   UNL     1      28.522  21.948  27.352  0.00  0.00    +0.000 OA
BRANCH  14  15
ATOM     15  C   UNL     1      29.170  22.462  26.237  0.00  0.00    +0.000 A 
ATOM     16  C   UNL     1      28.525  22.982  25.147  0.00  0.00    +0.000 A 
ATOM     17  C   UNL     1      29.265  23.468  24.092  0.00  0.00    +0.000 A 
ATOM     18  C   UNL     1      30.643  23.443  24.106  0.00  0.00    +0.000 A 
ATOM     19  C   UNL     1      31.285  22.914  25.215  0.00  0.00    +0.000 A 
ATOM     20  C   UNL     1      30.566  22.425  26.278  0.00  0.00    +0.000 A 
ATOM     21  F   UNL     1      31.217  21.906  27.367  0.00  0.00    +0.000 F 
ENDBRANCH  14  15
ENDBRANCH  13  14
ENDBRANCH  12  13
ENDBRANCH   6  12
TORSDOF 5
ENDMDL
MODEL 8
REMARK VINA RESULT:      -5.1      2.797      5.837
REMARK  Name = 
REMARK  5 active torsions:
REMARK  status: ('A' for Active; 'I' for Inactive)
REMARK    1  A    between atoms: C_2  and  C_3
REMARK    2  A    between atoms: N_9  and  C_10
REMARK    3  A    between atoms: C_10  and  C_11
REMARK    4  A    between atoms: C_11  and  O_12
REMARK    5  A    between atoms: O_12  and  C_13
REMARK                            x       y       z     vdW  Elec       q    Type
REMARK                         _______ _______ _______ _____ _____    ______ ____
ROOT
ATOM      1  C   UNL     1      30.503  25.628  24.657  0.00  0.00    +0.000 C 
ATOM      2  C   UNL     1      30.436  24.145  24.471  0.00  0.00    +0.000 C 
ATOM      3  N   UNL     1      30.116  23.741  23.128  0.00  0.00    +0.000 NA
ATOM      4  C   UNL     1      28.704  23.468  23.019  0.00  0.00    +0.000 C 
ATOM      5  O   UNL     1      28.093  23.339  21.923  0.00  0.00    +0.000 OA
ATOM      6  N   UNL     1      28.217  23.387  24.346  0.00  0.00    +0.000 N 
ATOM      7  C   UNL     1      29.286  23.603  25.274  0.00  0.00    +0.000 C 
ATOM      8  O   UNL     1      29.235  23.375  26.496  0.00  0.00    +0.000 OA
ENDROOT
BRANCH   2   9
ATOM      9  C   UNL     1      31.689  23.511  25.005  0.00  0.00    +0.000 C 
ATOM     10  C   UNL     1      32.513  24.241  26.030  0.00  0.00    +0.000 C 
ATOM     11  C   UNL     1      33.028  24.203  24.604  0.00  0.00    +0.000 C 
ENDBRANCH   2   9
BRANCH   6  12
ATOM     12  C   UNL     1      26.841  23.126  24.720  0.00  0.00    +0.000 C 
BRANCH  12  13
ATOM     13  C   UNL     1      26.214  24.319  25.376  0.00  0.00    +0.000 C 
BRANCH  13  14
ATOM     14  O   UNL     1      25.253  23.897  26.307  0.00  0.00    +0.000 OA
BRANCH  14  15
ATOM     15  C   UNL     1      25.190  24.543  27.535  0.00  0.00    +0.000 A 
ATOM     16  C   UNL     1      24.474  25.687  27.764  0.00  0.00    +0.000 A 
ATOM     17  C   UNL     1      24.478  26.246  29.023  0.00  0.00    +0.000 A 
ATOM     18  C   UNL     1      25.187  25.680  30.060  0.00  0.00    +0.000 A 
ATOM     19  C   UNL     1      25.908  24.521  29.817  0.00  0.00    +0.000 A 
ATOM     20  C   UNL     1      25.916  23.947  28.569  0.00  0.00    +0.000 A 
ATOM     21  F   UNL     1      26.634  22.801  28.345  0.00  0.00    +0.000 F 
ENDBRANCH  14  15
ENDBRANCH  13  14
ENDBRANCH  12  13
ENDBRANCH   6  12
TORSDOF 5
ENDMDL
MODEL 9
REMARK VINA RESULT:      -5.1      2.813      4.883
REMARK  Name = 
REMARK  5 active torsions:
REMARK  status: ('A' for Active; 'I' for Inactive)
REMARK    1  A    between atoms: C_2  and  C_3
REMARK    2  A    between atoms: N_9  and  C_10
REMARK    3  A    between atoms: C_10  and  C_11
REMARK    4  A    between atoms: C_11  and  O_12
REMARK    5  A    between atoms: O_12  and  C_13
REMARK                            x       y       z     vdW  Elec       q    Type
REMARK                         _______ _______ _______ _____ _____    ______ ____
ROOT
ATOM      1  C   UNL     1      27.321  26.894  22.982  0.00  0.00    +0.000 C 
ATOM      2  C   UNL     1      28.023  25.680  22.456  0.00  0.00    +0.000 C 
ATOM      3  N   UNL     1      27.213  24.872  21.586  0.00  0.00    +0.000 NA
ATOM      4  C   UNL     1      26.629  23.783  22.328  0.00  0.00    +0.000 C 
ATOM      5  O   UNL     1      25.686  23.063  21.899  0.00  0.00    +0.000 OA
ATOM      6  N   UNL     1      27.325  23.730  23.559  0.00  0.00    +0.000 N 
ATOM      7  C   UNL     1      28.324  24.754  23.601  0.00  0.00    +0.000 C 
ATOM      8  O   UNL     1      29.243  24.830  24.436  0.00  0.00    +0.000 OA
ENDROOT
BRANCH   2   9
ATOM      9  C   UNL     1      29.338  26.081  21.850  0.00  0.00    +0.000 C 
ATOM     10  C   UNL     1      29.409  27.290  20.958  0.00  0.00    +0.000 C 
ATOM     11  C   UNL     1      29.454  25.922  20.303  0.00  0.00    +0.000 C 
ENDBRANCH   2   9
BRANCH   6  12
ATOM     12  C   UNL     1      27.072  22.782  24.626  0.00  0.00    +0.000 C 
BRANCH  12  13
ATOM     13  C   UNL     1      26.183  23.366  25.681  0.00  0.00    +0.000 C 
BRANCH  13  14
ATOM     14  O   UNL     1      26.958  24.049  26.630  0.00  0.00    +0.000 OA
BRANCH  14  15
ATOM     15  C   UNL     1      26.866  23.669  27.962  0.00  0.00    +0.000 A 
ATOM     16  C   UNL     1      25.942  24.168  28.840  0.00  0.00    +0.000 A 
ATOM     17  C   UNL     1      25.936  23.721  30.143  0.00  0.00    +0.000 A 
ATOM     18  C   UNL     1      26.841  22.781  30.585  0.00  0.00    +0.000 A 
ATOM     19  C   UNL     1      27.772  22.282  29.688  0.00  0.00    +0.000 A 
ATOM     20  C   UNL     1      27.794  22.714  28.384  0.00  0.00    +0.000 A 
ATOM     21  F   UNL     1      28.722  22.211  27.509  0.00  0.00    +0.000 F 
ENDBRANCH  14  15
ENDBRANCH  13  14
ENDBRANCH  12  13
ENDBRANCH   6  12
TORSDOF 5
ENDMDL
MODEL 10
REMARK VINA RESULT:      -5.1      2.185      5.225
REMARK  Name = 
REMARK  5 active torsions:
REMARK  status: ('A' for Active; 'I' for Inactive)
REMARK    1  A    between atoms: C_2  and  C_3
REMARK    2  A    between atoms: N_9  and  C_10
REMARK    3  A    between atoms: C_10  and  C_11
REMARK    4  A    between atoms: C_11  and  O_12
REMARK    5  A    between atoms: O_12  and  C_13
REMARK                            x       y       z     vdW  Elec       q    Type
REMARK                         _______ _______ _______ _____ _____    ______ ____
ROOT
ATOM      1  C   UNL     1      29.511  24.981  26.227  0.00  0.00    +0.000 C 
ATOM      2  C   UNL     1      30.469  24.748  25.100  0.00  0.00    +0.000 C 
ATOM      3  N   UNL     1      30.585  25.861  24.197  0.00  0.00    +0.000 NA
ATOM      4  C   UNL     1      29.733  25.657  23.052  0.00  0.00    +0.000 C 
ATOM      5  O   UNL     1      29.435  26.561  22.224  0.00  0.00    +0.000 OA
ATOM      6  N   UNL     1      29.347  24.295  23.089  0.00  0.00    +0.000 N 
ATOM      7  C   UNL     1      29.935  23.650  24.223  0.00  0.00    +0.000 C 
ATOM      8  O   UNL     1      29.977  22.421  24.411  0.00  0.00    +0.000 OA
ENDROOT
BRANCH   2   9
ATOM      9  C   UNL     1      31.788  24.280  25.647  0.00  0.00    +0.000 C 
ATOM     10  C   UNL     1      32.954  25.228  25.691  0.00  0.00    +0.000 C 
ATOM     11  C   UNL     1      32.951  24.159  24.615  0.00  0.00    +0.000 C 
ENDBRANCH   2   9
BRANCH   6  12
ATOM     12  C   UNL     1      28.484  23.642  22.125  0.00  0.00    +0.000 C 
BRANCH  12  13
ATOM     13  C   UNL     1      27.039  23.929  22.399  0.00  0.00    +0.000 C 
BRANCH  13  14
ATOM     14  O   UNL     1      26.591  23.135  23.465  0.00  0.00    +0.000 OA
BRANCH  14  15
ATOM     15  C   UNL     1      26.111  23.763  24.607  0.00  0.00    +0.000 A 
ATOM     16  C   UNL     1      25.352  24.902  24.593  0.00  0.00    +0.000 A 
ATOM     17  C   UNL     1      24.925  25.445  25.785  0.00  0.00    +0.000 A 
ATOM     18  C   UNL     1      25.246  24.867  26.995  0.00  0.00    +0.000 A 
ATOM     19  C   UNL     1      26.015  23.714  26.996  0.00  0.00    +0.000 A 
ATOM     20  C   UNL     1      26.450  23.156  25.818  0.00  0.00    +0.000 A 
ATOM     21  F   UNL     1      27.210  22.016  25.838  0.00  0.00    +0.000 F 
ENDBRANCH  14  15
ENDBRANCH  13  14
ENDBRANCH  12  13
ENDBRANCH   6  12
TORSDOF 5
ENDMDL
