MODEL 1
REMARK VINA RESULT:      -8.7      0.000      0.000
REMARK  Name = 
REMARK  2 active torsions:
REMARK  status: ('A' for Active; 'I' for Inactive)
REMARK    1  A    between atoms: O_2  and  C_3
REMARK    2  A    between atoms: C_7  and  C_8
REMARK                            x       y       z     vdW  Elec       q    Type
REMARK                         _______ _______ _______ _____ _____    ______ ____
ROOT
ATOM      1  C   UNL     1      14.647  11.995  36.186  0.00  0.00    +0.000 A 
ATOM      2  O   UNL     1      15.836  11.598  36.539  0.00  0.00    +0.000 OA
ATOM      3  C   UNL     1      16.095  10.976  37.663  0.00  0.00    +0.000 A 
ATOM      4  C   UNL     1      17.377  10.573  37.996  0.00  0.00    +0.000 A 
ATOM      5  C   UNL     1      18.516  10.829  37.090  0.00  0.00    +0.000 C 
ATOM      6  C   UNL     1      17.584   9.931  39.179  0.00  0.00    +0.000 A 
ATOM      7  C   UNL     1      16.561   9.657  40.080  0.00  0.00    +0.000 A 
ATOM      8  C   UNL     1      16.895   8.953  41.338  0.00  0.00    +0.000 C 
ATOM      9  C   UNL     1      15.289  10.059  39.744  0.00  0.00    +0.000 A 
ATOM     10  C   UNL     1      15.073  10.709  38.549  0.00  0.00    +0.000 A 
ATOM     11  C   UNL     1      13.779  11.107  38.232  0.00  0.00    +0.000 A 
ATOM     12  O   UNL     1      12.817  10.887  39.005  0.00  0.00    +0.000 OA
ATOM     13  C   UNL     1      13.584  11.748  37.048  0.00  0.00    +0.000 A 
ATOM     14  O   UNL     1      12.292  12.163  36.695  0.00  0.00    +0.000 OA
ENDROOT
BRANCH   1  19
ATOM     15  C   UNL     1      14.493  12.833  32.528  0.00  0.00    +0.000 A 
ATOM     16  C   UNL     1      13.818  14.005  32.618  0.00  0.00    +0.000 A 
ATOM     17  C   UNL     1      13.407  14.543  33.818  0.00  0.00    +0.000 A 
ATOM     18  C   UNL     1      13.684  13.875  34.971  0.00  0.00    +0.000 A 
ATOM     19  C   UNL     1      14.366  12.683  34.938  0.00  0.00    +0.000 A 
ATOM     20  C   UNL     1      14.765  12.170  33.728  0.00  0.00    +0.000 A 
BRANCH  15  22
ATOM     21  C   UNL     1      15.851  11.294  31.203  0.00  0.00    +0.000 C 
ATOM     22  O   UNL     1      14.881  12.341  31.292  0.00  0.00    +0.000 OA
ENDBRANCH  15  22
ENDBRANCH   1  19
TORSDOF 2
ENDMDL
MODEL 2
REMARK VINA RESULT:      -7.7      1.901      7.192
REMARK  Name = 
REMARK  2 active torsions:
REMARK  status: ('A' for Active; 'I' for Inactive)
REMARK    1  A    between atoms: O_2  and  C_3
REMARK    2  A    between atoms: C_7  and  C_8
REMARK                            x       y       z     vdW  Elec       q    Type
REMARK                         _______ _______ _______ _____ _____    ______ ____
ROOT
ATOM      1  C   UNL     1      16.851  10.961  36.091  0.00  0.00    +0.000 A 
ATOM      2  O   UNL     1      15.885  11.806  35.866  0.00  0.00    +0.000 OA
ATOM      3  C   UNL     1      15.444  12.110  34.670  0.00  0.00    +0.000 A 
ATOM      4  C   UNL     1      14.414  13.015  34.480  0.00  0.00    +0.000 A 
ATOM      5  C   UNL     1      13.762  13.680  35.628  0.00  0.00    +0.000 C 
ATOM      6  C   UNL     1      13.999  13.291  33.213  0.00  0.00    +0.000 A 
ATOM      7  C   UNL     1      14.565  12.704  32.087  0.00  0.00    +0.000 A 
ATOM      8  C   UNL     1      14.039  13.075  30.754  0.00  0.00    +0.000 C 
ATOM      9  C   UNL     1      15.589  11.806  32.281  0.00  0.00    +0.000 A 
ATOM     10  C   UNL     1      16.013  11.521  33.560  0.00  0.00    +0.000 A 
ATOM     11  C   UNL     1      17.049  10.611  33.731  0.00  0.00    +0.000 A 
ATOM     12  O   UNL     1      17.598  10.050  32.754  0.00  0.00    +0.000 OA
ATOM     13  C   UNL     1      17.455  10.342  35.002  0.00  0.00    +0.000 A 
ATOM     14  O   UNL     1      18.498   9.428  35.212  0.00  0.00    +0.000 OA
ENDROOT
BRANCH   1  19
ATOM     15  C   UNL     1      16.971   9.770  39.651  0.00  0.00    +0.000 A 
ATOM     16  C   UNL     1      18.282  10.012  39.900  0.00  0.00    +0.000 A 
ATOM     17  C   UNL     1      19.136  10.548  38.962  0.00  0.00    +0.000 A 
ATOM     18  C   UNL     1      18.655  10.851  37.726  0.00  0.00    +0.000 A 
ATOM     19  C   UNL     1      17.334  10.627  37.419  0.00  0.00    +0.000 A 
ATOM     20  C   UNL     1      16.503  10.092  38.374  0.00  0.00    +0.000 A 
BRANCH  15  22
ATOM     21  C   UNL     1      16.350   9.584  42.006  0.00  0.00    +0.000 C 
ATOM     22  O   UNL     1      16.159   9.230  40.635  0.00  0.00    +0.000 OA
ENDBRANCH  15  22
ENDBRANCH   1  19
TORSDOF 2
ENDMDL
MODEL 3
REMARK VINA RESULT:      -7.5      2.601      6.014
REMARK  Name = 
REMARK  2 active torsions:
REMARK  status: ('A' for Active; 'I' for Inactive)
REMARK    1  A    between atoms: O_2  and  C_3
REMARK    2  A    between atoms: C_7  and  C_8
REMARK                            x       y       z     vdW  Elec       q    Type
REMARK                         _______ _______ _______ _____ _____    ______ ____
ROOT
ATOM      1  C   UNL     1      17.648  10.989  38.019  0.00  0.00    +0.000 A 
ATOM      2  O   UNL     1      16.820  11.483  37.144  0.00  0.00    +0.000 OA
ATOM      3  C   UNL     1      15.515  11.427  37.259  0.00  0.00    +0.000 A 
ATOM      4  C   UNL     1      14.674  11.966  36.301  0.00  0.00    +0.000 A 
ATOM      5  C   UNL     1      15.216  12.635  35.099  0.00  0.00    +0.000 C 
ATOM      6  C   UNL     1      13.326  11.876  36.476  0.00  0.00    +0.000 A 
ATOM      7  C   UNL     1      12.746  11.261  37.580  0.00  0.00    +0.000 A 
ATOM      8  C   UNL     1      11.270  11.218  37.672  0.00  0.00    +0.000 C 
ATOM      9  C   UNL     1      13.587  10.727  38.529  0.00  0.00    +0.000 A 
ATOM     10  C   UNL     1      14.951  10.815  38.358  0.00  0.00    +0.000 A 
ATOM     11  C   UNL     1      15.780  10.267  39.330  0.00  0.00    +0.000 A 
ATOM     12  O   UNL     1      15.314   9.700  40.347  0.00  0.00    +0.000 OA
ATOM     13  C   UNL     1      17.125  10.363  39.145  0.00  0.00    +0.000 A 
ATOM     14  O   UNL     1      17.991   9.821  40.106  0.00  0.00    +0.000 OA
ENDROOT
BRANCH   1  19
ATOM     15  C   UNL     1      21.192  10.150  37.098  0.00  0.00    +0.000 A 
ATOM     16  C   UNL     1      21.804  11.222  37.658  0.00  0.00    +0.000 A 
ATOM     17  C   UNL     1      21.119  12.212  38.326  0.00  0.00    +0.000 A 
ATOM     18  C   UNL     1      19.765  12.122  38.434  0.00  0.00    +0.000 A 
ATOM     19  C   UNL     1      19.093  11.056  37.886  0.00  0.00    +0.000 A 
ATOM     20  C   UNL     1      19.801  10.082  37.225  0.00  0.00    +0.000 A 
BRANCH  15  22
ATOM     21  C   UNL     1      23.358   9.158  36.558  0.00  0.00    +0.000 C 
ATOM     22  O   UNL     1      21.933   9.183  36.438  0.00  0.00    +0.000 OA
ENDBRANCH  15  22
ENDBRANCH   1  19
TORSDOF 2
ENDMDL
MODEL 4
REMARK VINA RESULT:      -7.3      2.533      7.853
REMARK  Name = 
REMARK  2 active torsions:
REMARK  status: ('A' for Active; 'I' for Inactive)
REMARK    1  A    between atoms: O_2  and  C_3
REMARK    2  A    between atoms: C_7  and  C_8
REMARK                            x       y       z     vdW  Elec       q    Type
REMARK                         _______ _______ _______ _____ _____    ______ ____
ROOT
ATOM      1  C   UNL     1      16.434   9.682  39.940  0.00  0.00    +0.000 A 
ATOM      2  O   UNL     1      15.257  10.058  39.527  0.00  0.00    +0.000 OA
ATOM      3  C   UNL     1      15.055  10.763  38.442  0.00  0.00    +0.000 A 
ATOM      4  C   UNL     1      13.784  11.141  38.043  0.00  0.00    +0.000 A 
ATOM      5  C   UNL     1      12.593  10.760  38.830  0.00  0.00    +0.000 C 
ATOM      6  C   UNL     1      13.637  11.875  36.905  0.00  0.00    +0.000 A 
ATOM      7  C   UNL     1      14.711  12.270  36.115  0.00  0.00    +0.000 A 
ATOM      8  C   UNL     1      14.441  13.066  34.898  0.00  0.00    +0.000 C 
ATOM      9  C   UNL     1      15.972  11.892  36.516  0.00  0.00    +0.000 A 
ATOM     10  C   UNL     1      16.128  11.149  37.666  0.00  0.00    +0.000 A 
ATOM     11  C   UNL     1      17.411  10.780  38.051  0.00  0.00    +0.000 A 
ATOM     12  O   UNL     1      18.418  11.107  37.379  0.00  0.00    +0.000 OA
ATOM     13  C   UNL     1      17.546  10.047  39.189  0.00  0.00    +0.000 A 
ATOM     14  O   UNL     1      18.826   9.657  39.608  0.00  0.00    +0.000 OA
ENDROOT
BRANCH   1  19
ATOM     15  C   UNL     1      17.020   6.782  42.255  0.00  0.00    +0.000 A 
ATOM     16  C   UNL     1      17.060   7.464  43.426  0.00  0.00    +0.000 A 
ATOM     17  C   UNL     1      16.904   8.831  43.503  0.00  0.00    +0.000 A 
ATOM     18  C   UNL     1      16.701   9.539  42.358  0.00  0.00    +0.000 A 
ATOM     19  C   UNL     1      16.651   8.898  41.144  0.00  0.00    +0.000 A 
ATOM     20  C   UNL     1      16.810   7.534  41.095  0.00  0.00    +0.000 A 
BRANCH  15  22
ATOM     21  C   UNL     1      18.493   4.834  42.208  0.00  0.00    +0.000 C 
ATOM     22  O   UNL     1      17.183   5.407  42.239  0.00  0.00    +0.000 OA
ENDBRANCH  15  22
ENDBRANCH   1  19
TORSDOF 2
ENDMDL
MODEL 5
REMARK VINA RESULT:      -7.3     20.211     22.341
REMARK  Name = 
REMARK  2 active torsions:
REMARK  status: ('A' for Active; 'I' for Inactive)
REMARK    1  A    between atoms: O_2  and  C_3
REMARK    2  A    between atoms: C_7  and  C_8
REMARK                            x       y       z     vdW  Elec       q    Type
REMARK                         _______ _______ _______ _____ _____    ______ ____
ROOT
ATOM      1  C   UNL     1      33.673   0.771  34.961  0.00  0.00    +0.000 A 
ATOM      2  O   UNL     1      33.794   1.572  35.982  0.00  0.00    +0.000 OA
ATOM      3  C   UNL     1      33.900   2.874  35.881  0.00  0.00    +0.000 A 
ATOM      4  C   UNL     1      34.027   3.685  36.996  0.00  0.00    +0.000 A 
ATOM      5  C   UNL     1      34.046   3.111  38.358  0.00  0.00    +0.000 C 
ATOM      6  C   UNL     1      34.134   5.032  36.828  0.00  0.00    +0.000 A 
ATOM      7  C   UNL     1      34.124   5.641  35.578  0.00  0.00    +0.000 A 
ATOM      8  C   UNL     1      34.246   7.114  35.506  0.00  0.00    +0.000 C 
ATOM      9  C   UNL     1      33.997   4.831  34.473  0.00  0.00    +0.000 A 
ATOM     10  C   UNL     1      33.888   3.467  34.636  0.00  0.00    +0.000 A 
ATOM     11  C   UNL     1      33.763   2.669  33.505  0.00  0.00    +0.000 A 
ATOM     12  O   UNL     1      33.747   3.162  32.352  0.00  0.00    +0.000 OA
ATOM     13  C   UNL     1      33.656   1.325  33.685  0.00  0.00    +0.000 A 
ATOM     14  O   UNL     1      33.528   0.489  32.567  0.00  0.00    +0.000 OA
ENDROOT
BRANCH   1  19
ATOM     15  C   UNL     1      34.541  -2.862  35.357  0.00  0.00    +0.000 A 
ATOM     16  C   UNL     1      33.287  -3.375  35.301  0.00  0.00    +0.000 A 
ATOM     17  C   UNL     1      32.164  -2.594  35.139  0.00  0.00    +0.000 A 
ATOM     18  C   UNL     1      32.307  -1.245  35.030  0.00  0.00    +0.000 A 
ATOM     19  C   UNL     1      33.554  -0.671  35.080  0.00  0.00    +0.000 A 
ATOM     20  C   UNL     1      34.658  -1.474  35.242  0.00  0.00    +0.000 A 
BRANCH  15  22
ATOM     21  C   UNL     1      36.807  -3.230  36.191  0.00  0.00    +0.000 C 
ATOM     22  O   UNL     1      35.634  -3.697  35.521  0.00  0.00    +0.000 OA
ENDBRANCH  15  22
ENDBRANCH   1  19
TORSDOF 2
ENDMDL
MODEL 6
REMARK VINA RESULT:      -7.2      3.060      5.592
REMARK  Name = 
REMARK  2 active torsions:
REMARK  status: ('A' for Active; 'I' for Inactive)
REMARK    1  A    between atoms: O_2  and  C_3
REMARK    2  A    between atoms: C_7  and  C_8
REMARK                            x       y       z     vdW  Elec       q    Type
REMARK                         _______ _______ _______ _____ _____    ______ ____
ROOT
ATOM      1  C   UNL     1      17.862  11.851  37.410  0.00  0.00    +0.000 A 
ATOM      2  O   UNL     1      18.534  12.833  37.940  0.00  0.00    +0.000 OA
ATOM      3  C   UNL     1      19.816  12.781  38.206  0.00  0.00    +0.000 A 
ATOM      4  C   UNL     1      20.488  13.852  38.772  0.00  0.00    +0.000 A 
ATOM      5  C   UNL     1      19.782  15.108  39.099  0.00  0.00    +0.000 C 
ATOM      6  C   UNL     1      21.821  13.738  39.026  0.00  0.00    +0.000 A 
ATOM      7  C   UNL     1      22.550  12.587  38.745  0.00  0.00    +0.000 A 
ATOM      8  C   UNL     1      23.995  12.569  39.062  0.00  0.00    +0.000 C 
ATOM      9  C   UNL     1      21.876  11.526  38.184  0.00  0.00    +0.000 A 
ATOM     10  C   UNL     1      20.528  11.635  37.923  0.00  0.00    +0.000 A 
ATOM     11  C   UNL     1      19.870  10.550  37.356  0.00  0.00    +0.000 A 
ATOM     12  O   UNL     1      20.475   9.486  37.081  0.00  0.00    +0.000 OA
ATOM     13  C   UNL     1      18.539  10.675  37.106  0.00  0.00    +0.000 A 
ATOM     14  O   UNL     1      17.843   9.600  36.534  0.00  0.00    +0.000 OA
ENDROOT
BRANCH   1  19
ATOM     15  C   UNL     1      14.144  11.369  37.635  0.00  0.00    +0.000 A 
ATOM     16  C   UNL     1      13.783  12.063  36.528  0.00  0.00    +0.000 A 
ATOM     17  C   UNL     1      14.695  12.685  35.703  0.00  0.00    +0.000 A 
ATOM     18  C   UNL     1      16.020  12.607  36.005  0.00  0.00    +0.000 A 
ATOM     19  C   UNL     1      16.441  11.916  37.115  0.00  0.00    +0.000 A 
ATOM     20  C   UNL     1      15.511  11.305  37.920  0.00  0.00    +0.000 A 
BRANCH  15  22
ATOM     21  C   UNL     1      11.846  10.601  37.945  0.00  0.00    +0.000 C 
ATOM     22  O   UNL     1      13.182  10.763  38.427  0.00  0.00    +0.000 OA
ENDBRANCH  15  22
ENDBRANCH   1  19
TORSDOF 2
ENDMDL
MODEL 7
REMARK VINA RESULT:      -7.2      1.697      6.818
REMARK  Name = 
REMARK  2 active torsions:
REMARK  status: ('A' for Active; 'I' for Inactive)
REMARK    1  A    between atoms: O_2  and  C_3
REMARK    2  A    between atoms: C_7  and  C_8
REMARK                            x       y       z     vdW  Elec       q    Type
REMARK                         _______ _______ _______ _____ _____    ______ ____
ROOT
ATOM      1  C   UNL     1      16.243  11.104  35.952  0.00  0.00    +0.000 A 
ATOM      2  O   UNL     1      16.454  10.799  34.704  0.00  0.00    +0.000 OA
ATOM      3  C   UNL     1      15.848  11.378  33.697  0.00  0.00    +0.000 A 
ATOM      4  C   UNL     1      16.105  11.019  32.385  0.00  0.00    +0.000 A 
ATOM      5  C   UNL     1      17.084   9.959  32.062  0.00  0.00    +0.000 C 
ATOM      6  C   UNL     1      15.443  11.657  31.380  0.00  0.00    +0.000 A 
ATOM      7  C   UNL     1      14.509  12.662  31.609  0.00  0.00    +0.000 A 
ATOM      8  C   UNL     1      13.846  13.291  30.445  0.00  0.00    +0.000 C 
ATOM      9  C   UNL     1      14.257  13.015  32.915  0.00  0.00    +0.000 A 
ATOM     10  C   UNL     1      14.924  12.373  33.935  0.00  0.00    +0.000 A 
ATOM     11  C   UNL     1      14.651  12.747  35.246  0.00  0.00    +0.000 A 
ATOM     12  O   UNL     1      13.820  13.646  35.513  0.00  0.00    +0.000 OA
ATOM     13  C   UNL     1      15.319  12.103  36.241  0.00  0.00    +0.000 A 
ATOM     14  O   UNL     1      15.070  12.454  37.576  0.00  0.00    +0.000 OA
ENDROOT
BRANCH   1  19
ATOM     15  C   UNL     1      16.987   9.737  39.370  0.00  0.00    +0.000 A 
ATOM     16  C   UNL     1      18.223   9.238  39.123  0.00  0.00    +0.000 A 
ATOM     17  C   UNL     1      18.833   9.324  37.891  0.00  0.00    +0.000 A 
ATOM     18  C   UNL     1      18.174   9.934  36.868  0.00  0.00    +0.000 A 
ATOM     19  C   UNL     1      16.919  10.459  37.064  0.00  0.00    +0.000 A 
ATOM     20  C   UNL     1      16.334  10.359  38.303  0.00  0.00    +0.000 A 
BRANCH  15  22
ATOM     21  C   UNL     1      16.540   8.401  41.366  0.00  0.00    +0.000 C 
ATOM     22  O   UNL     1      16.424   9.622  40.631  0.00  0.00    +0.000 OA
ENDBRANCH  15  22
ENDBRANCH   1  19
TORSDOF 2
ENDMDL
MODEL 8
REMARK VINA RESULT:      -7.1     19.620     21.861
REMARK  Name = 
REMARK  2 active torsions:
REMARK  status: ('A' for Active; 'I' for Inactive)
REMARK    1  A    between atoms: O_2  and  C_3
REMARK    2  A    between atoms: C_7  and  C_8
REMARK                            x       y       z     vdW  Elec       q    Type
REMARK                         _______ _______ _______ _____ _____    ______ ____
ROOT
ATOM      1  C   UNL     1      33.820   2.306  34.523  0.00  0.00    +0.000 A 
ATOM      2  O   UNL     1      33.660   1.401  35.447  0.00  0.00    +0.000 OA
ATOM      3  C   UNL     1      33.626   0.113  35.210  0.00  0.00    +0.000 A 
ATOM      4  C   UNL     1      33.453  -0.812  36.225  0.00  0.00    +0.000 A 
ATOM      5  C   UNL     1      33.300  -0.382  37.631  0.00  0.00    +0.000 C 
ATOM      6  C   UNL     1      33.425  -2.138  35.917  0.00  0.00    +0.000 A 
ATOM      7  C   UNL     1      33.561  -2.616  34.618  0.00  0.00    +0.000 A 
ATOM      8  C   UNL     1      33.516  -4.078  34.392  0.00  0.00    +0.000 C 
ATOM      9  C   UNL     1      33.733  -1.692  33.612  0.00  0.00    +0.000 A 
ATOM     10  C   UNL     1      33.762  -0.350  33.918  0.00  0.00    +0.000 A 
ATOM     11  C   UNL     1      33.936   0.564  32.885  0.00  0.00    +0.000 A 
ATOM     12  O   UNL     1      34.064   0.193  31.694  0.00  0.00    +0.000 OA
ATOM     13  C   UNL     1      33.962   1.886  33.205  0.00  0.00    +0.000 A 
ATOM     14  O   UNL     1      34.136   2.837  32.188  0.00  0.00    +0.000 OA
ENDROOT
BRANCH   1  19
ATOM     15  C   UNL     1      34.832   5.654  35.891  0.00  0.00    +0.000 A 
ATOM     16  C   UNL     1      33.899   6.416  35.271  0.00  0.00    +0.000 A 
ATOM     17  C   UNL     1      32.947   5.893  34.423  0.00  0.00    +0.000 A 
ATOM     18  C   UNL     1      32.936   4.552  34.190  0.00  0.00    +0.000 A 
ATOM     19  C   UNL     1      33.859   3.732  34.793  0.00  0.00    +0.000 A 
ATOM     20  C   UNL     1      34.797   4.280  35.634  0.00  0.00    +0.000 A 
BRANCH  15  22
ATOM     21  C   UNL     1      37.143   5.865  36.655  0.00  0.00    +0.000 C 
ATOM     22  O   UNL     1      35.765   6.236  36.734  0.00  0.00    +0.000 OA
ENDBRANCH  15  22
ENDBRANCH   1  19
TORSDOF 2
ENDMDL
MODEL 9
REMARK VINA RESULT:      -7.1     21.581     23.475
REMARK  Name = 
REMARK  2 active torsions:
REMARK  status: ('A' for Active; 'I' for Inactive)
REMARK    1  A    between atoms: O_2  and  C_3
REMARK    2  A    between atoms: C_7  and  C_8
REMARK                            x       y       z     vdW  Elec       q    Type
REMARK                         _______ _______ _______ _____ _____    ______ ____
ROOT
ATOM      1  C   UNL     1      19.200  -8.702  27.100  0.00  0.00    +0.000 A 
ATOM      2  O   UNL     1      20.317  -9.236  26.695  0.00  0.00    +0.000 OA
ATOM      3  C   UNL     1      21.209  -8.606  25.972  0.00  0.00    +0.000 A 
ATOM      4  C   UNL     1      22.383  -9.217  25.565  0.00  0.00    +0.000 A 
ATOM      5  C   UNL     1      22.682 -10.617  25.933  0.00  0.00    +0.000 C 
ATOM      6  C   UNL     1      23.272  -8.510  24.813  0.00  0.00    +0.000 A 
ATOM      7  C   UNL     1      23.057  -7.191  24.429  0.00  0.00    +0.000 A 
ATOM      8  C   UNL     1      24.089  -6.515  23.612  0.00  0.00    +0.000 C 
ATOM      9  C   UNL     1      21.889  -6.589  24.836  0.00  0.00    +0.000 A 
ATOM     10  C   UNL     1      20.986  -7.298  25.597  0.00  0.00    +0.000 A 
ATOM     11  C   UNL     1      19.812  -6.668  25.995  0.00  0.00    +0.000 A 
ATOM     12  O   UNL     1      19.565  -5.481  25.679  0.00  0.00    +0.000 OA
ATOM     13  C   UNL     1      18.932  -7.384  26.746  0.00  0.00    +0.000 A 
ATOM     14  O   UNL     1      17.738  -6.780  27.166  0.00  0.00    +0.000 OA
ENDROOT
BRANCH   1  19
ATOM     15  C   UNL     1      17.288 -10.031  30.046  0.00  0.00    +0.000 A 
ATOM     16  C   UNL     1      16.348 -10.740  29.374  0.00  0.00    +0.000 A 
ATOM     17  C   UNL     1      16.303 -10.809  27.999  0.00  0.00    +0.000 A 
ATOM     18  C   UNL     1      17.239 -10.139  27.273  0.00  0.00    +0.000 A 
ATOM     19  C   UNL     1      18.215  -9.406  27.903  0.00  0.00    +0.000 A 
ATOM     20  C   UNL     1      18.237  -9.354  29.276  0.00  0.00    +0.000 A 
BRANCH  15  22
ATOM     21  C   UNL     1      16.120 -10.400  32.161  0.00  0.00    +0.000 C 
ATOM     22  O   UNL     1      17.283  -9.999  31.431  0.00  0.00    +0.000 OA
ENDBRANCH  15  22
ENDBRANCH   1  19
TORSDOF 2
ENDMDL
MODEL 10
REMARK VINA RESULT:      -6.9     21.038     23.148
REMARK  Name = 
REMARK  2 active torsions:
REMARK  status: ('A' for Active; 'I' for Inactive)
REMARK    1  A    between atoms: O_2  and  C_3
REMARK    2  A    between atoms: C_7  and  C_8
REMARK                            x       y       z     vdW  Elec       q    Type
REMARK                         _______ _______ _______ _____ _____    ______ ____
ROOT
ATOM      1  C   UNL     1      17.830  -8.204  25.937  0.00  0.00    +0.000 A 
ATOM      2  O   UNL     1      18.818  -8.780  25.313  0.00  0.00    +0.000 OA
ATOM      3  C   UNL     1      19.976  -8.208  25.092  0.00  0.00    +0.000 A 
ATOM      4  C   UNL     1      20.997  -8.860  24.422  0.00  0.00    +0.000 A 
ATOM      5  C   UNL     1      20.822 -10.241  23.924  0.00  0.00    +0.000 C 
ATOM      6  C   UNL     1      22.179  -8.214  24.223  0.00  0.00    +0.000 A 
ATOM      7  C   UNL     1      22.414  -6.915  24.662  0.00  0.00    +0.000 A 
ATOM      8  C   UNL     1      23.735  -6.305  24.394  0.00  0.00    +0.000 C 
ATOM      9  C   UNL     1      21.396  -6.272  25.328  0.00  0.00    +0.000 A 
ATOM     10  C   UNL     1      20.199  -6.920  25.533  0.00  0.00    +0.000 A 
ATOM     11  C   UNL     1      19.185  -6.249  26.207  0.00  0.00    +0.000 A 
ATOM     12  O   UNL     1      19.340  -5.078  26.627  0.00  0.00    +0.000 OA
ATOM     13  C   UNL     1      18.009  -6.905  26.401  0.00  0.00    +0.000 A 
ATOM     14  O   UNL     1      16.965  -6.259  27.078  0.00  0.00    +0.000 OA
ENDROOT
BRANCH   1  19
ATOM     15  C   UNL     1      14.166  -9.017  25.813  0.00  0.00    +0.000 A 
ATOM     16  C   UNL     1      14.165 -10.076  26.660  0.00  0.00    +0.000 A 
ATOM     17  C   UNL     1      15.306 -10.544  27.275  0.00  0.00    +0.000 A 
ATOM     18  C   UNL     1      16.492  -9.923  27.029  0.00  0.00    +0.000 A 
ATOM     19  C   UNL     1      16.550  -8.844  26.180  0.00  0.00    +0.000 A 
ATOM     20  C   UNL     1      15.397  -8.399  25.579  0.00  0.00    +0.000 A 
BRANCH  15  22
ATOM     21  C   UNL     1      11.741  -8.737  25.909  0.00  0.00    +0.000 C 
ATOM     22  O   UNL     1      12.987  -8.591  25.224  0.00  0.00    +0.000 OA
ENDBRANCH  15  22
ENDBRANCH   1  19
TORSDOF 2
ENDMDL
