MODEL 1
REMARK VINA RESULT:      -7.2      0.000      0.000
REMARK  Name = 
REMARK  2 active torsions:
REMARK  status: ('A' for Active; 'I' for Inactive)
REMARK    1  A    between atoms: C_7  and  N_8
REMARK    2  A    between atoms: C_9  and  C_11
REMARK                            x       y       z     vdW  Elec       q    Type
REMARK                         _______ _______ _______ _____ _____    ______ ____
ROOT
ATOM      1  N   UNL     1      14.803  11.634  34.358  0.00  0.00    +0.000 NA
ATOM      2  C   UNL     1      15.688  11.912  35.434  0.00  0.00    +0.000 C 
ATOM      3  O   UNL     1      16.675  12.612  35.152  0.00  0.00    +0.000 OA
ENDROOT
BRANCH   2   4
ATOM      4  C   UNL     1      15.444  11.394  36.815  0.00  0.00    +0.000 A 
ATOM      5  C   UNL     1      14.201  11.543  37.370  0.00  0.00    +0.000 A 
ATOM      6  N   UNL     1      13.034  12.165  36.772  0.00  0.00    +0.000 NA
ATOM      7  S   UNL     1      14.368  10.830  38.904  0.00  0.00    +0.000 S 
ATOM      8  C   UNL     1      16.002  10.358  38.814  0.00  0.00    +0.000 A 
ATOM      9  C   UNL     1      16.387  10.771  37.576  0.00  0.00    +0.000 A 
ATOM     10  C   UNL     1      17.864  10.388  37.399  0.00  0.00    +0.000 C 
ATOM     11  C   UNL     1      18.150   9.391  38.469  0.00  0.00    +0.000 C 
ATOM     12  C   UNL     1      17.136   9.680  39.561  0.00  0.00    +0.000 C 
ENDBRANCH   2   4
BRANCH   1  19
ATOM     13  C   UNL     1      13.546  14.038  33.611  0.00  0.00    +0.000 C 
ATOM     14  C   UNL     1      14.442  13.304  32.657  0.00  0.00    +0.000 A 
ATOM     15  C   UNL     1      14.637  13.829  31.410  0.00  0.00    +0.000 A 
ATOM     16  C   UNL     1      15.465  13.173  30.497  0.00  0.00    +0.000 A 
ATOM     17  C   UNL     1      16.078  11.988  30.880  0.00  0.00    +0.000 A 
ATOM     18  C   UNL     1      15.866  11.477  32.145  0.00  0.00    +0.000 A 
ATOM     19  C   UNL     1      15.044  12.131  33.049  0.00  0.00    +0.000 A 
ENDBRANCH   1  19
TORSDOF 2
ENDMDL
MODEL 2
REMARK VINA RESULT:      -7.0      1.355      2.306
REMARK  Name = 
REMARK  2 active torsions:
REMARK  status: ('A' for Active; 'I' for Inactive)
REMARK    1  A    between atoms: C_7  and  N_8
REMARK    2  A    between atoms: C_9  and  C_11
REMARK                            x       y       z     vdW  Elec       q    Type
REMARK                         _______ _______ _______ _____ _____    ______ ____
ROOT
ATOM      1  N   UNL     1      14.963  11.591  35.644  0.00  0.00    +0.000 NA
ATOM      2  C   UNL     1      15.883  12.014  36.639  0.00  0.00    +0.000 C 
ATOM      3  O   UNL     1      16.320  13.171  36.513  0.00  0.00    +0.000 OA
ENDROOT
BRANCH   2   4
ATOM      4  C   UNL     1      16.298  11.123  37.766  0.00  0.00    +0.000 A 
ATOM      5  C   UNL     1      15.361  10.736  38.686  0.00  0.00    +0.000 A 
ATOM      6  N   UNL     1      13.954  11.092  38.719  0.00  0.00    +0.000 NA
ATOM      7  S   UNL     1      16.243   9.756  39.758  0.00  0.00    +0.000 S 
ATOM      8  C   UNL     1      17.777   9.853  39.023  0.00  0.00    +0.000 A 
ATOM      9  C   UNL     1      17.566  10.656  37.945  0.00  0.00    +0.000 A 
ATOM     10  C   UNL     1      18.906  10.808  37.210  0.00  0.00    +0.000 C 
ATOM     11  C   UNL     1      19.776   9.717  37.737  0.00  0.00    +0.000 C 
ATOM     12  C   UNL     1      19.222   9.399  39.113  0.00  0.00    +0.000 C 
ENDBRANCH   2   4
BRANCH   1  19
ATOM     13  C   UNL     1      15.750  10.881  33.037  0.00  0.00    +0.000 C 
ATOM     14  C   UNL     1      14.946  12.123  33.291  0.00  0.00    +0.000 A 
ATOM     15  C   UNL     1      14.602  12.908  32.227  0.00  0.00    +0.000 A 
ATOM     16  C   UNL     1      13.854  14.069  32.428  0.00  0.00    +0.000 A 
ATOM     17  C   UNL     1      13.473  14.406  33.720  0.00  0.00    +0.000 A 
ATOM     18  C   UNL     1      13.833  13.599  34.780  0.00  0.00    +0.000 A 
ATOM     19  C   UNL     1      14.575  12.446  34.576  0.00  0.00    +0.000 A 
ENDBRANCH   1  19
TORSDOF 2
ENDMDL
MODEL 3
REMARK VINA RESULT:      -6.7      2.478      3.890
REMARK  Name = 
REMARK  2 active torsions:
REMARK  status: ('A' for Active; 'I' for Inactive)
REMARK    1  A    between atoms: C_7  and  N_8
REMARK    2  A    between atoms: C_9  and  C_11
REMARK                            x       y       z     vdW  Elec       q    Type
REMARK                         _______ _______ _______ _____ _____    ______ ____
ROOT
ATOM      1  N   UNL     1      16.510  10.369  36.286  0.00  0.00    +0.000 NA
ATOM      2  C   UNL     1      17.345  10.919  37.293  0.00  0.00    +0.000 C 
ATOM      3  O   UNL     1      17.525  12.147  37.234  0.00  0.00    +0.000 OA
ENDROOT
BRANCH   2   4
ATOM      4  C   UNL     1      17.968  10.071  38.356  0.00  0.00    +0.000 A 
ATOM      5  C   UNL     1      19.271   9.675  38.211  0.00  0.00    +0.000 A 
ATOM      6  N   UNL     1      20.171   9.980  37.114  0.00  0.00    +0.000 NA
ATOM      7  S   UNL     1      19.560   8.755  39.610  0.00  0.00    +0.000 S 
ATOM      8  C   UNL     1      18.031   8.889  40.351  0.00  0.00    +0.000 A 
ATOM      9  C   UNL     1      17.320   9.657  39.482  0.00  0.00    +0.000 A 
ATOM     10  C   UNL     1      15.911   9.836  40.067  0.00  0.00    +0.000 C 
ATOM     11  C   UNL     1      16.021   9.441  41.500  0.00  0.00    +0.000 C 
ATOM     12  C   UNL     1      17.206   8.494  41.561  0.00  0.00    +0.000 C 
ENDBRANCH   2   4
BRANCH   1  19
ATOM     13  C   UNL     1      17.501  10.140  33.662  0.00  0.00    +0.000 C 
ATOM     14  C   UNL     1      16.388  11.091  33.988  0.00  0.00    +0.000 A 
ATOM     15  C   UNL     1      15.861  11.849  32.980  0.00  0.00    +0.000 A 
ATOM     16  C   UNL     1      14.824  12.744  33.247  0.00  0.00    +0.000 A 
ATOM     17  C   UNL     1      14.345  12.847  34.547  0.00  0.00    +0.000 A 
ATOM     18  C   UNL     1      14.893  12.071  35.549  0.00  0.00    +0.000 A 
ATOM     19  C   UNL     1      15.923  11.183  35.279  0.00  0.00    +0.000 A 
ENDBRANCH   1  19
TORSDOF 2
ENDMDL
MODEL 4
REMARK VINA RESULT:      -6.5     18.249     19.515
REMARK  Name = 
REMARK  2 active torsions:
REMARK  status: ('A' for Active; 'I' for Inactive)
REMARK    1  A    between atoms: C_7  and  N_8
REMARK    2  A    between atoms: C_9  and  C_11
REMARK                            x       y       z     vdW  Elec       q    Type
REMARK                         _______ _______ _______ _____ _____    ______ ____
ROOT
ATOM      1  N   UNL     1      28.886  22.266  27.025  0.00  0.00    +0.000 NA
ATOM      2  C   UNL     1      29.173  23.211  28.046  0.00  0.00    +0.000 C 
ATOM      3  O   UNL     1      28.922  24.396  27.769  0.00  0.00    +0.000 OA
ENDROOT
BRANCH   2   4
ATOM      4  C   UNL     1      29.740  22.802  29.367  0.00  0.00    +0.000 A 
ATOM      5  C   UNL     1      28.911  22.740  30.455  0.00  0.00    +0.000 A 
ATOM      6  N   UNL     1      27.490  23.030  30.502  0.00  0.00    +0.000 NA
ATOM      7  S   UNL     1      29.946  22.247  31.710  0.00  0.00    +0.000 S 
ATOM      8  C   UNL     1      31.404  22.129  30.837  0.00  0.00    +0.000 A 
ATOM      9  C   UNL     1      31.049  22.481  29.571  0.00  0.00    +0.000 A 
ATOM     10  C   UNL     1      32.311  22.406  28.698  0.00  0.00    +0.000 C 
ATOM     11  C   UNL     1      33.297  21.613  29.487  0.00  0.00    +0.000 C 
ATOM     12  C   UNL     1      32.880  21.793  30.936  0.00  0.00    +0.000 C 
ENDBRANCH   2   4
BRANCH   1  19
ATOM     13  C   UNL     1      30.666  22.585  24.869  0.00  0.00    +0.000 C 
ATOM     14  C   UNL     1      29.194  22.827  24.700  0.00  0.00    +0.000 A 
ATOM     15  C   UNL     1      28.732  23.208  23.472  0.00  0.00    +0.000 A 
ATOM     16  C   UNL     1      27.369  23.441  23.280  0.00  0.00    +0.000 A 
ATOM     17  C   UNL     1      26.503  23.279  24.353  0.00  0.00    +0.000 A 
ATOM     18  C   UNL     1      26.993  22.894  25.585  0.00  0.00    +0.000 A 
ATOM     19  C   UNL     1      28.347  22.663  25.772  0.00  0.00    +0.000 A 
ENDBRANCH   1  19
TORSDOF 2
ENDMDL
MODEL 5
REMARK VINA RESULT:      -6.5      3.881      5.557
REMARK  Name = 
REMARK  2 active torsions:
REMARK  status: ('A' for Active; 'I' for Inactive)
REMARK    1  A    between atoms: C_7  and  N_8
REMARK    2  A    between atoms: C_9  and  C_11
REMARK                            x       y       z     vdW  Elec       q    Type
REMARK                         _______ _______ _______ _____ _____    ______ ____
ROOT
ATOM      1  N   UNL     1      18.019  10.005  37.281  0.00  0.00    +0.000 NA
ATOM      2  C   UNL     1      19.086  10.734  37.870  0.00  0.00    +0.000 C 
ATOM      3  O   UNL     1      18.987  11.972  37.818  0.00  0.00    +0.000 OA
ENDROOT
BRANCH   2   4
ATOM      4  C   UNL     1      20.252  10.052  38.511  0.00  0.00    +0.000 A 
ATOM      5  C   UNL     1      20.142   9.628  39.808  0.00  0.00    +0.000 A 
ATOM      6  N   UNL     1      18.994   9.757  40.687  0.00  0.00    +0.000 NA
ATOM      7  S   UNL     1      21.659   8.928  40.123  0.00  0.00    +0.000 S 
ATOM      8  C   UNL     1      22.401   9.184  38.611  0.00  0.00    +0.000 A 
ATOM      9  C   UNL     1      21.440   9.817  37.885  0.00  0.00    +0.000 A 
ATOM     10  C   UNL     1      22.020  10.096  36.491  0.00  0.00    +0.000 C 
ATOM     11  C   UNL     1      23.225   9.225  36.377  0.00  0.00    +0.000 C 
ATOM     12  C   UNL     1      23.671   8.979  37.807  0.00  0.00    +0.000 C 
ENDBRANCH   2   4
BRANCH   1  19
ATOM     13  C   UNL     1      17.916  10.081  34.470  0.00  0.00    +0.000 C 
ATOM     14  C   UNL     1      16.839  10.714  35.301  0.00  0.00    +0.000 A 
ATOM     15  C   UNL     1      15.801  11.333  34.662  0.00  0.00    +0.000 A 
ATOM     16  C   UNL     1      14.781  11.931  35.404  0.00  0.00    +0.000 A 
ATOM     17  C   UNL     1      14.845  11.886  36.791  0.00  0.00    +0.000 A 
ATOM     18  C   UNL     1      15.904  11.256  37.414  0.00  0.00    +0.000 A 
ATOM     19  C   UNL     1      16.915  10.662  36.673  0.00  0.00    +0.000 A 
ENDBRANCH   1  19
TORSDOF 2
ENDMDL
MODEL 6
REMARK VINA RESULT:      -6.4     20.071     21.688
REMARK  Name = 
REMARK  2 active torsions:
REMARK  status: ('A' for Active; 'I' for Inactive)
REMARK    1  A    between atoms: C_7  and  N_8
REMARK    2  A    between atoms: C_9  and  C_11
REMARK                            x       y       z     vdW  Elec       q    Type
REMARK                         _______ _______ _______ _____ _____    ______ ____
ROOT
ATOM      1  N   UNL     1      33.022   0.317  35.487  0.00  0.00    +0.000 NA
ATOM      2  C   UNL     1      34.070   0.803  36.313  0.00  0.00    +0.000 C 
ATOM      3  O   UNL     1      34.973  -0.010  36.573  0.00  0.00    +0.000 OA
ENDROOT
BRANCH   2   4
ATOM      4  C   UNL     1      34.083   2.204  36.835  0.00  0.00    +0.000 A 
ATOM      5  C   UNL     1      34.174   2.409  38.185  0.00  0.00    +0.000 A 
ATOM      6  N   UNL     1      34.265   1.404  39.228  0.00  0.00    +0.000 NA
ATOM      7  S   UNL     1      34.155   4.103  38.328  0.00  0.00    +0.000 S 
ATOM      8  C   UNL     1      34.032   4.518  36.680  0.00  0.00    +0.000 A 
ATOM      9  C   UNL     1      34.008   3.315  36.047  0.00  0.00    +0.000 A 
ATOM     10  C   UNL     1      33.896   3.586  34.540  0.00  0.00    +0.000 C 
ATOM     11  C   UNL     1      34.254   5.023  34.364  0.00  0.00    +0.000 C 
ATOM     12  C   UNL     1      33.945   5.673  35.701  0.00  0.00    +0.000 C 
ENDBRANCH   2   4
BRANCH   1  19
ATOM     13  C   UNL     1      34.244  -0.173  33.001  0.00  0.00    +0.000 C 
ATOM     14  C   UNL     1      33.610  -1.285  33.783  0.00  0.00    +0.000 A 
ATOM     15  C   UNL     1      33.637  -2.549  33.262  0.00  0.00    +0.000 A 
ATOM     16  C   UNL     1      33.057  -3.606  33.964  0.00  0.00    +0.000 A 
ATOM     17  C   UNL     1      32.457  -3.349  35.190  0.00  0.00    +0.000 A 
ATOM     18  C   UNL     1      32.442  -2.065  35.696  0.00  0.00    +0.000 A 
ATOM     19  C   UNL     1      33.019  -1.017  34.997  0.00  0.00    +0.000 A 
ENDBRANCH   1  19
TORSDOF 2
ENDMDL
MODEL 7
REMARK VINA RESULT:      -6.3     18.558     19.626
REMARK  Name = 
REMARK  2 active torsions:
REMARK  status: ('A' for Active; 'I' for Inactive)
REMARK    1  A    between atoms: C_7  and  N_8
REMARK    2  A    between atoms: C_9  and  C_11
REMARK                            x       y       z     vdW  Elec       q    Type
REMARK                         _______ _______ _______ _____ _____    ______ ____
ROOT
ATOM      1  N   UNL     1      26.488  25.048  25.985  0.00  0.00    +0.000 NA
ATOM      2  C   UNL     1      26.757  23.710  25.591  0.00  0.00    +0.000 C 
ATOM      3  O   UNL     1      25.762  23.006  25.355  0.00  0.00    +0.000 OA
ENDROOT
BRANCH   2   4
ATOM      4  C   UNL     1      28.153  23.187  25.469  0.00  0.00    +0.000 A 
ATOM      5  C   UNL     1      28.689  23.009  24.222  0.00  0.00    +0.000 A 
ATOM      6  N   UNL     1      28.058  23.272  22.942  0.00  0.00    +0.000 NA
ATOM      7  S   UNL     1      30.249  22.415  24.546  0.00  0.00    +0.000 S 
ATOM      8  C   UNL     1      30.193  22.403  26.249  0.00  0.00    +0.000 A 
ATOM      9  C   UNL     1      28.945  22.868  26.532  0.00  0.00    +0.000 A 
ATOM     10  C   UNL     1      28.796  22.892  28.060  0.00  0.00    +0.000 C 
ATOM     11  C   UNL     1      30.181  22.781  28.599  0.00  0.00    +0.000 C 
ATOM     12  C   UNL     1      30.976  22.086  27.509  0.00  0.00    +0.000 C 
ENDBRANCH   2   4
BRANCH   1  19
ATOM     13  C   UNL     1      25.272  24.980  28.521  0.00  0.00    +0.000 C 
ATOM     14  C   UNL     1      24.539  25.515  27.326  0.00  0.00    +0.000 A 
ATOM     15  C   UNL     1      23.261  25.972  27.494  0.00  0.00    +0.000 A 
ATOM     16  C   UNL     1      22.551  26.477  26.404  0.00  0.00    +0.000 A 
ATOM     17  C   UNL     1      23.164  26.504  25.158  0.00  0.00    +0.000 A 
ATOM     18  C   UNL     1      24.455  26.037  25.013  0.00  0.00    +0.000 A 
ATOM     19  C   UNL     1      25.158  25.536  26.098  0.00  0.00    +0.000 A 
ENDBRANCH   1  19
TORSDOF 2
ENDMDL
MODEL 8
REMARK VINA RESULT:      -6.3     22.212     23.597
REMARK  Name = 
REMARK  2 active torsions:
REMARK  status: ('A' for Active; 'I' for Inactive)
REMARK    1  A    between atoms: C_7  and  N_8
REMARK    2  A    between atoms: C_9  and  C_11
REMARK                            x       y       z     vdW  Elec       q    Type
REMARK                         _______ _______ _______ _____ _____    ______ ____
ROOT
ATOM      1  N   UNL     1      22.116  -7.888  23.962  0.00  0.00    +0.000 NA
ATOM      2  C   UNL     1      21.752  -8.416  25.229  0.00  0.00    +0.000 C 
ATOM      3  O   UNL     1      22.682  -8.883  25.907  0.00  0.00    +0.000 OA
ENDROOT
BRANCH   2   4
ATOM      4  C   UNL     1      20.337  -8.408  25.713  0.00  0.00    +0.000 A 
ATOM      5  C   UNL     1      19.692  -9.601  25.901  0.00  0.00    +0.000 A 
ATOM      6  N   UNL     1      20.220 -10.935  25.682  0.00  0.00    +0.000 NA
ATOM      7  S   UNL     1      18.150  -9.134  26.442  0.00  0.00    +0.000 S 
ATOM      8  C   UNL     1      18.350  -7.442  26.421  0.00  0.00    +0.000 A 
ATOM      9  C   UNL     1      19.629  -7.276  25.988  0.00  0.00    +0.000 A 
ATOM     10  C   UNL     1      19.907  -5.766  25.934  0.00  0.00    +0.000 C 
ATOM     11  C   UNL     1      18.825  -5.131  26.739  0.00  0.00    +0.000 C 
ATOM     12  C   UNL     1      17.669  -6.114  26.694  0.00  0.00    +0.000 C 
ENDBRANCH   2   4
BRANCH   1  19
ATOM     13  C   UNL     1      22.948 -10.049  22.363  0.00  0.00    +0.000 C 
ATOM     14  C   UNL     1      23.897  -8.945  22.727  0.00  0.00    +0.000 A 
ATOM     15  C   UNL     1      25.182  -9.009  22.264  0.00  0.00    +0.000 A 
ATOM     16  C   UNL     1      26.091  -7.999  22.582  0.00  0.00    +0.000 A 
ATOM     17  C   UNL     1      25.666  -6.940  23.373  0.00  0.00    +0.000 A 
ATOM     18  C   UNL     1      24.364  -6.896  23.829  0.00  0.00    +0.000 A 
ATOM     19  C   UNL     1      23.464  -7.901  23.510  0.00  0.00    +0.000 A 
ENDBRANCH   1  19
TORSDOF 2
ENDMDL
MODEL 9
REMARK VINA RESULT:      -6.2      3.035      6.661
REMARK  Name = 
REMARK  2 active torsions:
REMARK  status: ('A' for Active; 'I' for Inactive)
REMARK    1  A    between atoms: C_7  and  N_8
REMARK    2  A    between atoms: C_9  and  C_11
REMARK                            x       y       z     vdW  Elec       q    Type
REMARK                         _______ _______ _______ _____ _____    ______ ____
ROOT
ATOM      1  N   UNL     1      17.529  10.678  38.304  0.00  0.00    +0.000 NA
ATOM      2  C   UNL     1      17.004  10.338  37.029  0.00  0.00    +0.000 C 
ATOM      3  O   UNL     1      17.502   9.336  36.490  0.00  0.00    +0.000 OA
ENDROOT
BRANCH   2   4
ATOM      4  C   UNL     1      15.921  11.140  36.380  0.00  0.00    +0.000 A 
ATOM      5  C   UNL     1      16.148  11.685  35.145  0.00  0.00    +0.000 A 
ATOM      6  N   UNL     1      17.354  11.588  34.343  0.00  0.00    +0.000 NA
ATOM      7  S   UNL     1      14.691  12.489  34.796  0.00  0.00    +0.000 S 
ATOM      8  C   UNL     1      13.824  12.120  36.216  0.00  0.00    +0.000 A 
ATOM      9  C   UNL     1      14.699  11.370  36.939  0.00  0.00    +0.000 A 
ATOM     10  C   UNL     1      14.003  10.985  38.253  0.00  0.00    +0.000 C 
ATOM     11  C   UNL     1      12.552  11.246  38.029  0.00  0.00    +0.000 C 
ATOM     12  C   UNL     1      12.505  12.304  36.941  0.00  0.00    +0.000 C 
ENDBRANCH   2   4
BRANCH   1  19
ATOM     13  C   UNL     1      20.136  11.736  38.300  0.00  0.00    +0.000 C 
ATOM     14  C   UNL     1      19.843  10.403  38.926  0.00  0.00    +0.000 A 
ATOM     15  C   UNL     1      20.873   9.709  39.497  0.00  0.00    +0.000 A 
ATOM     16  C   UNL     1      20.635   8.468  40.088  0.00  0.00    +0.000 A 
ATOM     17  C   UNL     1      19.343   7.958  40.082  0.00  0.00    +0.000 A 
ATOM     18  C   UNL     1      18.319   8.677  39.499  0.00  0.00    +0.000 A 
ATOM     19  C   UNL     1      18.559   9.910  38.913  0.00  0.00    +0.000 A 
ENDBRANCH   1  19
TORSDOF 2
ENDMDL
MODEL 10
REMARK VINA RESULT:      -6.2     18.194     19.594
REMARK  Name = 
REMARK  2 active torsions:
REMARK  status: ('A' for Active; 'I' for Inactive)
REMARK    1  A    between atoms: C_7  and  N_8
REMARK    2  A    between atoms: C_9  and  C_11
REMARK                            x       y       z     vdW  Elec       q    Type
REMARK                         _______ _______ _______ _____ _____    ______ ____
ROOT
ATOM      1  N   UNL     1      28.469  22.715  25.811  0.00  0.00    +0.000 NA
ATOM      2  C   UNL     1      28.713  23.637  26.863  0.00  0.00    +0.000 C 
ATOM      3  O   UNL     1      28.690  24.838  26.544  0.00  0.00    +0.000 OA
ENDROOT
BRANCH   2   4
ATOM      4  C   UNL     1      28.981  23.188  28.264  0.00  0.00    +0.000 A 
ATOM      5  C   UNL     1      27.947  23.155  29.160  0.00  0.00    +0.000 A 
ATOM      6  N   UNL     1      26.560  23.514  28.924  0.00  0.00    +0.000 NA
ATOM      7  S   UNL     1      28.682  22.599  30.588  0.00  0.00    +0.000 S 
ATOM      8  C   UNL     1      30.280  22.419  30.026  0.00  0.00    +0.000 A 
ATOM      9  C   UNL     1      30.205  22.801  28.722  0.00  0.00    +0.000 A 
ATOM     10  C   UNL     1      31.613  22.674  28.121  0.00  0.00    +0.000 C 
ATOM     11  C   UNL     1      32.381  21.826  29.077  0.00  0.00    +0.000 C 
ATOM     12  C   UNL     1      31.688  22.011  30.415  0.00  0.00    +0.000 C 
ENDBRANCH   2   4
BRANCH   1  19
ATOM     13  C   UNL     1      25.787  22.996  25.007  0.00  0.00    +0.000 C 
ATOM     14  C   UNL     1      26.913  23.298  24.063  0.00  0.00    +0.000 A 
ATOM     15  C   UNL     1      26.609  23.715  22.797  0.00  0.00    +0.000 A 
ATOM     16  C   UNL     1      27.632  24.005  21.893  0.00  0.00    +0.000 A 
ATOM     17  C   UNL     1      28.951  23.862  22.303  0.00  0.00    +0.000 A 
ATOM     18  C   UNL     1      29.234  23.439  23.587  0.00  0.00    +0.000 A 
ATOM     19  C   UNL     1      28.215  23.152  24.482  0.00  0.00    +0.000 A 
ENDBRANCH   1  19
TORSDOF 2
ENDMDL
