MODEL 1
REMARK VINA RESULT:      -8.0      0.000      0.000
REMARK  Name = 
REMARK  7 active torsions:
REMARK  status: ('A' for Active; 'I' for Inactive)
REMARK    1  A    between atoms: C_7  and  N_8
REMARK    2  A    between atoms: N_8  and  C_9
REMARK    3  A    between atoms: C_10  and  S_11
REMARK    4  A    between atoms: S_11  and  C_12
REMARK    5  A    between atoms: N_20  and  C_21
REMARK    6  A    between atoms: C_21  and  C_22
REMARK    7  A    between atoms: C_22  and  C_23
REMARK                            x       y       z     vdW  Elec       q    Type
REMARK                         _______ _______ _______ _____ _____    ______ ____
ROOT
ATOM      1  C   UNL     1      36.855   1.739  15.140  0.00  0.00    +0.000 C 
ATOM      2  C   UNL     1      37.799   2.063  14.277  0.00  0.00    +0.000 C 
ATOM      3  C   UNL     1      38.345   3.332  14.720  0.00  0.00    +0.000 C 
ATOM      4  O   UNL     1      39.266   3.966  14.154  0.00  0.00    +0.000 OA
ATOM      5  N   UNL     1      37.676   3.748  15.894  0.00  0.00    +0.000 N 
ATOM      6  C   UNL     1      36.713   2.741  16.186  0.00  0.00    +0.000 C 
ATOM      7  O   UNL     1      35.905   2.743  17.167  0.00  0.00    +0.000 OA
ENDROOT
BRANCH   1   8
ATOM      8  N   UNL     1      36.084   0.541  15.033  0.00  0.00    +0.000 NA
BRANCH   8  15
ATOM      9  C   UNL     1      38.226  -2.042  18.722  0.00  0.00    +0.000 C 
ATOM     10  C   UNL     1      37.534  -1.941  17.411  0.00  0.00    +0.000 A 
ATOM     11  C   UNL     1      37.275  -3.105  16.722  0.00  0.00    +0.000 A 
ATOM     12  C   UNL     1      36.642  -3.079  15.511  0.00  0.00    +0.000 A 
ATOM     13  C   UNL     1      36.371  -4.349  14.784  0.00  0.00    +0.000 C 
ATOM     14  C   UNL     1      36.252  -1.851  14.965  0.00  0.00    +0.000 A 
ATOM     15  C   UNL     1      36.502  -0.675  15.636  0.00  0.00    +0.000 A 
ATOM     16  C   UNL     1      37.142  -0.756  16.851  0.00  0.00    +0.000 A 
ENDBRANCH   8  15
ENDBRANCH   1   8
BRANCH   2  17
ATOM     17  S   UNL     1      38.291   1.092  12.836  0.00  0.00    +0.000 S 
BRANCH  17  18
ATOM     18  C   UNL     1      39.118  -0.371  13.431  0.00  0.00    +0.000 A 
ATOM     19  C   UNL     1      38.960  -1.562  12.747  0.00  0.00    +0.000 A 
ATOM     20  C   UNL     1      39.584  -2.724  13.172  0.00  0.00    +0.000 A 
ATOM     21  C   UNL     1      40.386  -2.729  14.296  0.00  0.00    +0.000 A 
ATOM     22  C   UNL     1      40.557  -1.537  15.000  0.00  0.00    +0.000 A 
ATOM     23  C   UNL     1      39.919  -0.387  14.550  0.00  0.00    +0.000 A 
ENDBRANCH  17  18
ENDBRANCH   2  17
BRANCH   5  24
ATOM     24  C   UNL     1      37.922   4.963  16.652  0.00  0.00    +0.000 C 
BRANCH  24  25
ATOM     25  C   UNL     1      38.931   4.707  17.755  0.00  0.00    +0.000 C 
BRANCH  25  26
ATOM     26  C   UNL     1      39.052   5.918  18.585  0.00  0.00    +0.000 A 
ATOM     27  C   UNL     1      38.152   6.940  18.418  0.00  0.00    +0.000 A 
ATOM     28  C   UNL     1      38.248   8.088  19.189  0.00  0.00    +0.000 A 
ATOM     29  C   UNL     1      39.237   8.210  20.117  0.00  0.00    +0.000 A 
ATOM     30  C   UNL     1      40.135   7.190  20.284  0.00  0.00    +0.000 A 
ATOM     31  C   UNL     1      40.051   6.034  19.519  0.00  0.00    +0.000 A 
ENDBRANCH  25  26
ENDBRANCH  24  25
ENDBRANCH   5  24
TORSDOF 7
ENDMDL
MODEL 2
REMARK VINA RESULT:      -8.0      0.185      1.522
REMARK  Name = 
REMARK  7 active torsions:
REMARK  status: ('A' for Active; 'I' for Inactive)
REMARK    1  A    between atoms: C_7  and  N_8
REMARK    2  A    between atoms: N_8  and  C_9
REMARK    3  A    between atoms: C_10  and  S_11
REMARK    4  A    between atoms: S_11  and  C_12
REMARK    5  A    between atoms: N_20  and  C_21
REMARK    6  A    between atoms: C_21  and  C_22
REMARK    7  A    between atoms: C_22  and  C_23
REMARK                            x       y       z     vdW  Elec       q    Type
REMARK                         _______ _______ _______ _____ _____    ______ ____
ROOT
ATOM      1  C   UNL     1      36.943   1.827  14.966  0.00  0.00    +0.000 C 
ATOM      2  C   UNL     1      37.964   2.149  14.194  0.00  0.00    +0.000 C 
ATOM      3  C   UNL     1      38.496   3.396  14.712  0.00  0.00    +0.000 C 
ATOM      4  O   UNL     1      39.473   4.022  14.241  0.00  0.00    +0.000 OA
ATOM      5  N   UNL     1      37.737   3.800  15.835  0.00  0.00    +0.000 N 
ATOM      6  C   UNL     1      36.733   2.808  16.020  0.00  0.00    +0.000 C 
ATOM      7  O   UNL     1      35.845   2.805  16.929  0.00  0.00    +0.000 OA
ENDROOT
BRANCH   1   8
ATOM      8  N   UNL     1      36.161   0.649  14.765  0.00  0.00    +0.000 NA
BRANCH   8  15
ATOM      9  C   UNL     1      36.457  -4.329  14.755  0.00  0.00    +0.000 C 
ATOM     10  C   UNL     1      36.654  -2.997  15.382  0.00  0.00    +0.000 A 
ATOM     11  C   UNL     1      37.208  -2.950  16.643  0.00  0.00    +0.000 A 
ATOM     12  C   UNL     1      37.415  -1.755  17.274  0.00  0.00    +0.000 A 
ATOM     13  C   UNL     1      38.015  -1.726  18.636  0.00  0.00    +0.000 C 
ATOM     14  C   UNL     1      37.059  -0.565  16.630  0.00  0.00    +0.000 A 
ATOM     15  C   UNL     1      36.503  -0.590  15.370  0.00  0.00    +0.000 A 
ATOM     16  C   UNL     1      36.316  -1.818  14.779  0.00  0.00    +0.000 A 
ENDBRANCH   8  15
ENDBRANCH   1   8
BRANCH   2  17
ATOM     17  S   UNL     1      38.556   1.200  12.777  0.00  0.00    +0.000 S 
BRANCH  17  18
ATOM     18  C   UNL     1      39.277  -0.306  13.401  0.00  0.00    +0.000 A 
ATOM     19  C   UNL     1      39.119  -1.478  12.687  0.00  0.00    +0.000 A 
ATOM     20  C   UNL     1      39.662  -2.672  13.134  0.00  0.00    +0.000 A 
ATOM     21  C   UNL     1      40.382  -2.728  14.311  0.00  0.00    +0.000 A 
ATOM     22  C   UNL     1      40.553  -1.555  15.046  0.00  0.00    +0.000 A 
ATOM     23  C   UNL     1      39.996  -0.372  14.573  0.00  0.00    +0.000 A 
ENDBRANCH  17  18
ENDBRANCH   2  17
BRANCH   5  24
ATOM     24  C   UNL     1      37.942   4.992  16.640  0.00  0.00    +0.000 C 
BRANCH  24  25
ATOM     25  C   UNL     1      38.996   4.742  17.702  0.00  0.00    +0.000 C 
BRANCH  25  26
ATOM     26  C   UNL     1      39.090   5.927  18.573  0.00  0.00    +0.000 A 
ATOM     27  C   UNL     1      38.161   6.928  18.447  0.00  0.00    +0.000 A 
ATOM     28  C   UNL     1      38.231   8.051  19.257  0.00  0.00    +0.000 A 
ATOM     29  C   UNL     1      39.223   8.168  20.183  0.00  0.00    +0.000 A 
ATOM     30  C   UNL     1      40.150   7.168  20.309  0.00  0.00    +0.000 A 
ATOM     31  C   UNL     1      40.092   6.037  19.504  0.00  0.00    +0.000 A 
ENDBRANCH  25  26
ENDBRANCH  24  25
ENDBRANCH   5  24
TORSDOF 7
ENDMDL
MODEL 3
REMARK VINA RESULT:      -7.8      1.733      4.196
REMARK  Name = 
REMARK  7 active torsions:
REMARK  status: ('A' for Active; 'I' for Inactive)
REMARK    1  A    between atoms: C_7  and  N_8
REMARK    2  A    between atoms: N_8  and  C_9
REMARK    3  A    between atoms: C_10  and  S_11
REMARK    4  A    between atoms: S_11  and  C_12
REMARK    5  A    between atoms: N_20  and  C_21
REMARK    6  A    between atoms: C_21  and  C_22
REMARK    7  A    between atoms: C_22  and  C_23
REMARK                            x       y       z     vdW  Elec       q    Type
REMARK                         _______ _______ _______ _____ _____    ______ ____
ROOT
ATOM      1  C   UNL     1      38.451   2.204  14.557  0.00  0.00    +0.000 C 
ATOM      2  C   UNL     1      37.387   1.961  15.300  0.00  0.00    +0.000 C 
ATOM      3  C   UNL     1      37.189   3.133  16.132  0.00  0.00    +0.000 C 
ATOM      4  O   UNL     1      36.275   3.282  16.975  0.00  0.00    +0.000 OA
ATOM      5  N   UNL     1      38.193   4.089  15.846  0.00  0.00    +0.000 N 
ATOM      6  C   UNL     1      39.016   3.515  14.836  0.00  0.00    +0.000 C 
ATOM      7  O   UNL     1      40.034   4.060  14.304  0.00  0.00    +0.000 OA
ENDROOT
BRANCH   1   8
ATOM      8  N   UNL     1      38.958   1.271  13.602  0.00  0.00    +0.000 NA
BRANCH   8  15
ATOM      9  C   UNL     1      43.841   0.270  13.770  0.00  0.00    +0.000 C 
ATOM     10  C   UNL     1      42.414  -0.082  13.986  0.00  0.00    +0.000 A 
ATOM     11  C   UNL     1      42.124  -1.323  14.509  0.00  0.00    +0.000 A 
ATOM     12  C   UNL     1      40.831  -1.707  14.731  0.00  0.00    +0.000 A 
ATOM     13  C   UNL     1      40.539  -3.051  15.298  0.00  0.00    +0.000 C 
ATOM     14  C   UNL     1      39.788  -0.826  14.422  0.00  0.00    +0.000 A 
ATOM     15  C   UNL     1      40.056   0.419  13.897  0.00  0.00    +0.000 A 
ATOM     16  C   UNL     1      41.374   0.756  13.693  0.00  0.00    +0.000 A 
ENDBRANCH   8  15
ENDBRANCH   1   8
BRANCH   2  17
ATOM     17  S   UNL     1      36.394   0.454  15.262  0.00  0.00    +0.000 S 
BRANCH  17  18
ATOM     18  C   UNL     1      36.606  -0.370  16.828  0.00  0.00    +0.000 A 
ATOM     19  C   UNL     1      35.819   0.002  17.900  0.00  0.00    +0.000 A 
ATOM     20  C   UNL     1      35.948  -0.612  19.136  0.00  0.00    +0.000 A 
ATOM     21  C   UNL     1      36.873  -1.618  19.335  0.00  0.00    +0.000 A 
ATOM     22  C   UNL     1      37.677  -2.008  18.264  0.00  0.00    +0.000 A 
ATOM     23  C   UNL     1      37.525  -1.375  17.036  0.00  0.00    +0.000 A 
ENDBRANCH  17  18
ENDBRANCH   2  17
BRANCH   5  24
ATOM     24  C   UNL     1      38.352   5.395  16.461  0.00  0.00    +0.000 C 
BRANCH  24  25
ATOM     25  C   UNL     1      38.596   5.255  17.951  0.00  0.00    +0.000 C 
BRANCH  25  26
ATOM     26  C   UNL     1      39.927   5.800  18.272  0.00  0.00    +0.000 A 
ATOM     27  C   UNL     1      40.236   6.090  19.578  0.00  0.00    +0.000 A 
ATOM     28  C   UNL     1      41.483   6.603  19.902  0.00  0.00    +0.000 A 
ATOM     29  C   UNL     1      42.409   6.821  18.927  0.00  0.00    +0.000 A 
ATOM     30  C   UNL     1      42.101   6.531  17.625  0.00  0.00    +0.000 A 
ATOM     31  C   UNL     1      40.856   6.017  17.286  0.00  0.00    +0.000 A 
ENDBRANCH  25  26
ENDBRANCH  24  25
ENDBRANCH   5  24
TORSDOF 7
ENDMDL
MODEL 4
REMARK VINA RESULT:      -7.8      1.728      4.223
REMARK  Name = 
REMARK  7 active torsions:
REMARK  status: ('A' for Active; 'I' for Inactive)
REMARK    1  A    between atoms: C_7  and  N_8
REMARK    2  A    between atoms: N_8  and  C_9
REMARK    3  A    between atoms: C_10  and  S_11
REMARK    4  A    between atoms: S_11  and  C_12
REMARK    5  A    between atoms: N_20  and  C_21
REMARK    6  A    between atoms: C_21  and  C_22
REMARK    7  A    between atoms: C_22  and  C_23
REMARK                            x       y       z     vdW  Elec       q    Type
REMARK                         _______ _______ _______ _____ _____    ______ ____
ROOT
ATOM      1  C   UNL     1      38.422   2.214  14.543  0.00  0.00    +0.000 C 
ATOM      2  C   UNL     1      37.358   1.986  15.291  0.00  0.00    +0.000 C 
ATOM      3  C   UNL     1      37.173   3.166  16.115  0.00  0.00    +0.000 C 
ATOM      4  O   UNL     1      36.261   3.328  16.959  0.00  0.00    +0.000 OA
ATOM      5  N   UNL     1      38.184   4.110  15.820  0.00  0.00    +0.000 N 
ATOM      6  C   UNL     1      39.000   3.522  14.812  0.00  0.00    +0.000 C 
ATOM      7  O   UNL     1      40.021   4.054  14.274  0.00  0.00    +0.000 OA
ENDROOT
BRANCH   1   8
ATOM      8  N   UNL     1      38.919   1.270  13.595  0.00  0.00    +0.000 NA
BRANCH   8  15
ATOM      9  C   UNL     1      40.536  -3.130  15.295  0.00  0.00    +0.000 C 
ATOM     10  C   UNL     1      40.754  -1.769  14.740  0.00  0.00    +0.000 A 
ATOM     11  C   UNL     1      42.051  -1.357  14.524  0.00  0.00    +0.000 A 
ATOM     12  C   UNL     1      42.317  -0.116  14.016  0.00  0.00    +0.000 A 
ATOM     13  C   UNL     1      43.725   0.310  13.789  0.00  0.00    +0.000 C 
ATOM     14  C   UNL     1      41.257   0.745  13.712  0.00  0.00    +0.000 A 
ATOM     15  C   UNL     1      39.953   0.353  13.921  0.00  0.00    +0.000 A 
ATOM     16  C   UNL     1      39.740  -0.905  14.435  0.00  0.00    +0.000 A 
ENDBRANCH   8  15
ENDBRANCH   1   8
BRANCH   2  17
ATOM     17  S   UNL     1      36.351   0.488  15.265  0.00  0.00    +0.000 S 
BRANCH  17  18
ATOM     18  C   UNL     1      36.525  -0.305  16.852  0.00  0.00    +0.000 A 
ATOM     19  C   UNL     1      37.447  -1.323  17.002  0.00  0.00    +0.000 A 
ATOM     20  C   UNL     1      37.617  -1.968  18.217  0.00  0.00    +0.000 A 
ATOM     21  C   UNL     1      36.868  -1.611  19.321  0.00  0.00    +0.000 A 
ATOM     22  C   UNL     1      35.932  -0.585  19.189  0.00  0.00    +0.000 A 
ATOM     23  C   UNL     1      35.783   0.043  17.958  0.00  0.00    +0.000 A 
ENDBRANCH  17  18
ENDBRANCH   2  17
BRANCH   5  24
ATOM     24  C   UNL     1      38.356   5.419  16.425  0.00  0.00    +0.000 C 
BRANCH  24  25
ATOM     25  C   UNL     1      38.574   5.289  17.921  0.00  0.00    +0.000 C 
BRANCH  25  26
ATOM     26  C   UNL     1      39.910   5.810  18.259  0.00  0.00    +0.000 A 
ATOM     27  C   UNL     1      40.817   6.035  17.253  0.00  0.00    +0.000 A 
ATOM     28  C   UNL     1      42.079   6.525  17.549  0.00  0.00    +0.000 A 
ATOM     29  C   UNL     1      42.428   6.787  18.840  0.00  0.00    +0.000 A 
ATOM     30  C   UNL     1      41.523   6.563  19.843  0.00  0.00    +0.000 A 
ATOM     31  C   UNL     1      40.254   6.072  19.561  0.00  0.00    +0.000 A 
ENDBRANCH  25  26
ENDBRANCH  24  25
ENDBRANCH   5  24
TORSDOF 7
ENDMDL
MODEL 5
REMARK VINA RESULT:      -7.7      1.513      4.017
REMARK  Name = 
REMARK  7 active torsions:
REMARK  status: ('A' for Active; 'I' for Inactive)
REMARK    1  A    between atoms: C_7  and  N_8
REMARK    2  A    between atoms: N_8  and  C_9
REMARK    3  A    between atoms: C_10  and  S_11
REMARK    4  A    between atoms: S_11  and  C_12
REMARK    5  A    between atoms: N_20  and  C_21
REMARK    6  A    between atoms: C_21  and  C_22
REMARK    7  A    between atoms: C_22  and  C_23
REMARK                            x       y       z     vdW  Elec       q    Type
REMARK                         _______ _______ _______ _____ _____    ______ ____
ROOT
ATOM      1  C   UNL     1      38.425   2.190  14.583  0.00  0.00    +0.000 C 
ATOM      2  C   UNL     1      37.363   1.989  15.342  0.00  0.00    +0.000 C 
ATOM      3  C   UNL     1      37.205   3.182  16.153  0.00  0.00    +0.000 C 
ATOM      4  O   UNL     1      36.303   3.370  17.002  0.00  0.00    +0.000 OA
ATOM      5  N   UNL     1      38.230   4.104  15.838  0.00  0.00    +0.000 N 
ATOM      6  C   UNL     1      39.027   3.490  14.831  0.00  0.00    +0.000 C 
ATOM      7  O   UNL     1      40.053   3.999  14.279  0.00  0.00    +0.000 OA
ENDROOT
BRANCH   1   8
ATOM      8  N   UNL     1      38.898   1.225  13.642  0.00  0.00    +0.000 NA
BRANCH   8  15
ATOM      9  C   UNL     1      43.779   0.212  13.757  0.00  0.00    +0.000 C 
ATOM     10  C   UNL     1      42.354  -0.134  13.994  0.00  0.00    +0.000 A 
ATOM     11  C   UNL     1      42.067  -1.370  14.531  0.00  0.00    +0.000 A 
ATOM     12  C   UNL     1      40.776  -1.748  14.772  0.00  0.00    +0.000 A 
ATOM     13  C   UNL     1      40.487  -3.088  15.353  0.00  0.00    +0.000 C 
ATOM     14  C   UNL     1      39.732  -0.867  14.468  0.00  0.00    +0.000 A 
ATOM     15  C   UNL     1      39.997   0.373  13.930  0.00  0.00    +0.000 A 
ATOM     16  C   UNL     1      41.313   0.704  13.707  0.00  0.00    +0.000 A 
ENDBRANCH   8  15
ENDBRANCH   1   8
BRANCH   2  17
ATOM     17  S   UNL     1      36.330   0.508  15.342  0.00  0.00    +0.000 S 
BRANCH  17  18
ATOM     18  C   UNL     1      36.618  -0.348  16.880  0.00  0.00    +0.000 A 
ATOM     19  C   UNL     1      37.299  -1.550  16.868  0.00  0.00    +0.000 A 
ATOM     20  C   UNL     1      37.546  -2.250  18.038  0.00  0.00    +0.000 A 
ATOM     21  C   UNL     1      37.117  -1.766  19.258  0.00  0.00    +0.000 A 
ATOM     22  C   UNL     1      36.427  -0.554  19.291  0.00  0.00    +0.000 A 
ATOM     23  C   UNL     1      36.194   0.126  18.101  0.00  0.00    +0.000 A 
ENDBRANCH  17  18
ENDBRANCH   2  17
BRANCH   5  24
ATOM     24  C   UNL     1      38.429   5.417  16.426  0.00  0.00    +0.000 C 
BRANCH  24  25
ATOM     25  C   UNL     1      39.212   5.308  17.720  0.00  0.00    +0.000 C 
BRANCH  25  26
ATOM     26  C   UNL     1      38.853   6.437  18.596  0.00  0.00    +0.000 A 
ATOM     27  C   UNL     1      39.547   6.626  19.765  0.00  0.00    +0.000 A 
ATOM     28  C   UNL     1      39.226   7.682  20.604  0.00  0.00    +0.000 A 
ATOM     29  C   UNL     1      38.219   8.539  20.273  0.00  0.00    +0.000 A 
ATOM     30  C   UNL     1      37.528   8.350  19.107  0.00  0.00    +0.000 A 
ATOM     31  C   UNL     1      37.839   7.296  18.256  0.00  0.00    +0.000 A 
ENDBRANCH  25  26
ENDBRANCH  24  25
ENDBRANCH   5  24
TORSDOF 7
ENDMDL
MODEL 6
REMARK VINA RESULT:      -7.4      3.064      9.017
REMARK  Name = 
REMARK  7 active torsions:
REMARK  status: ('A' for Active; 'I' for Inactive)
REMARK    1  A    between atoms: C_7  and  N_8
REMARK    2  A    between atoms: N_8  and  C_9
REMARK    3  A    between atoms: C_10  and  S_11
REMARK    4  A    between atoms: S_11  and  C_12
REMARK    5  A    between atoms: N_20  and  C_21
REMARK    6  A    between atoms: C_21  and  C_22
REMARK    7  A    between atoms: C_22  and  C_23
REMARK                            x       y       z     vdW  Elec       q    Type
REMARK                         _______ _______ _______ _____ _____    ______ ____
ROOT
ATOM      1  C   UNL     1      37.992   5.762  15.423  0.00  0.00    +0.000 C 
ATOM      2  C   UNL     1      37.027   6.320  14.717  0.00  0.00    +0.000 C 
ATOM      3  C   UNL     1      36.117   5.252  14.345  0.00  0.00    +0.000 C 
ATOM      4  O   UNL     1      35.073   5.389  13.667  0.00  0.00    +0.000 OA
ATOM      5  N   UNL     1      36.593   4.026  14.866  0.00  0.00    +0.000 N 
ATOM      6  C   UNL     1      37.797   4.327  15.564  0.00  0.00    +0.000 C 
ATOM      7  O   UNL     1      38.533   3.491  16.176  0.00  0.00    +0.000 OA
ENDROOT
BRANCH   1   8
ATOM      8  N   UNL     1      39.083   6.506  15.969  0.00  0.00    +0.000 NA
BRANCH   8  15
ATOM      9  C   UNL     1      41.345   6.091  20.393  0.00  0.00    +0.000 C 
ATOM     10  C   UNL     1      40.262   6.590  19.507  0.00  0.00    +0.000 A 
ATOM     11  C   UNL     1      39.277   7.376  20.064  0.00  0.00    +0.000 A 
ATOM     12  C   UNL     1      38.254   7.865  19.302  0.00  0.00    +0.000 A 
ATOM     13  C   UNL     1      37.200   8.712  19.924  0.00  0.00    +0.000 C 
ATOM     14  C   UNL     1      38.207   7.563  17.936  0.00  0.00    +0.000 A 
ATOM     15  C   UNL     1      39.182   6.779  17.359  0.00  0.00    +0.000 A 
ATOM     16  C   UNL     1      40.189   6.312  18.170  0.00  0.00    +0.000 A 
ENDBRANCH   8  15
ENDBRANCH   1   8
BRANCH   2  17
ATOM     17  S   UNL     1      36.893   8.075  14.314  0.00  0.00    +0.000 S 
BRANCH  17  18
ATOM     18  C   UNL     1      35.587   8.759  15.317  0.00  0.00    +0.000 A 
ATOM     19  C   UNL     1      35.905   9.648  16.325  0.00  0.00    +0.000 A 
ATOM     20  C   UNL     1      34.923  10.206  17.129  0.00  0.00    +0.000 A 
ATOM     21  C   UNL     1      33.591   9.889  16.947  0.00  0.00    +0.000 A 
ATOM     22  C   UNL     1      33.251   8.993  15.933  0.00  0.00    +0.000 A 
ATOM     23  C   UNL     1      34.257   8.450  15.142  0.00  0.00    +0.000 A 
ENDBRANCH  17  18
ENDBRANCH   2  17
BRANCH   5  24
ATOM     24  C   UNL     1      35.976   2.720  14.719  0.00  0.00    +0.000 C 
BRANCH  24  25
ATOM     25  C   UNL     1      35.251   2.327  15.991  0.00  0.00    +0.000 C 
BRANCH  25  26
ATOM     26  C   UNL     1      35.328   0.865  16.156  0.00  0.00    +0.000 A 
ATOM     27  C   UNL     1      36.109   0.132  15.297  0.00  0.00    +0.000 A 
ATOM     28  C   UNL     1      36.196  -1.244  15.434  0.00  0.00    +0.000 A 
ATOM     29  C   UNL     1      35.507  -1.879  16.424  0.00  0.00    +0.000 A 
ATOM     30  C   UNL     1      34.729  -1.149  17.281  0.00  0.00    +0.000 A 
ATOM     31  C   UNL     1      34.632   0.231  17.155  0.00  0.00    +0.000 A 
ENDBRANCH  25  26
ENDBRANCH  24  25
ENDBRANCH   5  24
TORSDOF 7
ENDMDL
MODEL 7
REMARK VINA RESULT:      -7.2      1.464      3.811
REMARK  Name = 
REMARK  7 active torsions:
REMARK  status: ('A' for Active; 'I' for Inactive)
REMARK    1  A    between atoms: C_7  and  N_8
REMARK    2  A    between atoms: N_8  and  C_9
REMARK    3  A    between atoms: C_10  and  S_11
REMARK    4  A    between atoms: S_11  and  C_12
REMARK    5  A    between atoms: N_20  and  C_21
REMARK    6  A    between atoms: C_21  and  C_22
REMARK    7  A    between atoms: C_22  and  C_23
REMARK                            x       y       z     vdW  Elec       q    Type
REMARK                         _______ _______ _______ _____ _____    ______ ____
ROOT
ATOM      1  C   UNL     1      38.115   2.377  14.127  0.00  0.00    +0.000 C 
ATOM      2  C   UNL     1      37.335   1.728  14.971  0.00  0.00    +0.000 C 
ATOM      3  C   UNL     1      37.139   2.607  16.110  0.00  0.00    +0.000 C 
ATOM      4  O   UNL     1      36.453   2.342  17.124  0.00  0.00    +0.000 OA
ATOM      5  N   UNL     1      37.845   3.814  15.899  0.00  0.00    +0.000 N 
ATOM      6  C   UNL     1      38.481   3.691  14.632  0.00  0.00    +0.000 C 
ATOM      7  O   UNL     1      39.215   4.568  14.077  0.00  0.00    +0.000 OA
ENDROOT
BRANCH   1   8
ATOM      8  N   UNL     1      38.531   1.825  12.877  0.00  0.00    +0.000 NA
BRANCH   8  15
ATOM      9  C   UNL     1      39.982  -2.610  11.120  0.00  0.00    +0.000 C 
ATOM     10  C   UNL     1      40.165  -1.401  11.964  0.00  0.00    +0.000 A 
ATOM     11  C   UNL     1      41.304  -1.315  12.736  0.00  0.00    +0.000 A 
ATOM     12  C   UNL     1      41.530  -0.229  13.533  0.00  0.00    +0.000 A 
ATOM     13  C   UNL     1      42.766  -0.154  14.359  0.00  0.00    +0.000 C 
ATOM     14  C   UNL     1      40.592   0.809  13.566  0.00  0.00    +0.000 A 
ATOM     15  C   UNL     1      39.447   0.743  12.803  0.00  0.00    +0.000 A 
ATOM     16  C   UNL     1      39.267  -0.372  12.018  0.00  0.00    +0.000 A 
ENDBRANCH   8  15
ENDBRANCH   1   8
BRANCH   2  17
ATOM     17  S   UNL     1      36.658   0.073  14.726  0.00  0.00    +0.000 S 
BRANCH  17  18
ATOM     18  C   UNL     1      37.501  -1.026  15.849  0.00  0.00    +0.000 A 
ATOM     19  C   UNL     1      38.574  -1.767  15.392  0.00  0.00    +0.000 A 
ATOM     20  C   UNL     1      39.261  -2.632  16.229  0.00  0.00    +0.000 A 
ATOM     21  C   UNL     1      38.891  -2.783  17.551  0.00  0.00    +0.000 A 
ATOM     22  C   UNL     1      37.811  -2.043  18.031  0.00  0.00    +0.000 A 
ATOM     23  C   UNL     1      37.141  -1.182  17.168  0.00  0.00    +0.000 A 
ENDBRANCH  17  18
ENDBRANCH   2  17
BRANCH   5  24
ATOM     24  C   UNL     1      37.909   4.953  16.799  0.00  0.00    +0.000 C 
BRANCH  24  25
ATOM     25  C   UNL     1      39.088   4.819  17.744  0.00  0.00    +0.000 C 
BRANCH  25  26
ATOM     26  C   UNL     1      39.135   6.000  18.624  0.00  0.00    +0.000 A 
ATOM     27  C   UNL     1      38.182   6.978  18.486  0.00  0.00    +0.000 A 
ATOM     28  C   UNL     1      38.207   8.097  19.304  0.00  0.00    +0.000 A 
ATOM     29  C   UNL     1      39.179   8.233  20.250  0.00  0.00    +0.000 A 
ATOM     30  C   UNL     1      40.129   7.257  20.387  0.00  0.00    +0.000 A 
ATOM     31  C   UNL     1      40.116   6.130  19.575  0.00  0.00    +0.000 A 
ENDBRANCH  25  26
ENDBRANCH  24  25
ENDBRANCH   5  24
TORSDOF 7
ENDMDL
MODEL 8
REMARK VINA RESULT:      -7.0      3.614      6.265
REMARK  Name = 
REMARK  7 active torsions:
REMARK  status: ('A' for Active; 'I' for Inactive)
REMARK    1  A    between atoms: C_7  and  N_8
REMARK    2  A    between atoms: N_8  and  C_9
REMARK    3  A    between atoms: C_10  and  S_11
REMARK    4  A    between atoms: S_11  and  C_12
REMARK    5  A    between atoms: N_20  and  C_21
REMARK    6  A    between atoms: C_21  and  C_22
REMARK    7  A    between atoms: C_22  and  C_23
REMARK                            x       y       z     vdW  Elec       q    Type
REMARK                         _______ _______ _______ _____ _____    ______ ____
ROOT
ATOM      1  C   UNL     1      36.656   3.829  15.736  0.00  0.00    +0.000 C 
ATOM      2  C   UNL     1      37.575   4.752  15.523  0.00  0.00    +0.000 C 
ATOM      3  C   UNL     1      37.000   5.699  14.586  0.00  0.00    +0.000 C 
ATOM      4  O   UNL     1      37.572   6.720  14.139  0.00  0.00    +0.000 OA
ATOM      5  N   UNL     1      35.688   5.290  14.251  0.00  0.00    +0.000 N 
ATOM      6  C   UNL     1      35.443   4.091  14.978  0.00  0.00    +0.000 C 
ATOM      7  O   UNL     1      34.372   3.407  14.950  0.00  0.00    +0.000 OA
ENDROOT
BRANCH   1   8
ATOM      8  N   UNL     1      36.861   2.720  16.613  0.00  0.00    +0.000 NA
BRANCH   8  15
ATOM      9  C   UNL     1      37.478  -1.255  13.668  0.00  0.00    +0.000 C 
ATOM     10  C   UNL     1      36.844  -0.543  14.806  0.00  0.00    +0.000 A 
ATOM     11  C   UNL     1      35.891  -1.214  15.541  0.00  0.00    +0.000 A 
ATOM     12  C   UNL     1      35.271  -0.614  16.601  0.00  0.00    +0.000 A 
ATOM     13  C   UNL     1      34.244  -1.356  17.382  0.00  0.00    +0.000 C 
ATOM     14  C   UNL     1      35.609   0.701  16.943  0.00  0.00    +0.000 A 
ATOM     15  C   UNL     1      36.558   1.389  16.221  0.00  0.00    +0.000 A 
ATOM     16  C   UNL     1      37.152   0.740  15.164  0.00  0.00    +0.000 A 
ENDBRANCH   8  15
ENDBRANCH   1   8
BRANCH   2  17
ATOM     17  S   UNL     1      39.218   4.799  16.270  0.00  0.00    +0.000 S 
BRANCH  17  18
ATOM     18  C   UNL     1      39.131   5.864  17.697  0.00  0.00    +0.000 A 
ATOM     19  C   UNL     1      38.168   6.854  17.744  0.00  0.00    +0.000 A 
ATOM     20  C   UNL     1      38.062   7.705  18.833  0.00  0.00    +0.000 A 
ATOM     21  C   UNL     1      38.919   7.589  19.910  0.00  0.00    +0.000 A 
ATOM     22  C   UNL     1      39.897   6.595  19.882  0.00  0.00    +0.000 A 
ATOM     23  C   UNL     1      39.980   5.756  18.776  0.00  0.00    +0.000 A 
ENDBRANCH  17  18
ENDBRANCH   2  17
BRANCH   5  24
ATOM     24  C   UNL     1      34.772   5.961  13.345  0.00  0.00    +0.000 C 
BRANCH  24  25
ATOM     25  C   UNL     1      33.755   6.775  14.121  0.00  0.00    +0.000 C 
BRANCH  25  26
ATOM     26  C   UNL     1      34.012   8.208  13.893  0.00  0.00    +0.000 A 
ATOM     27  C   UNL     1      34.437   8.626  12.657  0.00  0.00    +0.000 A 
ATOM     28  C   UNL     1      34.684   9.969  12.421  0.00  0.00    +0.000 A 
ATOM     29  C   UNL     1      34.506  10.884  13.416  0.00  0.00    +0.000 A 
ATOM     30  C   UNL     1      34.082  10.467  14.649  0.00  0.00    +0.000 A 
ATOM     31  C   UNL     1      33.830   9.124  14.899  0.00  0.00    +0.000 A 
ENDBRANCH  25  26
ENDBRANCH  24  25
ENDBRANCH   5  24
TORSDOF 7
ENDMDL
MODEL 9
REMARK VINA RESULT:      -7.0      1.922      3.995
REMARK  Name = 
REMARK  7 active torsions:
REMARK  status: ('A' for Active; 'I' for Inactive)
REMARK    1  A    between atoms: C_7  and  N_8
REMARK    2  A    between atoms: N_8  and  C_9
REMARK    3  A    between atoms: C_10  and  S_11
REMARK    4  A    between atoms: S_11  and  C_12
REMARK    5  A    between atoms: N_20  and  C_21
REMARK    6  A    between atoms: C_21  and  C_22
REMARK    7  A    between atoms: C_22  and  C_23
REMARK                            x       y       z     vdW  Elec       q    Type
REMARK                         _______ _______ _______ _____ _____    ______ ____
ROOT
ATOM      1  C   UNL     1      36.799   1.863  14.007  0.00  0.00    +0.000 C 
ATOM      2  C   UNL     1      36.502   1.556  15.256  0.00  0.00    +0.000 C 
ATOM      3  C   UNL     1      36.891   2.696  16.064  0.00  0.00    +0.000 C 
ATOM      4  O   UNL     1      36.767   2.784  17.308  0.00  0.00    +0.000 OA
ATOM      5  N   UNL     1      37.437   3.700  15.230  0.00  0.00    +0.000 N 
ATOM      6  C   UNL     1      37.388   3.189  13.903  0.00  0.00    +0.000 C 
ATOM      7  O   UNL     1      37.787   3.790  12.856  0.00  0.00    +0.000 OA
ENDROOT
BRANCH   1   8
ATOM      8  N   UNL     1      36.557   0.977  12.913  0.00  0.00    +0.000 NA
BRANCH   8  15
ATOM      9  C   UNL     1      39.548   1.088   8.925  0.00  0.00    +0.000 C 
ATOM     10  C   UNL     1      39.071   0.493  10.200  0.00  0.00    +0.000 A 
ATOM     11  C   UNL     1      39.693  -0.648  10.656  0.00  0.00    +0.000 A 
ATOM     12  C   UNL     1      39.301  -1.243  11.822  0.00  0.00    +0.000 A 
ATOM     13  C   UNL     1      39.987  -2.474  12.299  0.00  0.00    +0.000 C 
ATOM     14  C   UNL     1      38.251  -0.684  12.561  0.00  0.00    +0.000 A 
ATOM     15  C   UNL     1      37.615   0.455  12.122  0.00  0.00    +0.000 A 
ATOM     16  C   UNL     1      38.048   1.015  10.943  0.00  0.00    +0.000 A 
ENDBRANCH   8  15
ENDBRANCH   1   8
BRANCH   2  17
ATOM     17  S   UNL     1      35.756   0.010  15.815  0.00  0.00    +0.000 S 
BRANCH  17  18
ATOM     18  C   UNL     1      37.024  -1.243  15.781  0.00  0.00    +0.000 A 
ATOM     19  C   UNL     1      36.699  -2.523  15.375  0.00  0.00    +0.000 A 
ATOM     20  C   UNL     1      37.653  -3.529  15.332  0.00  0.00    +0.000 A 
ATOM     21  C   UNL     1      38.962  -3.282  15.696  0.00  0.00    +0.000 A 
ATOM     22  C   UNL     1      39.309  -1.995  16.109  0.00  0.00    +0.000 A 
ATOM     23  C   UNL     1      38.332  -1.007  16.141  0.00  0.00    +0.000 A 
ENDBRANCH  17  18
ENDBRANCH   2  17
BRANCH   5  24
ATOM     24  C   UNL     1      37.945   4.995  15.646  0.00  0.00    +0.000 C 
BRANCH  24  25
ATOM     25  C   UNL     1      39.459   4.969  15.733  0.00  0.00    +0.000 C 
BRANCH  25  26
ATOM     26  C   UNL     1      39.876   5.539  17.027  0.00  0.00    +0.000 A 
ATOM     27  C   UNL     1      41.100   6.152  17.127  0.00  0.00    +0.000 A 
ATOM     28  C   UNL     1      41.511   6.695  18.334  0.00  0.00    +0.000 A 
ATOM     29  C   UNL     1      40.704   6.622  19.429  0.00  0.00    +0.000 A 
ATOM     30  C   UNL     1      39.483   6.011  19.329  0.00  0.00    +0.000 A 
ATOM     31  C   UNL     1      39.058   5.463  18.125  0.00  0.00    +0.000 A 
ENDBRANCH  25  26
ENDBRANCH  24  25
ENDBRANCH   5  24
TORSDOF 7
ENDMDL
MODEL 10
REMARK VINA RESULT:      -7.0      1.800      3.757
REMARK  Name = 
REMARK  7 active torsions:
REMARK  status: ('A' for Active; 'I' for Inactive)
REMARK    1  A    between atoms: C_7  and  N_8
REMARK    2  A    between atoms: N_8  and  C_9
REMARK    3  A    between atoms: C_10  and  S_11
REMARK    4  A    between atoms: S_11  and  C_12
REMARK    5  A    between atoms: N_20  and  C_21
REMARK    6  A    between atoms: C_21  and  C_22
REMARK    7  A    between atoms: C_22  and  C_23
REMARK                            x       y       z     vdW  Elec       q    Type
REMARK                         _______ _______ _______ _____ _____    ______ ____
ROOT
ATOM      1  C   UNL     1      38.670   3.002  14.276  0.00  0.00    +0.000 C 
ATOM      2  C   UNL     1      37.687   2.415  14.934  0.00  0.00    +0.000 C 
ATOM      3  C   UNL     1      37.611   3.066  16.229  0.00  0.00    +0.000 C 
ATOM      4  O   UNL     1      36.798   2.784  17.139  0.00  0.00    +0.000 OA
ATOM      5  N   UNL     1      38.603   4.072  16.308  0.00  0.00    +0.000 N 
ATOM      6  C   UNL     1      39.296   4.051  15.065  0.00  0.00    +0.000 C 
ATOM      7  O   UNL     1      40.264   4.807  14.738  0.00  0.00    +0.000 OA
ENDROOT
BRANCH   1   8
ATOM      8  N   UNL     1      39.046   2.628  12.950  0.00  0.00    +0.000 NA
BRANCH   8  15
ATOM      9  C   UNL     1      42.726  -0.496  14.202  0.00  0.00    +0.000 C 
ATOM     10  C   UNL     1      41.663  -0.010  13.286  0.00  0.00    +0.000 A 
ATOM     11  C   UNL     1      41.468  -0.686  12.101  0.00  0.00    +0.000 A 
ATOM     12  C   UNL     1      40.506  -0.289  11.216  0.00  0.00    +0.000 A 
ATOM     13  C   UNL     1      40.312  -1.033   9.942  0.00  0.00    +0.000 C 
ATOM     14  C   UNL     1      39.707   0.820  11.518  0.00  0.00    +0.000 A 
ATOM     15  C   UNL     1      39.885   1.510  12.697  0.00  0.00    +0.000 A 
ATOM     16  C   UNL     1      40.867   1.070  13.553  0.00  0.00    +0.000 A 
ENDBRANCH   8  15
ENDBRANCH   1   8
BRANCH   2  17
ATOM     17  S   UNL     1      36.656   1.070  14.313  0.00  0.00    +0.000 S 
BRANCH  17  18
ATOM     18  C   UNL     1      37.623  -0.426  14.383  0.00  0.00    +0.000 A 
ATOM     19  C   UNL     1      38.436  -0.655  15.477  0.00  0.00    +0.000 A 
ATOM     20  C   UNL     1      39.205  -1.804  15.574  0.00  0.00    +0.000 A 
ATOM     21  C   UNL     1      39.184  -2.760  14.577  0.00  0.00    +0.000 A 
ATOM     22  C   UNL     1      38.369  -2.546  13.465  0.00  0.00    +0.000 A 
ATOM     23  C   UNL     1      37.609  -1.384  13.394  0.00  0.00    +0.000 A 
ENDBRANCH  17  18
ENDBRANCH   2  17
BRANCH   5  24
ATOM     24  C   UNL     1      38.861   4.951  17.435  0.00  0.00    +0.000 C 
BRANCH  24  25
ATOM     25  C   UNL     1      38.153   6.279  17.248  0.00  0.00    +0.000 C 
BRANCH  25  26
ATOM     26  C   UNL     1      38.296   7.077  18.478  0.00  0.00    +0.000 A 
ATOM     27  C   UNL     1      37.441   8.128  18.699  0.00  0.00    +0.000 A 
ATOM     28  C   UNL     1      37.557   8.892  19.850  0.00  0.00    +0.000 A 
ATOM     29  C   UNL     1      38.521   8.604  20.769  0.00  0.00    +0.000 A 
ATOM     30  C   UNL     1      39.373   7.556  20.549  0.00  0.00    +0.000 A 
ATOM     31  C   UNL     1      39.268   6.781  19.400  0.00  0.00    +0.000 A 
ENDBRANCH  25  26
ENDBRANCH  24  25
ENDBRANCH   5  24
TORSDOF 7
ENDMDL
