MODEL 1
REMARK VINA RESULT:      -5.9      0.000      0.000
REMARK  Name = 
REMARK  5 active torsions:
REMARK  status: ('A' for Active; 'I' for Inactive)
REMARK    1  A    between atoms: C_2  and  C_3
REMARK    2  A    between atoms: C_3  and  C_4
REMARK    3  A    between atoms: C_3  and  C_11
REMARK    4  A    between atoms: C_11  and  C_12
REMARK    5  A    between atoms: C_11  and  C_14
REMARK                            x       y       z     vdW  Elec       q    Type
REMARK                         _______ _______ _______ _____ _____    ______ ____
ROOT
ATOM      1  C   UNL     1      35.206   4.278  35.368  0.00  0.00    +0.000 C 
ENDROOT
BRANCH   1   2
ATOM      2  C   UNL     1      35.146   5.797  35.665  0.00  0.00    +0.000 A 
ATOM      3  C   UNL     1      36.112   6.548  35.041  0.00  0.00    +0.000 A 
ATOM      4  C   UNL     1      36.167   7.943  35.228  0.00  0.00    +0.000 A 
ATOM      5  C   UNL     1      35.243   8.559  36.046  0.00  0.00    +0.000 A 
ATOM      6  C   UNL     1      35.283  10.055  36.262  0.00  0.00    +0.000 C 
ATOM      7  C   UNL     1      34.282   7.786  36.663  0.00  0.00    +0.000 A 
ATOM      8  C   UNL     1      34.250   6.396  36.459  0.00  0.00    +0.000 A 
ENDBRANCH   1   2
BRANCH   1  10
ATOM      9  C   UNL     1      36.544   3.734  37.453  0.00  0.00    +0.000 C 
ATOM     10  C   UNL     1      35.196   3.717  36.873  0.00  0.00    +0.000 C 
ENDBRANCH   1  10
BRANCH   1  11
ATOM     11  C   UNL     1      33.545   4.091  35.165  0.00  0.00    +0.000 C 
BRANCH  11  12
ATOM     12  C   UNL     1      33.664   2.599  34.716  0.00  0.00    +0.000 A 
ATOM     13  C   UNL     1      33.642   1.537  35.506  0.00  0.00    +0.000 A 
ATOM     14  C   UNL     1      33.757   0.273  34.990  0.00  0.00    +0.000 A 
ATOM     15  C   UNL     1      33.897   0.072  33.640  0.00  0.00    +0.000 A 
ATOM     16  O   UNL     1      34.015  -1.241  33.123  0.00  0.00    +0.000 OA
ATOM     17  C   UNL     1      33.923   1.157  32.798  0.00  0.00    +0.000 A 
ATOM     18  C   UNL     1      33.804   2.437  33.355  0.00  0.00    +0.000 A 
ENDBRANCH  11  12
BRANCH  11  19
ATOM     19  C   UNL     1      33.528   4.794  33.712  0.00  0.00    +0.000 C 
ATOM     20  C   UNL     1      32.156   5.459  33.745  0.00  0.00    +0.000 C 
ENDBRANCH  11  19
ENDBRANCH   1  11
TORSDOF 5
ENDMDL
MODEL 2
REMARK VINA RESULT:      -5.9     15.971     18.217
REMARK  Name = 
REMARK  5 active torsions:
REMARK  status: ('A' for Active; 'I' for Inactive)
REMARK    1  A    between atoms: C_2  and  C_3
REMARK    2  A    between atoms: C_3  and  C_4
REMARK    3  A    between atoms: C_3  and  C_11
REMARK    4  A    between atoms: C_11  and  C_12
REMARK    5  A    between atoms: C_11  and  C_14
REMARK                            x       y       z     vdW  Elec       q    Type
REMARK                         _______ _______ _______ _____ _____    ______ ____
ROOT
ATOM      1  C   UNL     1      18.596  11.293  38.027  0.00  0.00    +0.000 C 
ENDROOT
BRANCH   1   2
ATOM      2  C   UNL     1      20.002  10.643  37.999  0.00  0.00    +0.000 A 
ATOM      3  C   UNL     1      20.432  10.141  39.203  0.00  0.00    +0.000 A 
ATOM      4  C   UNL     1      21.693   9.524  39.312  0.00  0.00    +0.000 A 
ATOM      5  C   UNL     1      22.504   9.426  38.201  0.00  0.00    +0.000 A 
ATOM      6  C   UNL     1      23.862   8.767  38.295  0.00  0.00    +0.000 C 
ATOM      7  C   UNL     1      22.052   9.936  37.003  0.00  0.00    +0.000 A 
ATOM      8  C   UNL     1      20.789  10.547  36.921  0.00  0.00    +0.000 A 
ENDBRANCH   1   2
BRANCH   1  10
ATOM      9  C   UNL     1      19.778  13.448  38.651  0.00  0.00    +0.000 C 
ATOM     10  C   UNL     1      18.992  12.790  37.600  0.00  0.00    +0.000 C 
ENDBRANCH   1  10
BRANCH   1  11
ATOM     11  C   UNL     1      18.180  10.835  36.460  0.00  0.00    +0.000 C 
BRANCH  11  12
ATOM     12  C   UNL     1      16.698  11.310  36.605  0.00  0.00    +0.000 A 
ATOM     13  C   UNL     1      15.891  11.064  37.625  0.00  0.00    +0.000 A 
ATOM     14  C   UNL     1      14.606  11.538  37.635  0.00  0.00    +0.000 A 
ATOM     15  C   UNL     1      14.118  12.280  36.589  0.00  0.00    +0.000 A 
ATOM     16  O   UNL     1      12.787  12.762  36.615  0.00  0.00    +0.000 OA
ATOM     17  C   UNL     1      14.935  12.549  35.517  0.00  0.00    +0.000 A 
ATOM     18  C   UNL     1      16.244  12.051  35.535  0.00  0.00    +0.000 A 
ENDBRANCH  11  12
BRANCH  11  19
ATOM     19  C   UNL     1      17.988   9.278  36.844  0.00  0.00    +0.000 C 
ATOM     20  C   UNL     1      17.831   8.671  35.454  0.00  0.00    +0.000 C 
ENDBRANCH  11  19
ENDBRANCH   1  11
TORSDOF 5
ENDMDL
MODEL 3
REMARK VINA RESULT:      -5.9     20.942     23.985
REMARK  Name = 
REMARK  5 active torsions:
REMARK  status: ('A' for Active; 'I' for Inactive)
REMARK    1  A    between atoms: C_2  and  C_3
REMARK    2  A    between atoms: C_3  and  C_4
REMARK    3  A    between atoms: C_3  and  C_11
REMARK    4  A    between atoms: C_11  and  C_12
REMARK    5  A    between atoms: C_11  and  C_14
REMARK                            x       y       z     vdW  Elec       q    Type
REMARK                         _______ _______ _______ _____ _____    ______ ____
ROOT
ATOM      1  C   UNL     1      27.529  23.525  24.777  0.00  0.00    +0.000 C 
ENDROOT
BRANCH   1   2
ATOM      2  C   UNL     1      27.305  23.240  26.283  0.00  0.00    +0.000 A 
ATOM      3  C   UNL     1      26.319  23.993  26.874  0.00  0.00    +0.000 A 
ATOM      4  C   UNL     1      26.015  23.831  28.239  0.00  0.00    +0.000 A 
ATOM      5  C   UNL     1      26.715  22.909  28.990  0.00  0.00    +0.000 A 
ATOM      6  C   UNL     1      26.407  22.718  30.458  0.00  0.00    +0.000 C 
ATOM      7  C   UNL     1      27.700  22.164  28.377  0.00  0.00    +0.000 A 
ATOM      8  C   UNL     1      27.983  22.346  27.012  0.00  0.00    +0.000 A 
ENDBRANCH   1   2
BRANCH   1  10
ATOM      9  C   UNL     1      25.488  23.125  23.325  0.00  0.00    +0.000 C 
ATOM     10  C   UNL     1      26.044  23.987  24.375  0.00  0.00    +0.000 C 
ENDBRANCH   1  10
BRANCH   1  11
ATOM     11  C   UNL     1      28.083  25.100  24.995  0.00  0.00    +0.000 C 
BRANCH  11  12
ATOM     12  C   UNL     1      28.572  25.242  23.518  0.00  0.00    +0.000 A 
ATOM     13  C   UNL     1      29.014  24.267  22.740  0.00  0.00    +0.000 A 
ATOM     14  C   UNL     1      29.417  24.519  21.455  0.00  0.00    +0.000 A 
ATOM     15  C   UNL     1      29.373  25.790  20.938  0.00  0.00    +0.000 A 
ATOM     16  O   UNL     1      29.794  26.033  19.608  0.00  0.00    +0.000 OA
ATOM     17  C   UNL     1      28.919  26.820  21.725  0.00  0.00    +0.000 A 
ATOM     18  C   UNL     1      28.515  26.531  23.035  0.00  0.00    +0.000 A 
ENDBRANCH  11  12
BRANCH  11  19
ATOM     19  C   UNL     1      29.470  24.639  25.681  0.00  0.00    +0.000 C 
ATOM     20  C   UNL     1      29.781  25.868  26.526  0.00  0.00    +0.000 C 
ENDBRANCH  11  19
ENDBRANCH   1  11
TORSDOF 5
ENDMDL
MODEL 4
REMARK VINA RESULT:      -5.8     17.224     19.801
REMARK  Name = 
REMARK  5 active torsions:
REMARK  status: ('A' for Active; 'I' for Inactive)
REMARK    1  A    between atoms: C_2  and  C_3
REMARK    2  A    between atoms: C_3  and  C_4
REMARK    3  A    between atoms: C_3  and  C_11
REMARK    4  A    between atoms: C_11  and  C_12
REMARK    5  A    between atoms: C_11  and  C_14
REMARK                            x       y       z     vdW  Elec       q    Type
REMARK                         _______ _______ _______ _____ _____    ______ ____
ROOT
ATOM      1  C   UNL     1      16.270  10.269  35.096  0.00  0.00    +0.000 C 
ENDROOT
BRANCH   1   2
ATOM      2  C   UNL     1      15.767  10.703  33.697  0.00  0.00    +0.000 A 
ATOM      3  C   UNL     1      16.469  11.735  33.124  0.00  0.00    +0.000 A 
ATOM      4  C   UNL     1      16.114  12.224  31.852  0.00  0.00    +0.000 A 
ATOM      5  C   UNL     1      15.050  11.663  31.177  0.00  0.00    +0.000 A 
ATOM      6  C   UNL     1      14.650  12.172  29.810  0.00  0.00    +0.000 C 
ATOM      7  C   UNL     1      14.359  10.628  31.771  0.00  0.00    +0.000 A 
ATOM      8  C   UNL     1      14.735  10.159  33.041  0.00  0.00    +0.000 A 
ENDBRANCH   1   2
BRANCH   1  10
ATOM      9  C   UNL     1      18.301   8.750  35.059  0.00  0.00    +0.000 C 
ATOM     10  C   UNL     1      17.835  10.113  34.773  0.00  0.00    +0.000 C 
ENDBRANCH   1  10
BRANCH   1  11
ATOM     11  C   UNL     1      16.433  11.834  35.697  0.00  0.00    +0.000 C 
BRANCH  11  12
ATOM     12  C   UNL     1      17.224  11.374  36.964  0.00  0.00    +0.000 A 
ATOM     13  C   UNL     1      18.434  11.773  37.322  0.00  0.00    +0.000 A 
ATOM     14  C   UNL     1      19.025  11.295  38.461  0.00  0.00    +0.000 A 
ATOM     15  C   UNL     1      18.379  10.388  39.265  0.00  0.00    +0.000 A 
ATOM     16  O   UNL     1      19.003   9.903  40.439  0.00  0.00    +0.000 OA
ATOM     17  C   UNL     1      17.121   9.957  38.915  0.00  0.00    +0.000 A 
ATOM     18  C   UNL     1      16.544  10.464  37.744  0.00  0.00    +0.000 A 
ENDBRANCH  11  12
BRANCH  11  19
ATOM     19  C   UNL     1      14.945  11.870  36.324  0.00  0.00    +0.000 C 
ATOM     20  C   UNL     1      14.386  13.107  35.630  0.00  0.00    +0.000 C 
ENDBRANCH  11  19
ENDBRANCH   1  11
TORSDOF 5
ENDMDL
MODEL 5
REMARK VINA RESULT:      -5.8     20.629     23.945
REMARK  Name = 
REMARK  5 active torsions:
REMARK  status: ('A' for Active; 'I' for Inactive)
REMARK    1  A    between atoms: C_2  and  C_3
REMARK    2  A    between atoms: C_3  and  C_4
REMARK    3  A    between atoms: C_3  and  C_11
REMARK    4  A    between atoms: C_11  and  C_12
REMARK    5  A    between atoms: C_11  and  C_14
REMARK                            x       y       z     vdW  Elec       q    Type
REMARK                         _______ _______ _______ _____ _____    ______ ____
ROOT
ATOM      1  C   UNL     1      27.046  24.584  24.732  0.00  0.00    +0.000 C 
ENDROOT
BRANCH   1   2
ATOM      2  C   UNL     1      27.799  25.043  23.459  0.00  0.00    +0.000 A 
ATOM      3  C   UNL     1      27.475  26.303  23.018  0.00  0.00    +0.000 A 
ATOM      4  C   UNL     1      28.089  26.840  21.870  0.00  0.00    +0.000 A 
ATOM      5  C   UNL     1      29.022  26.094  21.182  0.00  0.00    +0.000 A 
ATOM      6  C   UNL     1      29.695  26.649  19.947  0.00  0.00    +0.000 C 
ATOM      7  C   UNL     1      29.333  24.831  21.642  0.00  0.00    +0.000 A 
ATOM      8  C   UNL     1      28.705  24.320  22.791  0.00  0.00    +0.000 A 
ENDBRANCH   1   2
BRANCH   1  10
ATOM      9  C   UNL     1      25.276  23.145  23.622  0.00  0.00    +0.000 C 
ATOM     10  C   UNL     1      26.600  23.116  24.256  0.00  0.00    +0.000 C 
ENDBRANCH   1  10
BRANCH   1  11
ATOM     11  C   UNL     1      28.419  24.030  25.536  0.00  0.00    +0.000 C 
BRANCH  11  12
ATOM     12  C   UNL     1      27.655  23.764  26.872  0.00  0.00    +0.000 A 
ATOM     13  C   UNL     1      26.629  24.456  27.341  0.00  0.00    +0.000 A 
ATOM     14  C   UNL     1      26.040  24.123  28.533  0.00  0.00    +0.000 A 
ATOM     15  C   UNL     1      26.498  23.062  29.274  0.00  0.00    +0.000 A 
ATOM     16  O   UNL     1      25.879  22.732  30.504  0.00  0.00    +0.000 OA
ATOM     17  C   UNL     1      27.563  22.328  28.810  0.00  0.00    +0.000 A 
ATOM     18  C   UNL     1      28.143  22.693  27.589  0.00  0.00    +0.000 A 
ENDBRANCH  11  12
BRANCH  11  19
ATOM     19  C   UNL     1      28.973  25.514  25.849  0.00  0.00    +0.000 C 
ATOM     20  C   UNL     1      30.457  25.218  26.037  0.00  0.00    +0.000 C 
ENDBRANCH  11  19
ENDBRANCH   1  11
TORSDOF 5
ENDMDL
MODEL 6
REMARK VINA RESULT:      -5.8     20.469     23.577
REMARK  Name = 
REMARK  5 active torsions:
REMARK  status: ('A' for Active; 'I' for Inactive)
REMARK    1  A    between atoms: C_2  and  C_3
REMARK    2  A    between atoms: C_3  and  C_4
REMARK    3  A    between atoms: C_3  and  C_11
REMARK    4  A    between atoms: C_11  and  C_12
REMARK    5  A    between atoms: C_11  and  C_14
REMARK                            x       y       z     vdW  Elec       q    Type
REMARK                         _______ _______ _______ _____ _____    ______ ____
ROOT
ATOM      1  C   UNL     1      29.274  24.226  25.416  0.00  0.00    +0.000 C 
ENDROOT
BRANCH   1   2
ATOM      2  C   UNL     1      28.700  23.698  26.754  0.00  0.00    +0.000 A 
ATOM      3  C   UNL     1      28.200  22.420  26.705  0.00  0.00    +0.000 A 
ATOM      4  C   UNL     1      27.649  21.822  27.855  0.00  0.00    +0.000 A 
ATOM      5  C   UNL     1      27.611  22.527  29.040  0.00  0.00    +0.000 A 
ATOM      6  C   UNL     1      27.024  21.905  30.287  0.00  0.00    +0.000 C 
ATOM      7  C   UNL     1      28.119  23.808  29.066  0.00  0.00    +0.000 A 
ATOM      8  C   UNL     1      28.663  24.381  27.904  0.00  0.00    +0.000 A 
ENDBRANCH   1   2
BRANCH   1  10
ATOM      9  C   UNL     1      31.416  23.118  24.628  0.00  0.00    +0.000 C 
ATOM     10  C   UNL     1      29.990  22.887  24.893  0.00  0.00    +0.000 C 
ENDBRANCH   1  10
BRANCH   1  11
ATOM     11  C   UNL     1      27.869  23.959  24.526  0.00  0.00    +0.000 C 
BRANCH  11  12
ATOM     12  C   UNL     1      28.449  24.603  23.225  0.00  0.00    +0.000 A 
ATOM     13  C   UNL     1      28.569  24.016  22.045  0.00  0.00    +0.000 A 
ATOM     14  C   UNL     1      29.096  24.689  20.974  0.00  0.00    +0.000 A 
ATOM     15  C   UNL     1      29.513  25.991  21.095  0.00  0.00    +0.000 A 
ATOM     16  O   UNL     1      30.056  26.673  19.979  0.00  0.00    +0.000 OA
ATOM     17  C   UNL     1      29.400  26.623  22.310  0.00  0.00    +0.000 A 
ATOM     18  C   UNL     1      28.858  25.909  23.385  0.00  0.00    +0.000 A 
ENDBRANCH  11  12
BRANCH  11  19
ATOM     19  C   UNL     1      27.106  25.247  25.130  0.00  0.00    +0.000 C 
ATOM     20  C   UNL     1      25.655  24.828  24.923  0.00  0.00    +0.000 C 
ENDBRANCH  11  19
ENDBRANCH   1  11
TORSDOF 5
ENDMDL
MODEL 7
REMARK VINA RESULT:      -5.7     15.149     17.509
REMARK  Name = 
REMARK  5 active torsions:
REMARK  status: ('A' for Active; 'I' for Inactive)
REMARK    1  A    between atoms: C_2  and  C_3
REMARK    2  A    between atoms: C_3  and  C_4
REMARK    3  A    between atoms: C_3  and  C_11
REMARK    4  A    between atoms: C_11  and  C_12
REMARK    5  A    between atoms: C_11  and  C_14
REMARK                            x       y       z     vdW  Elec       q    Type
REMARK                         _______ _______ _______ _____ _____    ______ ____
ROOT
ATOM      1  C   UNL     1      18.671   9.949  37.307  0.00  0.00    +0.000 C 
ENDROOT
BRANCH   1   2
ATOM      2  C   UNL     1      17.361  10.739  37.066  0.00  0.00    +0.000 A 
ATOM      3  C   UNL     1      16.361  10.493  37.975  0.00  0.00    +0.000 A 
ATOM      4  C   UNL     1      15.119  11.148  37.870  0.00  0.00    +0.000 A 
ATOM      5  C   UNL     1      14.905  12.043  36.843  0.00  0.00    +0.000 A 
ATOM      6  C   UNL     1      13.579  12.759  36.709  0.00  0.00    +0.000 C 
ATOM      7  C   UNL     1      15.922  12.275  35.941  0.00  0.00    +0.000 A 
ATOM      8  C   UNL     1      17.152  11.608  36.070  0.00  0.00    +0.000 A 
ENDBRANCH   1   2
BRANCH   1  10
ATOM      9  C   UNL     1      17.853   8.533  35.367  0.00  0.00    +0.000 C 
ATOM     10  C   UNL     1      18.935   9.420  35.813  0.00  0.00    +0.000 C 
ENDBRANCH   1  10
BRANCH   1  11
ATOM     11  C   UNL     1      19.691  11.279  37.138  0.00  0.00    +0.000 C 
BRANCH  11  12
ATOM     12  C   UNL     1      20.975  10.472  37.516  0.00  0.00    +0.000 A 
ATOM     13  C   UNL     1      22.024  10.256  36.740  0.00  0.00    +0.000 A 
ATOM     14  C   UNL     1      23.095   9.529  37.188  0.00  0.00    +0.000 A 
ATOM     15  C   UNL     1      23.110   9.003  38.456  0.00  0.00    +0.000 A 
ATOM     16  O   UNL     1      24.223   8.253  38.904  0.00  0.00    +0.000 OA
ATOM     17  C   UNL     1      22.032   9.211  39.283  0.00  0.00    +0.000 A 
ATOM     18  C   UNL     1      20.952   9.959  38.795  0.00  0.00    +0.000 A 
ENDBRANCH  11  12
BRANCH  11  19
ATOM     19  C   UNL     1      19.331  11.883  38.591  0.00  0.00    +0.000 C 
ATOM     20  C   UNL     1      19.710  13.344  38.382  0.00  0.00    +0.000 C 
ENDBRANCH  11  19
ENDBRANCH   1  11
TORSDOF 5
ENDMDL
MODEL 8
REMARK VINA RESULT:      -5.7     21.051     23.659
REMARK  Name = 
REMARK  5 active torsions:
REMARK  status: ('A' for Active; 'I' for Inactive)
REMARK    1  A    between atoms: C_2  and  C_3
REMARK    2  A    between atoms: C_3  and  C_4
REMARK    3  A    between atoms: C_3  and  C_11
REMARK    4  A    between atoms: C_11  and  C_12
REMARK    5  A    between atoms: C_11  and  C_14
REMARK                            x       y       z     vdW  Elec       q    Type
REMARK                         _______ _______ _______ _____ _____    ______ ____
ROOT
ATOM      1  C   UNL     1      28.114  24.363  26.375  0.00  0.00    +0.000 C 
ENDROOT
BRANCH   1   2
ATOM      2  C   UNL     1      27.404  24.586  27.733  0.00  0.00    +0.000 A 
ATOM      3  C   UNL     1      27.914  25.611  28.492  0.00  0.00    +0.000 A 
ATOM      4  C   UNL     1      27.358  25.918  29.748  0.00  0.00    +0.000 A 
ATOM      5  C   UNL     1      26.293  25.181  30.222  0.00  0.00    +0.000 A 
ATOM      6  C   UNL     1      25.679  25.493  31.569  0.00  0.00    +0.000 C 
ATOM      7  C   UNL     1      25.796  24.157  29.444  0.00  0.00    +0.000 A 
ATOM      8  C   UNL     1      26.370  23.871  28.194  0.00  0.00    +0.000 A 
ENDBRANCH   1   2
BRANCH   1  10
ATOM      9  C   UNL     1      29.562  22.291  26.587  0.00  0.00    +0.000 C 
ATOM     10  C   UNL     1      28.186  22.758  26.379  0.00  0.00    +0.000 C 
ENDBRANCH   1  10
BRANCH   1  11
ATOM     11  C   UNL     1      26.706  24.411  25.451  0.00  0.00    +0.000 C 
BRANCH  11  12
ATOM     12  C   UNL     1      27.475  24.379  24.091  0.00  0.00    +0.000 A 
ATOM     13  C   UNL     1      27.200  23.608  23.052  0.00  0.00    +0.000 A 
ATOM     14  C   UNL     1      27.952  23.673  21.909  0.00  0.00    +0.000 A 
ATOM     15  C   UNL     1      29.013  24.539  21.809  0.00  0.00    +0.000 A 
ATOM     16  O   UNL     1      29.780  24.593  20.621  0.00  0.00    +0.000 OA
ATOM     17  C   UNL     1      29.320  25.350  22.875  0.00  0.00    +0.000 A 
ATOM     18  C   UNL     1      28.532  25.261  24.030  0.00  0.00    +0.000 A 
ENDBRANCH  11  12
BRANCH  11  19
ATOM     19  C   UNL     1      26.525  26.008  25.605  0.00  0.00    +0.000 C 
ATOM     20  C   UNL     1      25.050  26.152  25.248  0.00  0.00    +0.000 C 
ENDBRANCH  11  19
ENDBRANCH   1  11
TORSDOF 5
ENDMDL
MODEL 9
REMARK VINA RESULT:      -5.7     14.854     16.812
REMARK  Name = 
REMARK  5 active torsions:
REMARK  status: ('A' for Active; 'I' for Inactive)
REMARK    1  A    between atoms: C_2  and  C_3
REMARK    2  A    between atoms: C_3  and  C_4
REMARK    3  A    between atoms: C_3  and  C_11
REMARK    4  A    between atoms: C_11  and  C_12
REMARK    5  A    between atoms: C_11  and  C_14
REMARK                            x       y       z     vdW  Elec       q    Type
REMARK                         _______ _______ _______ _____ _____    ______ ____
ROOT
ATOM      1  C   UNL     1      19.364  10.243  38.689  0.00  0.00    +0.000 C 
ENDROOT
BRANCH   1   2
ATOM      2  C   UNL     1      20.747  10.543  38.059  0.00  0.00    +0.000 A 
ATOM      3  C   UNL     1      21.142   9.661  37.083  0.00  0.00    +0.000 A 
ATOM      4  C   UNL     1      22.379   9.822  36.430  0.00  0.00    +0.000 A 
ATOM      5  C   UNL     1      23.202  10.874  36.775  0.00  0.00    +0.000 A 
ATOM      6  C   UNL     1      24.535  11.067  36.088  0.00  0.00    +0.000 C 
ATOM      7  C   UNL     1      22.785  11.747  37.758  0.00  0.00    +0.000 A 
ATOM      8  C   UNL     1      21.546  11.563  38.393  0.00  0.00    +0.000 A 
ENDBRANCH   1   2
BRANCH   1  10
ATOM      9  C   UNL     1      17.478  10.288  36.993  0.00  0.00    +0.000 C 
ATOM     10  C   UNL     1      18.656   9.530  37.436  0.00  0.00    +0.000 C 
ENDBRANCH   1  10
BRANCH   1  11
ATOM     11  C   UNL     1      19.827   8.787  39.400  0.00  0.00    +0.000 C 
BRANCH  11  12
ATOM     12  C   UNL     1      18.473   8.609  40.159  0.00  0.00    +0.000 A 
ATOM     13  C   UNL     1      17.691   9.577  40.607  0.00  0.00    +0.000 A 
ATOM     14  C   UNL     1      16.522   9.292  41.261  0.00  0.00    +0.000 A 
ATOM     15  C   UNL     1      16.128   7.994  41.471  0.00  0.00    +0.000 A 
ATOM     16  O   UNL     1      14.918   7.716  42.150  0.00  0.00    +0.000 OA
ATOM     17  C   UNL     1      16.923   6.969  41.016  0.00  0.00    +0.000 A 
ATOM     18  C   UNL     1      18.113   7.292  40.351  0.00  0.00    +0.000 A 
ENDBRANCH  11  12
BRANCH  11  19
ATOM     19  C   UNL     1      20.684   9.499  40.569  0.00  0.00    +0.000 C 
ATOM     20  C   UNL     1      21.752   8.439  40.810  0.00  0.00    +0.000 C 
ENDBRANCH  11  19
ENDBRANCH   1  11
TORSDOF 5
ENDMDL
MODEL 10
REMARK VINA RESULT:      -5.6     18.906     21.501
REMARK  Name = 
REMARK  5 active torsions:
REMARK  status: ('A' for Active; 'I' for Inactive)
REMARK    1  A    between atoms: C_2  and  C_3
REMARK    2  A    between atoms: C_3  and  C_4
REMARK    3  A    between atoms: C_3  and  C_11
REMARK    4  A    between atoms: C_11  and  C_12
REMARK    5  A    between atoms: C_11  and  C_14
REMARK                            x       y       z     vdW  Elec       q    Type
REMARK                         _______ _______ _______ _____ _____    ______ ____
ROOT
ATOM      1  C   UNL     1      30.246  23.443  26.966  0.00  0.00    +0.000 C 
ENDROOT
BRANCH   1   2
ATOM      2  C   UNL     1      31.340  23.003  27.970  0.00  0.00    +0.000 A 
ATOM      3  C   UNL     1      32.123  24.021  28.456  0.00  0.00    +0.000 A 
ATOM      4  C   UNL     1      33.155  23.755  29.377  0.00  0.00    +0.000 A 
ATOM      5  C   UNL     1      33.382  22.459  29.792  0.00  0.00    +0.000 A 
ATOM      6  C   UNL     1      34.484  22.149  30.780  0.00  0.00    +0.000 C 
ATOM      7  C   UNL     1      32.584  21.452  29.291  0.00  0.00    +0.000 A 
ATOM      8  C   UNL     1      31.561  21.746  28.373  0.00  0.00    +0.000 A 
ENDBRANCH   1   2
BRANCH   1  10
ATOM      9  C   UNL     1      30.959  23.078  24.559  0.00  0.00    +0.000 C 
ATOM     10  C   UNL     1      30.536  22.392  25.786  0.00  0.00    +0.000 C 
ENDBRANCH   1  10
BRANCH   1  11
ATOM     11  C   UNL     1      29.021  22.511  27.650  0.00  0.00    +0.000 C 
BRANCH  11  12
ATOM     12  C   UNL     1      27.902  23.146  26.763  0.00  0.00    +0.000 A 
ATOM     13  C   UNL     1      27.037  22.494  26.004  0.00  0.00    +0.000 A 
ATOM     14  C   UNL     1      26.098  23.167  25.268  0.00  0.00    +0.000 A 
ATOM     15  C   UNL     1      26.027  24.537  25.298  0.00  0.00    +0.000 A 
ATOM     16  O   UNL     1      25.051  25.218  24.531  0.00  0.00    +0.000 OA
ATOM     17  C   UNL     1      26.915  25.239  26.077  0.00  0.00    +0.000 A 
ATOM     18  C   UNL     1      27.863  24.522  26.818  0.00  0.00    +0.000 A 
ENDBRANCH  11  12
BRANCH  11  19
ATOM     19  C   UNL     1      28.878  23.451  28.955  0.00  0.00    +0.000 C 
ATOM     20  C   UNL     1      28.037  22.549  29.851  0.00  0.00    +0.000 C 
ENDBRANCH  11  19
ENDBRANCH   1  11
TORSDOF 5
ENDMDL
