MODEL 1
REMARK VINA RESULT:      -6.5      0.000      0.000
REMARK  Name = 
REMARK  4 active torsions:
REMARK  status: ('A' for Active; 'I' for Inactive)
REMARK    1  A    between atoms: O_2  and  C_3
REMARK    2  A    between atoms: N_9  and  C_10
REMARK    3  A    between atoms: C_10  and  N_12
REMARK    4  A    between atoms: C_13  and  C_15
REMARK                            x       y       z     vdW  Elec       q    Type
REMARK                         _______ _______ _______ _____ _____    ______ ____
ROOT
ATOM      1  C   UNL     1      18.188  10.168  37.392  0.00  0.00    +0.000 C 
ATOM      2  S   UNL     1      17.405   9.938  38.789  0.00  0.00    +0.000 S 
ENDROOT
BRANCH   1   9
ATOM      3  C   UNL     1      23.014  10.556  37.668  0.00  0.00    +0.000 A 
ATOM      4  C   UNL     1      22.949  11.832  38.156  0.00  0.00    +0.000 A 
ATOM      5  C   UNL     1      21.704  12.426  38.351  0.00  0.00    +0.000 A 
ATOM      6  C   UNL     1      21.694  13.805  38.880  0.00  0.00    +0.000 C 
ATOM      7  N   UNL     1      20.622  11.716  38.049  0.00  0.00    +0.000 NA
ATOM      8  C   UNL     1      20.658  10.462  37.570  0.00  0.00    +0.000 A 
ATOM      9  N   UNL     1      19.506   9.704  37.248  0.00  0.00    +0.000 NA
ATOM     10  N   UNL     1      21.869   9.913  37.391  0.00  0.00    +0.000 NA
BRANCH   3  12
ATOM     11  C   UNL     1      25.078  10.273  36.387  0.00  0.00    +0.000 C 
ATOM     12  O   UNL     1      24.232   9.948  37.468  0.00  0.00    +0.000 OA
ENDBRANCH   3  12
ENDBRANCH   1   9
BRANCH   1  13
ATOM     13  N   UNL     1      17.545  10.830  36.335  0.00  0.00    +0.000 NA
ATOM     14  C   UNL     1      17.082  10.082  35.225  0.00  0.00    +0.000 C 
ATOM     15  O   UNL     1      17.265   8.839  35.224  0.00  0.00    +0.000 OA
BRANCH  14  16
ATOM     16  C   UNL     1      16.411  10.771  34.124  0.00  0.00    +0.000 A 
ATOM     17  C   UNL     1      15.487  11.769  34.331  0.00  0.00    +0.000 A 
ATOM     18  C   UNL     1      14.864  12.407  33.267  0.00  0.00    +0.000 A 
ATOM     19  C   UNL     1      15.171  12.040  31.963  0.00  0.00    +0.000 A 
ATOM     20  C   UNL     1      16.092  11.044  31.732  0.00  0.00    +0.000 A 
ATOM     21  C   UNL     1      16.693  10.431  32.820  0.00  0.00    +0.000 A 
ENDBRANCH  14  16
ENDBRANCH   1  13
TORSDOF 4
ENDMDL
MODEL 2
REMARK VINA RESULT:      -6.3      3.385      4.717
REMARK  Name = 
REMARK  4 active torsions:
REMARK  status: ('A' for Active; 'I' for Inactive)
REMARK    1  A    between atoms: O_2  and  C_3
REMARK    2  A    between atoms: N_9  and  C_10
REMARK    3  A    between atoms: C_10  and  N_12
REMARK    4  A    between atoms: C_13  and  C_15
REMARK                            x       y       z     vdW  Elec       q    Type
REMARK                         _______ _______ _______ _____ _____    ______ ____
ROOT
ATOM      1  C   UNL     1      19.184  10.251  37.794  0.00  0.00    +0.000 C 
ATOM      2  S   UNL     1      19.659  11.526  38.670  0.00  0.00    +0.000 S 
ENDROOT
BRANCH   1   9
ATOM      3  C   UNL     1      18.014   6.525  40.671  0.00  0.00    +0.000 A 
ATOM      4  C   UNL     1      16.965   7.202  41.230  0.00  0.00    +0.000 A 
ATOM      5  C   UNL     1      16.690   8.502  40.812  0.00  0.00    +0.000 A 
ATOM      6  C   UNL     1      15.547   9.185  41.450  0.00  0.00    +0.000 C 
ATOM      7  N   UNL     1      17.471   9.033  39.877  0.00  0.00    +0.000 NA
ATOM      8  C   UNL     1      18.506   8.391  39.311  0.00  0.00    +0.000 A 
ATOM      9  N   UNL     1      19.339   8.955  38.314  0.00  0.00    +0.000 NA
ATOM     10  N   UNL     1      18.750   7.140  39.731  0.00  0.00    +0.000 NA
BRANCH   3  12
ATOM     11  C   UNL     1      19.386   4.505  40.537  0.00  0.00    +0.000 C 
ATOM     12  O   UNL     1      18.305   5.240  41.067  0.00  0.00    +0.000 OA
ENDBRANCH   3  12
ENDBRANCH   1   9
BRANCH   1  13
ATOM     13  N   UNL     1      18.624  10.449  36.524  0.00  0.00    +0.000 NA
ATOM     14  C   UNL     1      17.256  10.800  36.414  0.00  0.00    +0.000 C 
ATOM     15  O   UNL     1      16.585  10.924  37.469  0.00  0.00    +0.000 OA
BRANCH  14  16
ATOM     16  C   UNL     1      16.671  11.008  35.090  0.00  0.00    +0.000 A 
ATOM     17  C   UNL     1      15.576  11.815  34.885  0.00  0.00    +0.000 A 
ATOM     18  C   UNL     1      15.041  11.994  33.617  0.00  0.00    +0.000 A 
ATOM     19  C   UNL     1      15.612  11.352  32.526  0.00  0.00    +0.000 A 
ATOM     20  C   UNL     1      16.708  10.539  32.708  0.00  0.00    +0.000 A 
ATOM     21  C   UNL     1      17.214  10.385  33.989  0.00  0.00    +0.000 A 
ENDBRANCH  14  16
ENDBRANCH   1  13
TORSDOF 4
ENDMDL
MODEL 3
REMARK VINA RESULT:      -6.0     18.309     21.052
REMARK  Name = 
REMARK  4 active torsions:
REMARK  status: ('A' for Active; 'I' for Inactive)
REMARK    1  A    between atoms: O_2  and  C_3
REMARK    2  A    between atoms: N_9  and  C_10
REMARK    3  A    between atoms: C_10  and  N_12
REMARK    4  A    between atoms: C_13  and  C_15
REMARK                            x       y       z     vdW  Elec       q    Type
REMARK                         _______ _______ _______ _____ _____    ______ ____
ROOT
ATOM      1  C   UNL     1      33.421  -4.511  34.550  0.00  0.00    +0.000 C 
ATOM      2  S   UNL     1      34.285  -5.106  35.782  0.00  0.00    +0.000 S 
ENDROOT
BRANCH   1   9
ATOM      3  C   UNL     1      31.109  -6.843  30.982  0.00  0.00    +0.000 A 
ATOM      4  C   UNL     1      32.077  -6.536  30.066  0.00  0.00    +0.000 A 
ATOM      5  C   UNL     1      33.181  -5.786  30.464  0.00  0.00    +0.000 A 
ATOM      6  C   UNL     1      34.195  -5.484  29.433  0.00  0.00    +0.000 C 
ATOM      7  N   UNL     1      33.243  -5.396  31.733  0.00  0.00    +0.000 NA
ATOM      8  C   UNL     1      32.307  -5.683  32.652  0.00  0.00    +0.000 A 
ATOM      9  N   UNL     1      32.373  -5.270  34.005  0.00  0.00    +0.000 NA
ATOM     10  N   UNL     1      31.254  -6.408  32.243  0.00  0.00    +0.000 NA
BRANCH   3  12
ATOM     11  C   UNL     1      28.965  -7.896  31.508  0.00  0.00    +0.000 C 
ATOM     12  O   UNL     1      30.009  -7.583  30.613  0.00  0.00    +0.000 OA
ENDBRANCH   3  12
ENDBRANCH   1   9
BRANCH   1  13
ATOM     13  N   UNL     1      33.727  -3.242  34.036  0.00  0.00    +0.000 NA
ATOM     14  C   UNL     1      32.950  -2.125  34.433  0.00  0.00    +0.000 C 
ATOM     15  O   UNL     1      32.005  -2.311  35.239  0.00  0.00    +0.000 OA
BRANCH  14  16
ATOM     16  C   UNL     1      33.269  -0.802  33.898  0.00  0.00    +0.000 A 
ATOM     17  C   UNL     1      32.677   0.347  34.368  0.00  0.00    +0.000 A 
ATOM     18  C   UNL     1      32.997   1.591  33.841  0.00  0.00    +0.000 A 
ATOM     19  C   UNL     1      33.932   1.691  32.820  0.00  0.00    +0.000 A 
ATOM     20  C   UNL     1      34.538   0.555  32.333  0.00  0.00    +0.000 A 
ATOM     21  C   UNL     1      34.192  -0.669  32.884  0.00  0.00    +0.000 A 
ENDBRANCH  14  16
ENDBRANCH   1  13
TORSDOF 4
ENDMDL
MODEL 4
REMARK VINA RESULT:      -6.0     21.397     22.889
REMARK  Name = 
REMARK  4 active torsions:
REMARK  status: ('A' for Active; 'I' for Inactive)
REMARK    1  A    between atoms: O_2  and  C_3
REMARK    2  A    between atoms: N_9  and  C_10
REMARK    3  A    between atoms: C_10  and  N_12
REMARK    4  A    between atoms: C_13  and  C_15
REMARK                            x       y       z     vdW  Elec       q    Type
REMARK                         _______ _______ _______ _____ _____    ______ ____
ROOT
ATOM      1  C   UNL     1      28.446  23.599  22.730  0.00  0.00    +0.000 C 
ATOM      2  S   UNL     1      26.838  23.681  22.883  0.00  0.00    +0.000 S 
ENDROOT
BRANCH   1   9
ATOM      3  C   UNL     1      29.998  26.806  19.440  0.00  0.00    +0.000 A 
ATOM      4  C   UNL     1      29.571  27.872  20.182  0.00  0.00    +0.000 A 
ATOM      5  C   UNL     1      28.950  27.646  21.408  0.00  0.00    +0.000 A 
ATOM      6  C   UNL     1      28.509  28.834  22.166  0.00  0.00    +0.000 C 
ATOM      7  N   UNL     1      28.800  26.387  21.806  0.00  0.00    +0.000 NA
ATOM      8  C   UNL     1      29.210  25.323  21.098  0.00  0.00    +0.000 A 
ATOM      9  N   UNL     1      29.051  23.981  21.521  0.00  0.00    +0.000 NA
ATOM     10  N   UNL     1      29.805  25.567  19.920  0.00  0.00    +0.000 NA
BRANCH   3  12
ATOM     11  C   UNL     1      31.592  27.998  18.019  0.00  0.00    +0.000 C 
ATOM     12  O   UNL     1      30.614  27.003  18.226  0.00  0.00    +0.000 OA
ENDBRANCH   3  12
ENDBRANCH   1   9
BRANCH   1  13
ATOM     13  N   UNL     1      29.225  23.146  23.806  0.00  0.00    +0.000 NA
ATOM     14  C   UNL     1      29.599  24.056  24.825  0.00  0.00    +0.000 C 
ATOM     15  O   UNL     1      29.217  25.250  24.730  0.00  0.00    +0.000 OA
BRANCH  14  16
ATOM     16  C   UNL     1      30.409  23.585  25.948  0.00  0.00    +0.000 A 
ATOM     17  C   UNL     1      31.491  24.288  26.424  0.00  0.00    +0.000 A 
ATOM     18  C   UNL     1      32.244  23.817  27.490  0.00  0.00    +0.000 A 
ATOM     19  C   UNL     1      31.909  22.614  28.098  0.00  0.00    +0.000 A 
ATOM     20  C   UNL     1      30.830  21.893  27.638  0.00  0.00    +0.000 A 
ATOM     21  C   UNL     1      30.103  22.396  26.571  0.00  0.00    +0.000 A 
ENDBRANCH  14  16
ENDBRANCH   1  13
TORSDOF 4
ENDMDL
MODEL 5
REMARK VINA RESULT:      -5.8      8.630      9.920
REMARK  Name = 
REMARK  4 active torsions:
REMARK  status: ('A' for Active; 'I' for Inactive)
REMARK    1  A    between atoms: O_2  and  C_3
REMARK    2  A    between atoms: N_9  and  C_10
REMARK    3  A    between atoms: C_10  and  N_12
REMARK    4  A    between atoms: C_13  and  C_15
REMARK                            x       y       z     vdW  Elec       q    Type
REMARK                         _______ _______ _______ _____ _____    ______ ____
ROOT
ATOM      1  C   UNL     1      20.175  21.711  38.125  0.00  0.00    +0.000 C 
ATOM      2  S   UNL     1      19.603  22.597  39.352  0.00  0.00    +0.000 S 
ENDROOT
BRANCH   1   9
ATOM      3  C   UNL     1      23.907  18.618  38.279  0.00  0.00    +0.000 A 
ATOM      4  C   UNL     1      23.087  17.536  38.445  0.00  0.00    +0.000 A 
ATOM      5  C   UNL     1      21.708  17.724  38.497  0.00  0.00    +0.000 A 
ATOM      6  C   UNL     1      20.872  16.521  38.679  0.00  0.00    +0.000 C 
ATOM      7  N   UNL     1      21.246  18.965  38.381  0.00  0.00    +0.000 NA
ATOM      8  C   UNL     1      22.028  20.044  38.217  0.00  0.00    +0.000 A 
ATOM      9  N   UNL     1      21.536  21.367  38.092  0.00  0.00    +0.000 NA
ATOM     10  N   UNL     1      23.353  19.835  38.170  0.00  0.00    +0.000 NA
BRANCH   3  12
ATOM     11  C   UNL     1      26.174  19.526  38.403  0.00  0.00    +0.000 C 
ATOM     12  O   UNL     1      25.272  18.456  38.224  0.00  0.00    +0.000 OA
ENDBRANCH   3  12
ENDBRANCH   1   9
BRANCH   1  13
ATOM     13  N   UNL     1      19.308  21.295  37.104  0.00  0.00    +0.000 NA
ATOM     14  C   UNL     1      19.184  22.083  35.933  0.00  0.00    +0.000 C 
ATOM     15  O   UNL     1      19.862  23.137  35.848  0.00  0.00    +0.000 OA
BRANCH  14  16
ATOM     16  C   UNL     1      18.281  21.649  34.867  0.00  0.00    +0.000 A 
ATOM     17  C   UNL     1      16.988  22.105  34.765  0.00  0.00    +0.000 A 
ATOM     18  C   UNL     1      16.152  21.676  33.743  0.00  0.00    +0.000 A 
ATOM     19  C   UNL     1      16.618  20.770  32.800  0.00  0.00    +0.000 A 
ATOM     20  C   UNL     1      17.909  20.300  32.883  0.00  0.00    +0.000 A 
ATOM     21  C   UNL     1      18.713  20.751  33.917  0.00  0.00    +0.000 A 
ENDBRANCH  14  16
ENDBRANCH   1  13
TORSDOF 4
ENDMDL
MODEL 6
REMARK VINA RESULT:      -5.6      3.965      7.091
REMARK  Name = 
REMARK  4 active torsions:
REMARK  status: ('A' for Active; 'I' for Inactive)
REMARK    1  A    between atoms: O_2  and  C_3
REMARK    2  A    between atoms: N_9  and  C_10
REMARK    3  A    between atoms: C_10  and  N_12
REMARK    4  A    between atoms: C_13  and  C_15
REMARK                            x       y       z     vdW  Elec       q    Type
REMARK                         _______ _______ _______ _____ _____    ______ ____
ROOT
ATOM      1  C   UNL     1      18.786   9.713  38.380  0.00  0.00    +0.000 C 
ATOM      2  S   UNL     1      17.522  10.501  37.750  0.00  0.00    +0.000 S 
ENDROOT
BRANCH   1   9
ATOM      3  C   UNL     1      17.341   6.589  41.797  0.00  0.00    +0.000 A 
ATOM      4  C   UNL     1      16.883   7.590  42.610  0.00  0.00    +0.000 A 
ATOM      5  C   UNL     1      16.998   8.914  42.194  0.00  0.00    +0.000 A 
ATOM      6  C   UNL     1      16.487   9.952  43.111  0.00  0.00    +0.000 C 
ATOM      7  N   UNL     1      17.555   9.148  41.010  0.00  0.00    +0.000 NA
ATOM      8  C   UNL     1      18.012   8.186  40.193  0.00  0.00    +0.000 A 
ATOM      9  N   UNL     1      18.604   8.434  38.931  0.00  0.00    +0.000 NA
ATOM     10  N   UNL     1      17.890   6.918  40.616  0.00  0.00    +0.000 NA
BRANCH   3  12
ATOM     11  C   UNL     1      18.341   4.393  42.193  0.00  0.00    +0.000 C 
ATOM     12  O   UNL     1      17.239   5.274  42.185  0.00  0.00    +0.000 OA
ENDBRANCH   3  12
ENDBRANCH   1   9
BRANCH   1  13
ATOM     13  N   UNL     1      20.054  10.313  38.373  0.00  0.00    +0.000 NA
ATOM     14  C   UNL     1      20.880  10.180  37.230  0.00  0.00    +0.000 C 
ATOM     15  O   UNL     1      20.445   9.521  36.252  0.00  0.00    +0.000 OA
BRANCH  14  16
ATOM     16  C   UNL     1      22.202  10.806  37.221  0.00  0.00    +0.000 A 
ATOM     17  C   UNL     1      22.560  11.786  38.117  0.00  0.00    +0.000 A 
ATOM     18  C   UNL     1      23.822  12.364  38.087  0.00  0.00    +0.000 A 
ATOM     19  C   UNL     1      24.749  11.955  37.137  0.00  0.00    +0.000 A 
ATOM     20  C   UNL     1      24.412  10.977  36.230  0.00  0.00    +0.000 A 
ATOM     21  C   UNL     1      23.143  10.423  36.292  0.00  0.00    +0.000 A 
ENDBRANCH  14  16
ENDBRANCH   1  13
TORSDOF 4
ENDMDL
MODEL 7
REMARK VINA RESULT:      -5.5     20.452     22.233
REMARK  Name = 
REMARK  4 active torsions:
REMARK  status: ('A' for Active; 'I' for Inactive)
REMARK    1  A    between atoms: O_2  and  C_3
REMARK    2  A    between atoms: N_9  and  C_10
REMARK    3  A    between atoms: C_10  and  N_12
REMARK    4  A    between atoms: C_13  and  C_15
REMARK                            x       y       z     vdW  Elec       q    Type
REMARK                         _______ _______ _______ _____ _____    ______ ____
ROOT
ATOM      1  C   UNL     1      18.399 -10.472  30.032  0.00  0.00    +0.000 C 
ATOM      2  S   UNL     1      18.624 -12.003  29.559  0.00  0.00    +0.000 S 
ENDROOT
BRANCH   1   9
ATOM      3  C   UNL     1      14.469 -10.465  32.874  0.00  0.00    +0.000 A 
ATOM      4  C   UNL     1      13.694 -11.056  31.914  0.00  0.00    +0.000 A 
ATOM      5  C   UNL     1      14.259 -11.377  30.682  0.00  0.00    +0.000 A 
ATOM      6  C   UNL     1      13.375 -12.013  29.684  0.00  0.00    +0.000 C 
ATOM      7  N   UNL     1      15.543 -11.091  30.493  0.00  0.00    +0.000 NA
ATOM      8  C   UNL     1      16.326 -10.512  31.417  0.00  0.00    +0.000 A 
ATOM      9  N   UNL     1      17.694 -10.207  31.218  0.00  0.00    +0.000 NA
ATOM     10  N   UNL     1      15.757 -10.212  32.596  0.00  0.00    +0.000 NA
BRANCH   3  12
ATOM     11  C   UNL     1      12.681  -9.505  34.239  0.00  0.00    +0.000 C 
ATOM     12  O   UNL     1      13.933 -10.138  34.098  0.00  0.00    +0.000 OA
ENDBRANCH   3  12
ENDBRANCH   1   9
BRANCH   1  13
ATOM     13  N   UNL     1      18.908  -9.421  29.254  0.00  0.00    +0.000 NA
ATOM     14  C   UNL     1      18.134  -8.912  28.183  0.00  0.00    +0.000 C 
ATOM     15  O   UNL     1      17.008  -9.423  27.963  0.00  0.00    +0.000 OA
BRANCH  14  16
ATOM     16  C   UNL     1      18.664  -7.816  27.372  0.00  0.00    +0.000 A 
ATOM     17  C   UNL     1      18.135  -6.547  27.409  0.00  0.00    +0.000 A 
ATOM     18  C   UNL     1      18.657  -5.525  26.628  0.00  0.00    +0.000 A 
ATOM     19  C   UNL     1      19.734  -5.776  25.789  0.00  0.00    +0.000 A 
ATOM     20  C   UNL     1      20.280  -7.038  25.734  0.00  0.00    +0.000 A 
ATOM     21  C   UNL     1      19.731  -8.032  26.529  0.00  0.00    +0.000 A 
ENDBRANCH  14  16
ENDBRANCH   1  13
TORSDOF 4
ENDMDL
MODEL 8
REMARK VINA RESULT:      -5.5      4.637      5.667
REMARK  Name = 
REMARK  4 active torsions:
REMARK  status: ('A' for Active; 'I' for Inactive)
REMARK    1  A    between atoms: O_2  and  C_3
REMARK    2  A    between atoms: N_9  and  C_10
REMARK    3  A    between atoms: C_10  and  N_12
REMARK    4  A    between atoms: C_13  and  C_15
REMARK                            x       y       z     vdW  Elec       q    Type
REMARK                         _______ _______ _______ _____ _____    ______ ____
ROOT
ATOM      1  C   UNL     1      17.784   8.728  40.593  0.00  0.00    +0.000 C 
ATOM      2  S   UNL     1      18.542   9.525  41.779  0.00  0.00    +0.000 S 
ENDROOT
BRANCH   1   9
ATOM      3  C   UNL     1      19.745   4.295  40.716  0.00  0.00    +0.000 A 
ATOM      4  C   UNL     1      21.021   4.789  40.739  0.00  0.00    +0.000 A 
ATOM      5  C   UNL     1      21.220   6.167  40.720  0.00  0.00    +0.000 A 
ATOM      6  C   UNL     1      22.617   6.644  40.746  0.00  0.00    +0.000 C 
ATOM      7  N   UNL     1      20.147   6.950  40.680  0.00  0.00    +0.000 NA
ATOM      8  C   UNL     1      18.885   6.492  40.657  0.00  0.00    +0.000 A 
ATOM      9  N   UNL     1      17.740   7.325  40.615  0.00  0.00    +0.000 NA
ATOM     10  N   UNL     1      18.720   5.160  40.676  0.00  0.00    +0.000 NA
BRANCH   3  12
ATOM     11  C   UNL     1      20.470   2.003  40.266  0.00  0.00    +0.000 C 
ATOM     12  O   UNL     1      19.523   2.937  40.734  0.00  0.00    +0.000 OA
ENDBRANCH   3  12
ENDBRANCH   1   9
BRANCH   1  13
ATOM     13  N   UNL     1      17.177   9.445  39.550  0.00  0.00    +0.000 NA
ATOM     14  C   UNL     1      17.881   9.636  38.336  0.00  0.00    +0.000 C 
ATOM     15  O   UNL     1      19.036   9.153  38.233  0.00  0.00    +0.000 OA
BRANCH  14  16
ATOM     16  C   UNL     1      17.249  10.383  37.249  0.00  0.00    +0.000 A 
ATOM     17  C   UNL     1      17.641  10.251  35.937  0.00  0.00    +0.000 A 
ATOM     18  C   UNL     1      17.024  10.972  34.924  0.00  0.00    +0.000 A 
ATOM     19  C   UNL     1      15.989  11.846  35.228  0.00  0.00    +0.000 A 
ATOM     20  C   UNL     1      15.580  11.995  36.533  0.00  0.00    +0.000 A 
ATOM     21  C   UNL     1      16.220  11.258  37.517  0.00  0.00    +0.000 A 
ENDBRANCH  14  16
ENDBRANCH   1  13
TORSDOF 4
ENDMDL
MODEL 9
REMARK VINA RESULT:      -5.5      4.457      5.843
REMARK  Name = 
REMARK  4 active torsions:
REMARK  status: ('A' for Active; 'I' for Inactive)
REMARK    1  A    between atoms: O_2  and  C_3
REMARK    2  A    between atoms: N_9  and  C_10
REMARK    3  A    between atoms: C_10  and  N_12
REMARK    4  A    between atoms: C_13  and  C_15
REMARK                            x       y       z     vdW  Elec       q    Type
REMARK                         _______ _______ _______ _____ _____    ______ ____
ROOT
ATOM      1  C   UNL     1      19.389   9.048  39.027  0.00  0.00    +0.000 C 
ATOM      2  S   UNL     1      20.389  10.074  39.780  0.00  0.00    +0.000 S 
ENDROOT
BRANCH   1   9
ATOM      3  C   UNL     1      17.189   6.469  42.495  0.00  0.00    +0.000 A 
ATOM      4  C   UNL     1      16.743   7.592  43.137  0.00  0.00    +0.000 A 
ATOM      5  C   UNL     1      17.052   8.846  42.616  0.00  0.00    +0.000 A 
ATOM      6  C   UNL     1      16.545  10.022  43.350  0.00  0.00    +0.000 C 
ATOM      7  N   UNL     1      17.778   8.894  41.504  0.00  0.00    +0.000 NA
ATOM      8  C   UNL     1      18.228   7.809  40.854  0.00  0.00    +0.000 A 
ATOM      9  N   UNL     1      19.001   7.860  39.668  0.00  0.00    +0.000 NA
ATOM     10  N   UNL     1      17.916   6.613  41.376  0.00  0.00    +0.000 NA
BRANCH   3  12
ATOM     11  C   UNL     1      16.517   5.000  44.331  0.00  0.00    +0.000 C 
ATOM     12  O   UNL     1      16.896   5.220  42.991  0.00  0.00    +0.000 OA
ENDBRANCH   3  12
ENDBRANCH   1   9
BRANCH   1  13
ATOM     13  N   UNL     1      18.920   9.352  37.741  0.00  0.00    +0.000 NA
ATOM     14  C   UNL     1      17.704  10.064  37.595  0.00  0.00    +0.000 C 
ATOM     15  O   UNL     1      17.081  10.402  38.633  0.00  0.00    +0.000 OA
BRANCH  14  16
ATOM     16  C   UNL     1      17.214  10.383  36.254  0.00  0.00    +0.000 A 
ATOM     17  C   UNL     1      16.099  11.159  36.040  0.00  0.00    +0.000 A 
ATOM     18  C   UNL     1      15.655  11.445  34.757  0.00  0.00    +0.000 A 
ATOM     19  C   UNL     1      16.342  10.945  33.659  0.00  0.00    +0.000 A 
ATOM     20  C   UNL     1      17.460  10.166  33.848  0.00  0.00    +0.000 A 
ATOM     21  C   UNL     1      17.872   9.902  35.145  0.00  0.00    +0.000 A 
ENDBRANCH  14  16
ENDBRANCH   1  13
TORSDOF 4
ENDMDL
MODEL 10
REMARK VINA RESULT:      -5.4     20.493     21.889
REMARK  Name = 
REMARK  4 active torsions:
REMARK  status: ('A' for Active; 'I' for Inactive)
REMARK    1  A    between atoms: O_2  and  C_3
REMARK    2  A    between atoms: N_9  and  C_10
REMARK    3  A    between atoms: C_10  and  N_12
REMARK    4  A    between atoms: C_13  and  C_15
REMARK                            x       y       z     vdW  Elec       q    Type
REMARK                         _______ _______ _______ _____ _____    ______ ____
ROOT
ATOM      1  C   UNL     1      17.548  -9.778  26.990  0.00  0.00    +0.000 C 
ATOM      2  S   UNL     1      17.503  -9.864  28.605  0.00  0.00    +0.000 S 
ENDROOT
BRANCH   1   9
ATOM      3  C   UNL     1      21.328  -7.424  25.070  0.00  0.00    +0.000 A 
ATOM      4  C   UNL     1      20.813  -6.199  25.393  0.00  0.00    +0.000 A 
ATOM      5  C   UNL     1      19.587  -6.125  26.050  0.00  0.00    +0.000 A 
ATOM      6  C   UNL     1      19.079  -4.777  26.375  0.00  0.00    +0.000 C 
ATOM      7  N   UNL     1      18.965  -7.264  26.335  0.00  0.00    +0.000 NA
ATOM      8  C   UNL     1      19.448  -8.479  26.029  0.00  0.00    +0.000 A 
ATOM      9  N   UNL     1      18.787  -9.694  26.333  0.00  0.00    +0.000 NA
ATOM     10  N   UNL     1      20.631  -8.523  25.397  0.00  0.00    +0.000 NA
BRANCH   3  12
ATOM     11  C   UNL     1      23.507  -6.498  24.454  0.00  0.00    +0.000 C 
ATOM     12  O   UNL     1      22.537  -7.522  24.421  0.00  0.00    +0.000 OA
ENDBRANCH   3  12
ENDBRANCH   1   9
BRANCH   1  13
ATOM     13  N   UNL     1      16.351  -9.786  26.259  0.00  0.00    +0.000 NA
ATOM     14  C   UNL     1      15.627  -8.580  26.096  0.00  0.00    +0.000 C 
ATOM     15  O   UNL     1      16.086  -7.533  26.618  0.00  0.00    +0.000 OA
BRANCH  14  16
ATOM     16  C   UNL     1      14.379  -8.588  25.334  0.00  0.00    +0.000 A 
ATOM     17  C   UNL     1      14.351  -8.730  23.966  0.00  0.00    +0.000 A 
ATOM     18  C   UNL     1      13.152  -8.734  23.266  0.00  0.00    +0.000 A 
ATOM     19  C   UNL     1      11.951  -8.592  23.949  0.00  0.00    +0.000 A 
ATOM     20  C   UNL     1      11.955  -8.448  25.317  0.00  0.00    +0.000 A 
ATOM     21  C   UNL     1      13.172  -8.449  25.981  0.00  0.00    +0.000 A 
ENDBRANCH  14  16
ENDBRANCH   1  13
TORSDOF 4
ENDMDL
