MODEL 1
REMARK VINA RESULT:      -8.1      0.000      0.000
REMARK  Name = 
REMARK  6 active torsions:
REMARK  status: ('A' for Active; 'I' for Inactive)
REMARK    1  A    between atoms: O_2  and  C_3
REMARK    2  A    between atoms: C_6  and  C_7
REMARK    3  A    between atoms: C_17  and  O_18
REMARK    4  A    between atoms: O_18  and  C_19
REMARK    5  A    between atoms: C_19  and  C_20
REMARK    6  A    between atoms: C_28  and  C_29
REMARK                            x       y       z     vdW  Elec       q    Type
REMARK                         _______ _______ _______ _____ _____    ______ ____
ROOT
ATOM      1  C   UNL     1      39.200  -1.305  15.588  0.00  0.00    +0.000 C 
ATOM      2  N   UNL     1      39.526  -1.171  14.049  0.00  0.00    +0.000 NA
ATOM      3  C   UNL     1      40.330   0.050  13.983  0.00  0.00    +0.000 C 
ATOM      4  C   UNL     1      39.389   1.254  14.026  0.00  0.00    +0.000 C 
ATOM      5  C   UNL     1      38.208   0.922  14.877  0.00  0.00    +0.000 A 
ATOM      6  C   UNL     1      38.051  -0.179  15.612  0.00  0.00    +0.000 A 
ATOM      7  N   UNL     1      36.917  -0.151  16.255  0.00  0.00    +0.000 NA
ATOM      8  C   UNL     1      36.290   1.029  15.932  0.00  0.00    +0.000 A 
ATOM      9  C   UNL     1      35.041   1.538  16.286  0.00  0.00    +0.000 A 
ATOM     10  C   UNL     1      34.577   2.717  15.786  0.00  0.00    +0.000 A 
ATOM     11  C   UNL     1      35.371   3.458  14.884  0.00  0.00    +0.000 A 
ATOM     12  C   UNL     1      36.610   2.940  14.551  0.00  0.00    +0.000 A 
ATOM     13  C   UNL     1      37.080   1.737  15.059  0.00  0.00    +0.000 A 
ENDROOT
BRANCH   1  17
ATOM     14  C   UNL     1      36.010  -4.168  15.510  0.00  0.00    +0.000 A 
ATOM     15  C   UNL     1      36.339  -3.556  14.334  0.00  0.00    +0.000 A 
ATOM     16  C   UNL     1      37.438  -2.684  14.325  0.00  0.00    +0.000 A 
ATOM     17  C   UNL     1      38.110  -2.502  15.461  0.00  0.00    +0.000 A 
ATOM     18  C   UNL     1      37.819  -3.105  16.661  0.00  0.00    +0.000 A 
ATOM     19  C   UNL     1      36.715  -3.964  16.672  0.00  0.00    +0.000 A 
BRANCH  18  20
ATOM     20  C   UNL     1      38.763  -2.970  17.809  0.00  0.00    +0.000 C 
ATOM     21  C   UNL     1      38.022  -2.199  18.964  0.00  0.00    +0.000 C 
ATOM     22  C   UNL     1      38.800  -4.470  18.461  0.00  0.00    +0.000 C 
ENDBRANCH  18  20
BRANCH  14  24
ATOM     23  C   UNL     1      33.708  -4.800  14.846  0.00  0.00    +0.000 C 
ATOM     24  O   UNL     1      34.896  -5.059  15.556  0.00  0.00    +0.000 OA
ENDBRANCH  14  24
ENDBRANCH   1  17
BRANCH  11  25
ATOM     25  O   UNL     1      34.956   4.611  14.352  0.00  0.00    +0.000 OA
BRANCH  25  26
ATOM     26  C   UNL     1      35.599   5.725  13.958  0.00  0.00    +0.000 C 
BRANCH  26  27
ATOM     27  C   UNL     1      35.085   6.258  12.684  0.00  0.00    +0.000 A 
ATOM     28  C   UNL     1      35.923   5.900  11.609  0.00  0.00    +0.000 A 
ATOM     29  C   UNL     1      35.654   6.284  10.332  0.00  0.00    +0.000 A 
ATOM     30  C   UNL     1      34.557   7.026  10.086  0.00  0.00    +0.000 A 
ATOM     31  C   UNL     1      33.654   7.435  11.094  0.00  0.00    +0.000 A 
ATOM     32  C   UNL     1      33.999   6.996  12.401  0.00  0.00    +0.000 A 
ENDBRANCH  26  27
ENDBRANCH  25  26
ENDBRANCH  11  25
TORSDOF 6
ENDMDL
MODEL 2
REMARK VINA RESULT:      -8.1      3.292      5.426
REMARK  Name = 
REMARK  6 active torsions:
REMARK  status: ('A' for Active; 'I' for Inactive)
REMARK    1  A    between atoms: O_2  and  C_3
REMARK    2  A    between atoms: C_6  and  C_7
REMARK    3  A    between atoms: C_17  and  O_18
REMARK    4  A    between atoms: O_18  and  C_19
REMARK    5  A    between atoms: C_19  and  C_20
REMARK    6  A    between atoms: C_28  and  C_29
REMARK                            x       y       z     vdW  Elec       q    Type
REMARK                         _______ _______ _______ _____ _____    ______ ____
ROOT
ATOM      1  C   UNL     1      35.432  -0.861  16.311  0.00  0.00    +0.000 C 
ATOM      2  N   UNL     1      35.154   0.180  17.465  0.00  0.00    +0.000 NA
ATOM      3  C   UNL     1      34.481   1.277  16.770  0.00  0.00    +0.000 C 
ATOM      4  C   UNL     1      35.538   2.132  16.072  0.00  0.00    +0.000 C 
ATOM      5  C   UNL     1      36.661   1.254  15.627  0.00  0.00    +0.000 A 
ATOM      6  C   UNL     1      36.690  -0.078  15.683  0.00  0.00    +0.000 A 
ATOM      7  N   UNL     1      37.807  -0.540  15.194  0.00  0.00    +0.000 NA
ATOM      8  C   UNL     1      38.557   0.539  14.792  0.00  0.00    +0.000 A 
ATOM      9  C   UNL     1      39.844   0.623  14.262  0.00  0.00    +0.000 A 
ATOM     10  C   UNL     1      40.437   1.820  13.997  0.00  0.00    +0.000 A 
ATOM     11  C   UNL     1      39.742   3.020  14.260  0.00  0.00    +0.000 A 
ATOM     12  C   UNL     1      38.464   2.916  14.779  0.00  0.00    +0.000 A 
ATOM     13  C   UNL     1      37.862   1.695  15.051  0.00  0.00    +0.000 A 
ENDROOT
BRANCH   1  17
ATOM     14  C   UNL     1      38.313  -3.424  18.185  0.00  0.00    +0.000 A 
ATOM     15  C   UNL     1      38.080  -2.208  18.760  0.00  0.00    +0.000 A 
ATOM     16  C   UNL     1      37.077  -1.396  18.211  0.00  0.00    +0.000 A 
ATOM     17  C   UNL     1      36.397  -1.853  17.161  0.00  0.00    +0.000 A 
ATOM     18  C   UNL     1      36.592  -3.073  16.559  0.00  0.00    +0.000 A 
ATOM     19  C   UNL     1      37.601  -3.877  17.100  0.00  0.00    +0.000 A 
BRANCH  18  20
ATOM     20  C   UNL     1      35.635  -3.548  15.517  0.00  0.00    +0.000 C 
ATOM     21  C   UNL     1      36.423  -3.696  14.162  0.00  0.00    +0.000 C 
ATOM     22  C   UNL     1      35.417  -5.129  15.880  0.00  0.00    +0.000 C 
ENDBRANCH  18  20
BRANCH  14  24
ATOM     23  C   UNL     1      39.112  -5.058  19.867  0.00  0.00    +0.000 C 
ATOM     24  O   UNL     1      39.327  -4.276  18.716  0.00  0.00    +0.000 OA
ENDBRANCH  14  24
ENDBRANCH   1  17
BRANCH  11  25
ATOM     25  O   UNL     1      40.284   4.220  14.034  0.00  0.00    +0.000 OA
BRANCH  25  26
ATOM     26  C   UNL     1      39.972   5.461  14.449  0.00  0.00    +0.000 C 
BRANCH  26  27
ATOM     27  C   UNL     1      40.669   5.838  15.691  0.00  0.00    +0.000 A 
ATOM     28  C   UNL     1      39.817   5.721  16.808  0.00  0.00    +0.000 A 
ATOM     29  C   UNL     1      40.238   6.019  18.066  0.00  0.00    +0.000 A 
ATOM     30  C   UNL     1      41.506   6.439  18.253  0.00  0.00    +0.000 A 
ATOM     31  C   UNL     1      42.437   6.588  17.200  0.00  0.00    +0.000 A 
ATOM     32  C   UNL     1      41.926   6.257  15.915  0.00  0.00    +0.000 A 
ENDBRANCH  26  27
ENDBRANCH  25  26
ENDBRANCH  11  25
TORSDOF 6
ENDMDL
MODEL 3
REMARK VINA RESULT:      -7.9      5.172      6.942
REMARK  Name = 
REMARK  6 active torsions:
REMARK  status: ('A' for Active; 'I' for Inactive)
REMARK    1  A    between atoms: O_2  and  C_3
REMARK    2  A    between atoms: C_6  and  C_7
REMARK    3  A    between atoms: C_17  and  O_18
REMARK    4  A    between atoms: O_18  and  C_19
REMARK    5  A    between atoms: C_19  and  C_20
REMARK    6  A    between atoms: C_28  and  C_29
REMARK                            x       y       z     vdW  Elec       q    Type
REMARK                         _______ _______ _______ _____ _____    ______ ____
ROOT
ATOM      1  C   UNL     1      36.954   3.372  14.036  0.00  0.00    +0.000 C 
ATOM      2  N   UNL     1      35.674   4.278  13.860  0.00  0.00    +0.000 NA
ATOM      3  C   UNL     1      36.202   5.481  13.216  0.00  0.00    +0.000 C 
ATOM      4  C   UNL     1      36.845   6.363  14.286  0.00  0.00    +0.000 C 
ATOM      5  C   UNL     1      37.442   5.494  15.343  0.00  0.00    +0.000 A 
ATOM      6  C   UNL     1      37.544   4.165  15.306  0.00  0.00    +0.000 A 
ATOM      7  N   UNL     1      38.136   3.713  16.376  0.00  0.00    +0.000 NA
ATOM      8  C   UNL     1      38.443   4.797  17.164  0.00  0.00    +0.000 A 
ATOM      9  C   UNL     1      39.020   4.884  18.431  0.00  0.00    +0.000 A 
ATOM     10  C   UNL     1      39.170   6.075  19.073  0.00  0.00    +0.000 A 
ATOM     11  C   UNL     1      38.735   7.266  18.452  0.00  0.00    +0.000 A 
ATOM     12  C   UNL     1      38.172   7.160  17.193  0.00  0.00    +0.000 A 
ATOM     13  C   UNL     1      38.017   5.945  16.541  0.00  0.00    +0.000 A 
ENDROOT
BRANCH   1  17
ATOM     14  C   UNL     1      35.555   0.440  16.834  0.00  0.00    +0.000 A 
ATOM     15  C   UNL     1      34.884   1.628  16.774  0.00  0.00    +0.000 A 
ATOM     16  C   UNL     1      35.273   2.561  15.803  0.00  0.00    +0.000 A 
ATOM     17  C   UNL     1      36.273   2.241  14.982  0.00  0.00    +0.000 A 
ATOM     18  C   UNL     1      36.966   1.055  15.002  0.00  0.00    +0.000 A 
ATOM     19  C   UNL     1      36.585   0.130  15.980  0.00  0.00    +0.000 A 
BRANCH  18  20
ATOM     20  C   UNL     1      37.931   0.740  13.907  0.00  0.00    +0.000 C 
ATOM     21  C   UNL     1      39.331   0.440  14.561  0.00  0.00    +0.000 C 
ATOM     22  C   UNL     1      37.514  -0.773  13.445  0.00  0.00    +0.000 C 
ENDBRANCH  18  20
BRANCH  14  24
ATOM     23  C   UNL     1      35.582  -0.418  19.158  0.00  0.00    +0.000 C 
ATOM     24  O   UNL     1      35.187  -0.532  17.812  0.00  0.00    +0.000 OA
ENDBRANCH  14  24
ENDBRANCH   1  17
BRANCH  11  25
ATOM     25  O   UNL     1      38.843   8.459  19.045  0.00  0.00    +0.000 OA
BRANCH  25  26
ATOM     26  C   UNL     1      38.736   8.861  20.325  0.00  0.00    +0.000 C 
BRANCH  26  27
ATOM     27  C   UNL     1      38.479  10.307  20.446  0.00  0.00    +0.000 A 
ATOM     28  C   UNL     1      37.772  10.793  19.327  0.00  0.00    +0.000 A 
ATOM     29  C   UNL     1      37.424  12.103  19.212  0.00  0.00    +0.000 A 
ATOM     30  C   UNL     1      37.764  12.962  20.194  0.00  0.00    +0.000 A 
ATOM     31  C   UNL     1      38.471  12.574  21.355  0.00  0.00    +0.000 A 
ATOM     32  C   UNL     1      38.799  11.191  21.405  0.00  0.00    +0.000 A 
ENDBRANCH  26  27
ENDBRANCH  25  26
ENDBRANCH  11  25
TORSDOF 6
ENDMDL
MODEL 4
REMARK VINA RESULT:      -7.8      3.314      5.140
REMARK  Name = 
REMARK  6 active torsions:
REMARK  status: ('A' for Active; 'I' for Inactive)
REMARK    1  A    between atoms: O_2  and  C_3
REMARK    2  A    between atoms: C_6  and  C_7
REMARK    3  A    between atoms: C_17  and  O_18
REMARK    4  A    between atoms: O_18  and  C_19
REMARK    5  A    between atoms: C_19  and  C_20
REMARK    6  A    between atoms: C_28  and  C_29
REMARK                            x       y       z     vdW  Elec       q    Type
REMARK                         _______ _______ _______ _____ _____    ______ ____
ROOT
ATOM      1  C   UNL     1      35.927  -1.504  16.919  0.00  0.00    +0.000 C 
ATOM      2  N   UNL     1      36.953  -1.371  18.111  0.00  0.00    +0.000 NA
ATOM      3  C   UNL     1      36.216  -0.582  19.099  0.00  0.00    +0.000 C 
ATOM      4  C   UNL     1      36.287   0.890  18.696  0.00  0.00    +0.000 C 
ATOM      5  C   UNL     1      36.310   0.989  17.206  0.00  0.00    +0.000 A 
ATOM      6  C   UNL     1      36.144  -0.016  16.347  0.00  0.00    +0.000 A 
ATOM      7  N   UNL     1      36.199   0.410  15.116  0.00  0.00    +0.000 NA
ATOM      8  C   UNL     1      36.410   1.767  15.160  0.00  0.00    +0.000 A 
ATOM      9  C   UNL     1      36.605   2.705  14.146  0.00  0.00    +0.000 A 
ATOM     10  C   UNL     1      36.876   4.012  14.417  0.00  0.00    +0.000 A 
ATOM     11  C   UNL     1      36.964   4.447  15.757  0.00  0.00    +0.000 A 
ATOM     12  C   UNL     1      36.759   3.503  16.749  0.00  0.00    +0.000 A 
ATOM     13  C   UNL     1      36.486   2.171  16.471  0.00  0.00    +0.000 A 
ENDROOT
BRANCH   1  17
ATOM     14  C   UNL     1      38.362  -2.961  13.705  0.00  0.00    +0.000 A 
ATOM     15  C   UNL     1      38.886  -1.985  14.503  0.00  0.00    +0.000 A 
ATOM     16  C   UNL     1      38.139  -1.562  15.611  0.00  0.00    +0.000 A 
ATOM     17  C   UNL     1      36.958  -2.137  15.835  0.00  0.00    +0.000 A 
ATOM     18  C   UNL     1      36.399  -3.128  15.064  0.00  0.00    +0.000 A 
ATOM     19  C   UNL     1      37.140  -3.540  13.951  0.00  0.00    +0.000 A 
BRANCH  18  20
ATOM     20  C   UNL     1      35.164  -3.825  15.530  0.00  0.00    +0.000 C 
ATOM     21  C   UNL     1      34.411  -4.383  14.265  0.00  0.00    +0.000 C 
ATOM     22  C   UNL     1      35.722  -5.228  16.159  0.00  0.00    +0.000 C 
ENDBRANCH  18  20
BRANCH  14  24
ATOM     23  C   UNL     1      39.812  -2.525  11.744  0.00  0.00    +0.000 C 
ATOM     24  O   UNL     1      39.094  -3.414  12.567  0.00  0.00    +0.000 OA
ENDBRANCH  14  24
ENDBRANCH   1  17
BRANCH  11  25
ATOM     25  O   UNL     1      37.243   5.713  16.077  0.00  0.00    +0.000 OA
BRANCH  25  26
ATOM     26  C   UNL     1      38.396   6.394  16.210  0.00  0.00    +0.000 C 
BRANCH  26  27
ATOM     27  C   UNL     1      38.645   6.825  17.597  0.00  0.00    +0.000 A 
ATOM     28  C   UNL     1      39.584   5.984  18.229  0.00  0.00    +0.000 A 
ATOM     29  C   UNL     1      39.971   6.182  19.518  0.00  0.00    +0.000 A 
ATOM     30  C   UNL     1      39.442   7.210  20.212  0.00  0.00    +0.000 A 
ATOM     31  C   UNL     1      38.496   8.108  19.669  0.00  0.00    +0.000 A 
ATOM     32  C   UNL     1      38.142   7.840  18.319  0.00  0.00    +0.000 A 
ENDBRANCH  26  27
ENDBRANCH  25  26
ENDBRANCH  11  25
TORSDOF 6
ENDMDL
MODEL 5
REMARK VINA RESULT:      -7.7      4.975      6.929
REMARK  Name = 
REMARK  6 active torsions:
REMARK  status: ('A' for Active; 'I' for Inactive)
REMARK    1  A    between atoms: O_2  and  C_3
REMARK    2  A    between atoms: C_6  and  C_7
REMARK    3  A    between atoms: C_17  and  O_18
REMARK    4  A    between atoms: O_18  and  C_19
REMARK    5  A    between atoms: C_19  and  C_20
REMARK    6  A    between atoms: C_28  and  C_29
REMARK                            x       y       z     vdW  Elec       q    Type
REMARK                         _______ _______ _______ _____ _____    ______ ____
ROOT
ATOM      1  C   UNL     1      36.982   3.276  13.933  0.00  0.00    +0.000 C 
ATOM      2  N   UNL     1      35.774   4.263  13.690  0.00  0.00    +0.000 NA
ATOM      3  C   UNL     1      36.409   5.417  13.053  0.00  0.00    +0.000 C 
ATOM      4  C   UNL     1      37.064   6.272  14.138  0.00  0.00    +0.000 C 
ATOM      5  C   UNL     1      37.557   5.381  15.231  0.00  0.00    +0.000 A 
ATOM      6  C   UNL     1      37.571   4.049  15.215  0.00  0.00    +0.000 A 
ATOM      7  N   UNL     1      38.085   3.576  16.316  0.00  0.00    +0.000 NA
ATOM      8  C   UNL     1      38.432   4.649  17.102  0.00  0.00    +0.000 A 
ATOM      9  C   UNL     1      38.960   4.717  18.390  0.00  0.00    +0.000 A 
ATOM     10  C   UNL     1      39.164   5.906  19.022  0.00  0.00    +0.000 A 
ATOM     11  C   UNL     1      38.836   7.114  18.368  0.00  0.00    +0.000 A 
ATOM     12  C   UNL     1      38.320   7.025  17.087  0.00  0.00    +0.000 A 
ATOM     13  C   UNL     1      38.111   5.812  16.445  0.00  0.00    +0.000 A 
ENDROOT
BRANCH   1  17
ATOM     14  C   UNL     1      35.272   0.490  16.708  0.00  0.00    +0.000 A 
ATOM     15  C   UNL     1      34.686   1.719  16.603  0.00  0.00    +0.000 A 
ATOM     16  C   UNL     1      35.177   2.609  15.637  0.00  0.00    +0.000 A 
ATOM     17  C   UNL     1      36.186   2.209  14.864  0.00  0.00    +0.000 A 
ATOM     18  C   UNL     1      36.797   0.979  14.929  0.00  0.00    +0.000 A 
ATOM     19  C   UNL     1      36.314   0.098  15.902  0.00  0.00    +0.000 A 
BRANCH  18  20
ATOM     20  C   UNL     1      37.782   0.583  13.881  0.00  0.00    +0.000 C 
ATOM     21  C   UNL     1      39.176   0.362  14.579  0.00  0.00    +0.000 C 
ATOM     22  C   UNL     1      37.393  -0.971  13.548  0.00  0.00    +0.000 C 
ENDBRANCH  18  20
BRANCH  14  24
ATOM     23  C   UNL     1      34.195  -1.657  17.313  0.00  0.00    +0.000 C 
ATOM     24  O   UNL     1      34.799  -0.439  17.681  0.00  0.00    +0.000 OA
ENDBRANCH  14  24
ENDBRANCH   1  17
BRANCH  11  25
ATOM     25  O   UNL     1      39.000   8.305  18.949  0.00  0.00    +0.000 OA
BRANCH  25  26
ATOM     26  C   UNL     1      40.063   8.921  19.499  0.00  0.00    +0.000 C 
BRANCH  26  27
ATOM     27  C   UNL     1      41.336   8.255  19.174  0.00  0.00    +0.000 A 
ATOM     28  C   UNL     1      41.865   7.592  20.300  0.00  0.00    +0.000 A 
ATOM     29  C   UNL     1      43.039   6.908  20.244  0.00  0.00    +0.000 A 
ATOM     30  C   UNL     1      43.719   6.863  19.081  0.00  0.00    +0.000 A 
ATOM     31  C   UNL     1      43.273   7.492  17.896  0.00  0.00    +0.000 A 
ATOM     32  C   UNL     1      42.039   8.186  18.031  0.00  0.00    +0.000 A 
ENDBRANCH  26  27
ENDBRANCH  25  26
ENDBRANCH  11  25
TORSDOF 6
ENDMDL
MODEL 6
REMARK VINA RESULT:      -7.7     23.815     26.496
REMARK  Name = 
REMARK  6 active torsions:
REMARK  status: ('A' for Active; 'I' for Inactive)
REMARK    1  A    between atoms: O_2  and  C_3
REMARK    2  A    between atoms: C_6  and  C_7
REMARK    3  A    between atoms: C_17  and  O_18
REMARK    4  A    between atoms: O_18  and  C_19
REMARK    5  A    between atoms: C_19  and  C_20
REMARK    6  A    between atoms: C_28  and  C_29
REMARK                            x       y       z     vdW  Elec       q    Type
REMARK                         _______ _______ _______ _____ _____    ______ ____
ROOT
ATOM      1  C   UNL     1      11.390  -0.992  28.446  0.00  0.00    +0.000 C 
ATOM      2  N   UNL     1      10.913  -1.702  27.119  0.00  0.00    +0.000 NA
ATOM      3  C   UNL     1      11.660  -2.961  27.127  0.00  0.00    +0.000 C 
ATOM      4  C   UNL     1      13.079  -2.687  26.631  0.00  0.00    +0.000 C 
ATOM      5  C   UNL     1      13.493  -1.318  27.060  0.00  0.00    +0.000 A 
ATOM      6  C   UNL     1      12.813  -0.509  27.873  0.00  0.00    +0.000 A 
ATOM      7  N   UNL     1      13.460   0.607  28.065  0.00  0.00    +0.000 NA
ATOM      8  C   UNL     1      14.628   0.534  27.346  0.00  0.00    +0.000 A 
ATOM      9  C   UNL     1      15.651   1.462  27.148  0.00  0.00    +0.000 A 
ATOM     10  C   UNL     1      16.703   1.208  26.323  0.00  0.00    +0.000 A 
ATOM     11  C   UNL     1      16.778  -0.026  25.640  0.00  0.00    +0.000 A 
ATOM     12  C   UNL     1      15.758  -0.936  25.855  0.00  0.00    +0.000 A 
ATOM     13  C   UNL     1      14.684  -0.674  26.694  0.00  0.00    +0.000 A 
ENDROOT
BRANCH   1  17
ATOM     14  C   UNL     1      10.053   3.025  27.772  0.00  0.00    +0.000 A 
ATOM     15  C   UNL     1      10.142   2.198  26.689  0.00  0.00    +0.000 A 
ATOM     16  C   UNL     1      10.491   0.857  26.905  0.00  0.00    +0.000 A 
ATOM     17  C   UNL     1      10.712   0.455  28.156  0.00  0.00    +0.000 A 
ATOM     18  C   UNL     1      10.623   1.250  29.273  0.00  0.00    +0.000 A 
ATOM     19  C   UNL     1      10.287   2.591  29.054  0.00  0.00    +0.000 A 
BRANCH  18  20
ATOM     20  C   UNL     1      10.702   0.636  30.631  0.00  0.00    +0.000 C 
ATOM     21  C   UNL     1      11.998   1.181  31.339  0.00  0.00    +0.000 C 
ATOM     22  C   UNL     1       9.563   1.438  31.488  0.00  0.00    +0.000 C 
ENDBRANCH  18  20
BRANCH  14  24
ATOM     23  C   UNL     1       8.397   4.866  27.827  0.00  0.00    +0.000 C 
ATOM     24  O   UNL     1       9.702   4.396  27.588  0.00  0.00    +0.000 OA
ENDBRANCH  14  24
ENDBRANCH   1  17
BRANCH  11  25
ATOM     25  O   UNL     1      17.780  -0.318  24.806  0.00  0.00    +0.000 OA
BRANCH  25  26
ATOM     26  C   UNL     1      19.029  -0.781  24.998  0.00  0.00    +0.000 C 
BRANCH  26  27
ATOM     27  C   UNL     1      19.862  -0.685  23.786  0.00  0.00    +0.000 A 
ATOM     28  C   UNL     1      19.883  -1.909  23.086  0.00  0.00    +0.000 A 
ATOM     29  C   UNL     1      20.591  -2.066  21.936  0.00  0.00    +0.000 A 
ATOM     30  C   UNL     1      21.293  -1.022  21.449  0.00  0.00    +0.000 A 
ATOM     31  C   UNL     1      21.335   0.244  22.075  0.00  0.00    +0.000 A 
ATOM     32  C   UNL     1      20.571   0.332  23.270  0.00  0.00    +0.000 A 
ENDBRANCH  26  27
ENDBRANCH  25  26
ENDBRANCH  11  25
TORSDOF 6
ENDMDL
MODEL 7
REMARK VINA RESULT:      -7.6      4.415      6.095
REMARK  Name = 
REMARK  6 active torsions:
REMARK  status: ('A' for Active; 'I' for Inactive)
REMARK    1  A    between atoms: O_2  and  C_3
REMARK    2  A    between atoms: C_6  and  C_7
REMARK    3  A    between atoms: C_17  and  O_18
REMARK    4  A    between atoms: O_18  and  C_19
REMARK    5  A    between atoms: C_19  and  C_20
REMARK    6  A    between atoms: C_28  and  C_29
REMARK                            x       y       z     vdW  Elec       q    Type
REMARK                         _______ _______ _______ _____ _____    ______ ____
ROOT
ATOM      1  C   UNL     1      37.131   3.078  13.969  0.00  0.00    +0.000 C 
ATOM      2  N   UNL     1      35.919   4.028  13.622  0.00  0.00    +0.000 NA
ATOM      3  C   UNL     1      36.558   5.144  12.925  0.00  0.00    +0.000 C 
ATOM      4  C   UNL     1      37.168   6.081  13.967  0.00  0.00    +0.000 C 
ATOM      5  C   UNL     1      37.639   5.276  15.134  0.00  0.00    +0.000 A 
ATOM      6  C   UNL     1      37.670   3.946  15.211  0.00  0.00    +0.000 A 
ATOM      7  N   UNL     1      38.157   3.558  16.357  0.00  0.00    +0.000 NA
ATOM      8  C   UNL     1      38.465   4.688  17.076  0.00  0.00    +0.000 A 
ATOM      9  C   UNL     1      38.953   4.854  18.373  0.00  0.00    +0.000 A 
ATOM     10  C   UNL     1      39.121   6.087  18.926  0.00  0.00    +0.000 A 
ATOM     11  C   UNL     1      38.798   7.241  18.179  0.00  0.00    +0.000 A 
ATOM     12  C   UNL     1      38.323   7.056  16.893  0.00  0.00    +0.000 A 
ATOM     13  C   UNL     1      38.149   5.799  16.332  0.00  0.00    +0.000 A 
ENDROOT
BRANCH   1  17
ATOM     14  C   UNL     1      35.381   0.452  16.871  0.00  0.00    +0.000 A 
ATOM     15  C   UNL     1      34.804   1.677  16.698  0.00  0.00    +0.000 A 
ATOM     16  C   UNL     1      35.309   2.512  15.691  0.00  0.00    +0.000 A 
ATOM     17  C   UNL     1      36.322   2.066  14.948  0.00  0.00    +0.000 A 
ATOM     18  C   UNL     1      36.923   0.838  15.083  0.00  0.00    +0.000 A 
ATOM     19  C   UNL     1      36.427   0.011  16.096  0.00  0.00    +0.000 A 
BRANCH  18  20
ATOM     20  C   UNL     1      37.915   0.381  14.065  0.00  0.00    +0.000 C 
ATOM     21  C   UNL     1      39.287   0.134  14.795  0.00  0.00    +0.000 C 
ATOM     22  C   UNL     1      37.481  -1.168  13.766  0.00  0.00    +0.000 C 
ENDBRANCH  18  20
BRANCH  14  24
ATOM     23  C   UNL     1      35.593  -0.621  19.094  0.00  0.00    +0.000 C 
ATOM     24  O   UNL     1      34.894  -0.422  17.888  0.00  0.00    +0.000 OA
ENDBRANCH  14  24
ENDBRANCH   1  17
BRANCH  11  25
ATOM     25  O   UNL     1      38.929   8.472  18.681  0.00  0.00    +0.000 OA
BRANCH  25  26
ATOM     26  C   UNL     1      38.175   9.207  19.519  0.00  0.00    +0.000 C 
BRANCH  26  27
ATOM     27  C   UNL     1      37.173  10.025  18.813  0.00  0.00    +0.000 A 
ATOM     28  C   UNL     1      37.464  11.400  18.932  0.00  0.00    +0.000 A 
ATOM     29  C   UNL     1      36.675  12.352  18.365  0.00  0.00    +0.000 A 
ATOM     30  C   UNL     1      35.584  11.972  17.670  0.00  0.00    +0.000 A 
ATOM     31  C   UNL     1      35.208  10.622  17.492  0.00  0.00    +0.000 A 
ATOM     32  C   UNL     1      36.080   9.685  18.111  0.00  0.00    +0.000 A 
ENDBRANCH  26  27
ENDBRANCH  25  26
ENDBRANCH  11  25
TORSDOF 6
ENDMDL
MODEL 8
REMARK VINA RESULT:      -7.6      4.049      6.371
REMARK  Name = 
REMARK  6 active torsions:
REMARK  status: ('A' for Active; 'I' for Inactive)
REMARK    1  A    between atoms: O_2  and  C_3
REMARK    2  A    between atoms: C_6  and  C_7
REMARK    3  A    between atoms: C_17  and  O_18
REMARK    4  A    between atoms: O_18  and  C_19
REMARK    5  A    between atoms: C_19  and  C_20
REMARK    6  A    between atoms: C_28  and  C_29
REMARK                            x       y       z     vdW  Elec       q    Type
REMARK                         _______ _______ _______ _____ _____    ______ ____
ROOT
ATOM      1  C   UNL     1      38.294  -1.752  13.221  0.00  0.00    +0.000 C 
ATOM      2  N   UNL     1      37.800  -2.290  14.621  0.00  0.00    +0.000 NA
ATOM      3  C   UNL     1      36.404  -1.853  14.672  0.00  0.00    +0.000 C 
ATOM      4  C   UNL     1      36.371  -0.379  15.075  0.00  0.00    +0.000 C 
ATOM      5  C   UNL     1      37.577   0.307  14.522  0.00  0.00    +0.000 A 
ATOM      6  C   UNL     1      38.469  -0.222  13.685  0.00  0.00    +0.000 A 
ATOM      7  N   UNL     1      39.389   0.649  13.375  0.00  0.00    +0.000 NA
ATOM      8  C   UNL     1      39.092   1.815  14.040  0.00  0.00    +0.000 A 
ATOM      9  C   UNL     1      39.768   3.033  14.115  0.00  0.00    +0.000 A 
ATOM     10  C   UNL     1      39.328   4.051  14.905  0.00  0.00    +0.000 A 
ATOM     11  C   UNL     1      38.157   3.887  15.675  0.00  0.00    +0.000 A 
ATOM     12  C   UNL     1      37.497   2.674  15.581  0.00  0.00    +0.000 A 
ATOM     13  C   UNL     1      37.948   1.636  14.778  0.00  0.00    +0.000 A 
ENDROOT
BRANCH   1  17
ATOM     14  C   UNL     1      42.545  -2.084  13.668  0.00  0.00    +0.000 A 
ATOM     15  C   UNL     1      41.782  -2.160  14.798  0.00  0.00    +0.000 A 
ATOM     16  C   UNL     1      40.387  -2.143  14.660  0.00  0.00    +0.000 A 
ATOM     17  C   UNL     1      39.875  -2.061  13.432  0.00  0.00    +0.000 A 
ATOM     18  C   UNL     1      40.605  -1.993  12.270  0.00  0.00    +0.000 A 
ATOM     19  C   UNL     1      41.997  -1.997  12.411  0.00  0.00    +0.000 A 
BRANCH  18  20
ATOM     20  C   UNL     1      39.914  -2.102  10.952  0.00  0.00    +0.000 C 
ATOM     21  C   UNL     1      40.211  -0.789  10.135  0.00  0.00    +0.000 C 
ATOM     22  C   UNL     1      40.839  -3.160  10.114  0.00  0.00    +0.000 C 
ENDBRANCH  18  20
BRANCH  14  24
ATOM     23  C   UNL     1      44.648  -1.328  14.736  0.00  0.00    +0.000 C 
ATOM     24  O   UNL     1      43.968  -2.096  13.772  0.00  0.00    +0.000 OA
ENDBRANCH  14  24
ENDBRANCH   1  17
BRANCH  11  25
ATOM     25  O   UNL     1      37.693   4.848  16.479  0.00  0.00    +0.000 OA
BRANCH  25  26
ATOM     26  C   UNL     1      38.009   6.146  16.635  0.00  0.00    +0.000 C 
BRANCH  26  27
ATOM     27  C   UNL     1      38.702   6.413  17.908  0.00  0.00    +0.000 A 
ATOM     28  C   UNL     1      38.135   7.520  18.573  0.00  0.00    +0.000 A 
ATOM     29  C   UNL     1      38.612   7.959  19.768  0.00  0.00    +0.000 A 
ATOM     30  C   UNL     1      39.656   7.321  20.334  0.00  0.00    +0.000 A 
ATOM     31  C   UNL     1      40.292   6.203  19.749  0.00  0.00    +0.000 A 
ATOM     32  C   UNL     1      39.739   5.800  18.503  0.00  0.00    +0.000 A 
ENDBRANCH  26  27
ENDBRANCH  25  26
ENDBRANCH  11  25
TORSDOF 6
ENDMDL
MODEL 9
REMARK VINA RESULT:      -7.4      3.802      4.715
REMARK  Name = 
REMARK  6 active torsions:
REMARK  status: ('A' for Active; 'I' for Inactive)
REMARK    1  A    between atoms: O_2  and  C_3
REMARK    2  A    between atoms: C_6  and  C_7
REMARK    3  A    between atoms: C_17  and  O_18
REMARK    4  A    between atoms: O_18  and  C_19
REMARK    5  A    between atoms: C_19  and  C_20
REMARK    6  A    between atoms: C_28  and  C_29
REMARK                            x       y       z     vdW  Elec       q    Type
REMARK                         _______ _______ _______ _____ _____    ______ ____
ROOT
ATOM      1  C   UNL     1      39.029  -1.554  15.638  0.00  0.00    +0.000 C 
ATOM      2  N   UNL     1      39.920  -2.662  14.951  0.00  0.00    +0.000 NA
ATOM      3  C   UNL     1      41.161  -1.950  14.645  0.00  0.00    +0.000 C 
ATOM      4  C   UNL     1      40.953  -1.135  13.369  0.00  0.00    +0.000 C 
ATOM      5  C   UNL     1      39.535  -0.669  13.312  0.00  0.00    +0.000 A 
ATOM      6  C   UNL     1      38.623  -0.800  14.275  0.00  0.00    +0.000 A 
ATOM      7  N   UNL     1      37.488  -0.267  13.918  0.00  0.00    +0.000 NA
ATOM      8  C   UNL     1      37.655   0.245  12.653  0.00  0.00    +0.000 A 
ATOM      9  C   UNL     1      36.759   0.862  11.781  0.00  0.00    +0.000 A 
ATOM     10  C   UNL     1      37.121   1.235  10.522  0.00  0.00    +0.000 A 
ATOM     11  C   UNL     1      38.438   0.997  10.072  0.00  0.00    +0.000 A 
ATOM     12  C   UNL     1      39.314   0.390  10.954  0.00  0.00    +0.000 A 
ATOM     13  C   UNL     1      38.942   0.008  12.236  0.00  0.00    +0.000 A 
ENDROOT
BRANCH   1  17
ATOM     14  C   UNL     1      35.145  -3.364  15.503  0.00  0.00    +0.000 A 
ATOM     15  C   UNL     1      36.084  -3.814  14.620  0.00  0.00    +0.000 A 
ATOM     16  C   UNL     1      37.383  -3.296  14.710  0.00  0.00    +0.000 A 
ATOM     17  C   UNL     1      37.640  -2.396  15.658  0.00  0.00    +0.000 A 
ATOM     18  C   UNL     1      36.729  -1.924  16.573  0.00  0.00    +0.000 A 
ATOM     19  C   UNL     1      35.429  -2.432  16.472  0.00  0.00    +0.000 A 
BRANCH  18  20
ATOM     20  C   UNL     1      37.188  -1.065  17.704  0.00  0.00    +0.000 C 
ATOM     21  C   UNL     1      35.960  -0.219  18.206  0.00  0.00    +0.000 C 
ATOM     22  C   UNL     1      37.329  -2.112  18.954  0.00  0.00    +0.000 C 
ENDBRANCH  18  20
BRANCH  14  24
ATOM     23  C   UNL     1      33.371  -4.666  14.364  0.00  0.00    +0.000 C 
ATOM     24  O   UNL     1      33.811  -3.868  15.438  0.00  0.00    +0.000 OA
ENDBRANCH  14  24
ENDBRANCH   1  17
BRANCH  11  25
ATOM     25  O   UNL     1      38.839   1.327   8.841  0.00  0.00    +0.000 OA
BRANCH  25  26
ATOM     26  C   UNL     1      38.851   0.664   7.670  0.00  0.00    +0.000 C 
BRANCH  26  27
ATOM     27  C   UNL     1      37.725   1.036   6.795  0.00  0.00    +0.000 A 
ATOM     28  C   UNL     1      37.390   2.397   6.949  0.00  0.00    +0.000 A 
ATOM     29  C   UNL     1      36.376   2.970   6.247  0.00  0.00    +0.000 A 
ATOM     30  C   UNL     1      35.670   2.217   5.379  0.00  0.00    +0.000 A 
ATOM     31  C   UNL     1      35.929   0.846   5.152  0.00  0.00    +0.000 A 
ATOM     32  C   UNL     1      37.002   0.318   5.920  0.00  0.00    +0.000 A 
ENDBRANCH  26  27
ENDBRANCH  25  26
ENDBRANCH  11  25
TORSDOF 6
ENDMDL
MODEL 10
REMARK VINA RESULT:      -7.4      4.140      8.108
REMARK  Name = 
REMARK  6 active torsions:
REMARK  status: ('A' for Active; 'I' for Inactive)
REMARK    1  A    between atoms: O_2  and  C_3
REMARK    2  A    between atoms: C_6  and  C_7
REMARK    3  A    between atoms: C_17  and  O_18
REMARK    4  A    between atoms: O_18  and  C_19
REMARK    5  A    between atoms: C_19  and  C_20
REMARK    6  A    between atoms: C_28  and  C_29
REMARK                            x       y       z     vdW  Elec       q    Type
REMARK                         _______ _______ _______ _____ _____    ______ ____
ROOT
ATOM      1  C   UNL     1      37.440  -1.100  15.141  0.00  0.00    +0.000 C 
ATOM      2  N   UNL     1      37.758   0.154  16.047  0.00  0.00    +0.000 NA
ATOM      3  C   UNL     1      37.830   1.252  15.082  0.00  0.00    +0.000 C 
ATOM      4  C   UNL     1      39.204   1.220  14.412  0.00  0.00    +0.000 C 
ATOM      5  C   UNL     1      39.658  -0.198  14.296  0.00  0.00    +0.000 A 
ATOM      6  C   UNL     1      38.938  -1.282  14.582  0.00  0.00    +0.000 A 
ATOM      7  N   UNL     1      39.621  -2.369  14.351  0.00  0.00    +0.000 NA
ATOM      8  C   UNL     1      40.856  -1.987  13.886  0.00  0.00    +0.000 A 
ATOM      9  C   UNL     1      41.986  -2.731  13.545  0.00  0.00    +0.000 A 
ATOM     10  C   UNL     1      43.152  -2.137  13.170  0.00  0.00    +0.000 A 
ATOM     11  C   UNL     1      43.238  -0.729  13.118  0.00  0.00    +0.000 A 
ATOM     12  C   UNL     1      42.105  -0.008  13.452  0.00  0.00    +0.000 A 
ATOM     13  C   UNL     1      40.917  -0.615  13.837  0.00  0.00    +0.000 A 
ENDROOT
BRANCH   1  17
ATOM     14  C   UNL     1      38.299  -4.343  17.811  0.00  0.00    +0.000 A 
ATOM     15  C   UNL     1      38.897  -3.141  18.063  0.00  0.00    +0.000 A 
ATOM     16  C   UNL     1      38.558  -2.049  17.253  0.00  0.00    +0.000 A 
ATOM     17  C   UNL     1      37.663  -2.234  16.283  0.00  0.00    +0.000 A 
ATOM     18  C   UNL     1      37.031  -3.422  16.003  0.00  0.00    +0.000 A 
ATOM     19  C   UNL     1      37.381  -4.514  16.804  0.00  0.00    +0.000 A 
BRANCH  18  20
ATOM     20  C   UNL     1      35.908  -3.452  15.020  0.00  0.00    +0.000 C 
ATOM     21  C   UNL     1      35.545  -4.958  14.739  0.00  0.00    +0.000 C 
ATOM     22  C   UNL     1      34.604  -3.017  15.906  0.00  0.00    +0.000 C 
ENDBRANCH  18  20
BRANCH  14  24
ATOM     23  C   UNL     1      39.125  -5.340  19.923  0.00  0.00    +0.000 C 
ATOM     24  O   UNL     1      38.623  -5.477  18.615  0.00  0.00    +0.000 OA
ENDBRANCH  14  24
ENDBRANCH   1  17
BRANCH  11  25
ATOM     25  O   UNL     1      44.363  -0.096  12.773  0.00  0.00    +0.000 OA
BRANCH  25  26
ATOM     26  C   UNL     1      45.308   0.549  13.481  0.00  0.00    +0.000 C 
BRANCH  26  27
ATOM     27  C   UNL     1      45.707  -0.183  14.695  0.00  0.00    +0.000 A 
ATOM     28  C   UNL     1      46.697  -1.145  14.407  0.00  0.00    +0.000 A 
ATOM     29  C   UNL     1      47.220  -1.949  15.372  0.00  0.00    +0.000 A 
ATOM     30  C   UNL     1      46.780  -1.824  16.640  0.00  0.00    +0.000 A 
ATOM     31  C   UNL     1      45.793  -0.891  17.031  0.00  0.00    +0.000 A 
ATOM     32  C   UNL     1      45.295  -0.086  15.970  0.00  0.00    +0.000 A 
ENDBRANCH  26  27
ENDBRANCH  25  26
ENDBRANCH  11  25
TORSDOF 6
ENDMDL
