MODEL 1
REMARK VINA RESULT:      -8.6      0.000      0.000
REMARK  Name = 
REMARK  7 active torsions:
REMARK  status: ('A' for Active; 'I' for Inactive)
REMARK    1  A    between atoms: C_5  and  C_6
REMARK    2  A    between atoms: C_14  and  O_15
REMARK    3  A    between atoms: O_15  and  C_16
REMARK    4  A    between atoms: C_19  and  O_20
REMARK    5  A    between atoms: O_20  and  C_21
REMARK    6  A    between atoms: C_21  and  C_22
REMARK    7  A    between atoms: C_22  and  N_23
REMARK                            x       y       z     vdW  Elec       q    Type
REMARK                         _______ _______ _______ _____ _____    ______ ____
ROOT
ATOM      1  C   UNL     1      11.843  -0.836  27.007  0.00  0.00    +0.000 A 
ATOM      2  S   UNL     1      10.480  -0.103  26.290  0.00  0.00    +0.000 S 
ATOM      3  C   UNL     1      10.940   1.530  26.432  0.00  0.00    +0.000 A 
ATOM      4  C   UNL     1      10.350   2.751  26.073  0.00  0.00    +0.000 A 
ATOM      5  C   UNL     1      10.971   3.959  26.318  0.00  0.00    +0.000 A 
ATOM      6  C   UNL     1      12.197   3.885  26.932  0.00  0.00    +0.000 A 
ATOM      7  C   UNL     1      12.769   2.722  27.278  0.00  0.00    +0.000 A 
ATOM      8  C   UNL     1      12.161   1.462  27.043  0.00  0.00    +0.000 A 
ATOM      9  C   UNL     1      12.626   0.223  27.340  0.00  0.00    +0.000 A 
ENDROOT
BRANCH   1  14
ATOM     10  O   UNL     1      12.872  -6.277  27.877  0.00  0.00    +0.000 OA
ATOM     11  C   UNL     1      12.619  -4.930  27.629  0.00  0.00    +0.000 A 
ATOM     12  C   UNL     1      12.450  -4.096  28.707  0.00  0.00    +0.000 A 
ATOM     13  C   UNL     1      12.199  -2.763  28.492  0.00  0.00    +0.000 A 
ATOM     14  C   UNL     1      12.118  -2.279  27.222  0.00  0.00    +0.000 A 
ATOM     15  C   UNL     1      12.281  -3.088  26.134  0.00  0.00    +0.000 A 
ATOM     16  C   UNL     1      12.533  -4.425  26.346  0.00  0.00    +0.000 A 
ENDBRANCH   1  14
BRANCH   9  17
ATOM     17  O   UNL     1      13.874  -0.003  27.972  0.00  0.00    +0.000 OA
BRANCH  17  18
ATOM     18  C   UNL     1      15.061   0.168  27.278  0.00  0.00    +0.000 A 
ATOM     19  C   UNL     1      15.264  -0.502  26.092  0.00  0.00    +0.000 A 
ATOM     20  C   UNL     1      16.452  -0.349  25.371  0.00  0.00    +0.000 A 
ATOM     21  C   UNL     1      17.459   0.475  25.816  0.00  0.00    +0.000 A 
ATOM     22  C   UNL     1      17.261   1.148  27.001  0.00  0.00    +0.000 A 
ATOM     23  C   UNL     1      16.076   0.993  27.718  0.00  0.00    +0.000 A 
BRANCH  21  24
ATOM     24  O   UNL     1      18.659   0.644  25.111  0.00  0.00    +0.000 OA
BRANCH  24  25
ATOM     25  C   UNL     1      19.460  -0.457  24.731  0.00  0.00    +0.000 C 
BRANCH  25  26
ATOM     26  C   UNL     1      20.808   0.126  24.312  0.00  0.00    +0.000 C 
BRANCH  26  27
ATOM     27  N   UNL     1      21.282  -0.423  23.067  0.00  0.00    +0.000 NA
ATOM     28  C   UNL     1      21.403   0.533  22.013  0.00  0.00    +0.000 C 
ATOM     29  C   UNL     1      20.362   0.174  20.972  0.00  0.00    +0.000 C 
ATOM     30  C   UNL     1      20.319  -1.341  21.108  0.00  0.00    +0.000 C 
ATOM     31  C   UNL     1      20.536  -1.544  22.588  0.00  0.00    +0.000 C 
ENDBRANCH  26  27
ENDBRANCH  25  26
ENDBRANCH  24  25
ENDBRANCH  21  24
ENDBRANCH  17  18
ENDBRANCH   9  17
TORSDOF 7
ENDMDL
MODEL 2
REMARK VINA RESULT:      -7.8     20.157     24.222
REMARK  Name = 
REMARK  7 active torsions:
REMARK  status: ('A' for Active; 'I' for Inactive)
REMARK    1  A    between atoms: C_5  and  C_6
REMARK    2  A    between atoms: C_14  and  O_15
REMARK    3  A    between atoms: O_15  and  C_16
REMARK    4  A    between atoms: C_19  and  O_20
REMARK    5  A    between atoms: O_20  and  C_21
REMARK    6  A    between atoms: C_21  and  C_22
REMARK    7  A    between atoms: C_22  and  N_23
REMARK                            x       y       z     vdW  Elec       q    Type
REMARK                         _______ _______ _______ _____ _____    ______ ____
ROOT
ATOM      1  C   UNL     1      35.984  -3.063  15.493  0.00  0.00    +0.000 A 
ATOM      2  S   UNL     1      34.851  -4.259  15.048  0.00  0.00    +0.000 S 
ATOM      3  C   UNL     1      33.499  -3.689  15.911  0.00  0.00    +0.000 A 
ATOM      4  C   UNL     1      32.174  -4.127  16.061  0.00  0.00    +0.000 A 
ATOM      5  C   UNL     1      31.267  -3.448  16.848  0.00  0.00    +0.000 A 
ATOM      6  C   UNL     1      31.746  -2.321  17.471  0.00  0.00    +0.000 A 
ATOM      7  C   UNL     1      33.011  -1.895  17.333  0.00  0.00    +0.000 A 
ATOM      8  C   UNL     1      33.970  -2.567  16.533  0.00  0.00    +0.000 A 
ATOM      9  C   UNL     1      35.269  -2.246  16.310  0.00  0.00    +0.000 A 
ENDROOT
BRANCH   1  14
ATOM     10  O   UNL     1      41.377  -2.599  14.038  0.00  0.00    +0.000 OA
ATOM     11  C   UNL     1      40.029  -2.708  14.369  0.00  0.00    +0.000 A 
ATOM     12  C   UNL     1      39.705  -2.954  15.681  0.00  0.00    +0.000 A 
ATOM     13  C   UNL     1      38.382  -3.067  16.035  0.00  0.00    +0.000 A 
ATOM     14  C   UNL     1      37.408  -2.936  15.093  0.00  0.00    +0.000 A 
ATOM     15  C   UNL     1      37.705  -2.692  13.783  0.00  0.00    +0.000 A 
ATOM     16  C   UNL     1      39.030  -2.579  13.424  0.00  0.00    +0.000 A 
ENDBRANCH   1  14
BRANCH   9  17
ATOM     17  O   UNL     1      35.894  -1.112  16.885  0.00  0.00    +0.000 OA
BRANCH  17  18
ATOM     18  C   UNL     1      35.770   0.138  16.301  0.00  0.00    +0.000 A 
ATOM     19  C   UNL     1      34.945   1.082  16.872  0.00  0.00    +0.000 A 
ATOM     20  C   UNL     1      34.800   2.351  16.304  0.00  0.00    +0.000 A 
ATOM     21  C   UNL     1      35.472   2.704  15.157  0.00  0.00    +0.000 A 
ATOM     22  C   UNL     1      36.298   1.764  14.583  0.00  0.00    +0.000 A 
ATOM     23  C   UNL     1      36.441   0.500  15.151  0.00  0.00    +0.000 A 
BRANCH  21  24
ATOM     24  O   UNL     1      35.342   3.969  14.568  0.00  0.00    +0.000 OA
BRANCH  24  25
ATOM     25  C   UNL     1      36.189   4.390  13.516  0.00  0.00    +0.000 C 
BRANCH  25  26
ATOM     26  C   UNL     1      36.688   5.780  13.907  0.00  0.00    +0.000 C 
BRANCH  26  27
ATOM     27  N   UNL     1      35.887   6.832  13.335  0.00  0.00    +0.000 NA
ATOM     28  C   UNL     1      34.988   7.451  14.256  0.00  0.00    +0.000 C 
ATOM     29  C   UNL     1      33.585   7.092  13.811  0.00  0.00    +0.000 C 
ATOM     30  C   UNL     1      33.764   7.019  12.301  0.00  0.00    +0.000 C 
ATOM     31  C   UNL     1      35.159   6.458  12.163  0.00  0.00    +0.000 C 
ENDBRANCH  26  27
ENDBRANCH  25  26
ENDBRANCH  24  25
ENDBRANCH  21  24
ENDBRANCH  17  18
ENDBRANCH   9  17
TORSDOF 7
ENDMDL
MODEL 3
REMARK VINA RESULT:      -7.8     20.046     24.357
REMARK  Name = 
REMARK  7 active torsions:
REMARK  status: ('A' for Active; 'I' for Inactive)
REMARK    1  A    between atoms: C_5  and  C_6
REMARK    2  A    between atoms: C_14  and  O_15
REMARK    3  A    between atoms: O_15  and  C_16
REMARK    4  A    between atoms: C_19  and  O_20
REMARK    5  A    between atoms: O_20  and  C_21
REMARK    6  A    between atoms: C_21  and  C_22
REMARK    7  A    between atoms: C_22  and  N_23
REMARK                            x       y       z     vdW  Elec       q    Type
REMARK                         _______ _______ _______ _____ _____    ______ ____
ROOT
ATOM      1  C   UNL     1      35.827  -3.098  15.468  0.00  0.00    +0.000 A 
ATOM      2  S   UNL     1      34.687  -4.301  15.066  0.00  0.00    +0.000 S 
ATOM      3  C   UNL     1      33.350  -3.715  15.943  0.00  0.00    +0.000 A 
ATOM      4  C   UNL     1      32.029  -4.150  16.125  0.00  0.00    +0.000 A 
ATOM      5  C   UNL     1      31.136  -3.455  16.915  0.00  0.00    +0.000 A 
ATOM      6  C   UNL     1      31.626  -2.317  17.507  0.00  0.00    +0.000 A 
ATOM      7  C   UNL     1      32.887  -1.894  17.338  0.00  0.00    +0.000 A 
ATOM      8  C   UNL     1      33.832  -2.581  16.535  0.00  0.00    +0.000 A 
ATOM      9  C   UNL     1      35.127  -2.266  16.282  0.00  0.00    +0.000 A 
ENDROOT
BRANCH   1  14
ATOM     10  O   UNL     1      41.158  -2.634  13.798  0.00  0.00    +0.000 OA
ATOM     11  C   UNL     1      39.844  -2.754  14.243  0.00  0.00    +0.000 A 
ATOM     12  C   UNL     1      38.838  -2.674  13.312  0.00  0.00    +0.000 A 
ATOM     13  C   UNL     1      37.532  -2.788  13.723  0.00  0.00    +0.000 A 
ATOM     14  C   UNL     1      37.244  -2.979  15.040  0.00  0.00    +0.000 A 
ATOM     15  C   UNL     1      38.226  -3.061  15.985  0.00  0.00    +0.000 A 
ATOM     16  C   UNL     1      39.537  -2.946  15.576  0.00  0.00    +0.000 A 
ENDBRANCH   1  14
BRANCH   9  17
ATOM     17  O   UNL     1      35.763  -1.120  16.824  0.00  0.00    +0.000 OA
BRANCH  17  18
ATOM     18  C   UNL     1      35.646   0.114  16.206  0.00  0.00    +0.000 A 
ATOM     19  C   UNL     1      34.948   1.127  16.825  0.00  0.00    +0.000 A 
ATOM     20  C   UNL     1      34.813   2.382  16.224  0.00  0.00    +0.000 A 
ATOM     21  C   UNL     1      35.370   2.653  14.996  0.00  0.00    +0.000 A 
ATOM     22  C   UNL     1      36.069   1.643  14.373  0.00  0.00    +0.000 A 
ATOM     23  C   UNL     1      36.202   0.392  14.974  0.00  0.00    +0.000 A 
BRANCH  21  24
ATOM     24  O   UNL     1      35.248   3.901  14.373  0.00  0.00    +0.000 OA
BRANCH  24  25
ATOM     25  C   UNL     1      36.368   4.573  13.828  0.00  0.00    +0.000 C 
BRANCH  25  26
ATOM     26  C   UNL     1      36.894   5.484  14.935  0.00  0.00    +0.000 C 
BRANCH  26  27
ATOM     27  N   UNL     1      38.165   5.043  15.452  0.00  0.00    +0.000 NA
ATOM     28  C   UNL     1      38.071   4.234  16.626  0.00  0.00    +0.000 C 
ATOM     29  C   UNL     1      38.674   5.036  17.761  0.00  0.00    +0.000 C 
ATOM     30  C   UNL     1      39.752   5.822  17.028  0.00  0.00    +0.000 C 
ATOM     31  C   UNL     1      39.108   6.090  15.689  0.00  0.00    +0.000 C 
ENDBRANCH  26  27
ENDBRANCH  25  26
ENDBRANCH  24  25
ENDBRANCH  21  24
ENDBRANCH  17  18
ENDBRANCH   9  17
TORSDOF 7
ENDMDL
MODEL 4
REMARK VINA RESULT:      -7.6     23.114     26.270
REMARK  Name = 
REMARK  7 active torsions:
REMARK  status: ('A' for Active; 'I' for Inactive)
REMARK    1  A    between atoms: C_5  and  C_6
REMARK    2  A    between atoms: C_14  and  O_15
REMARK    3  A    between atoms: O_15  and  C_16
REMARK    4  A    between atoms: C_19  and  O_20
REMARK    5  A    between atoms: O_20  and  C_21
REMARK    6  A    between atoms: C_21  and  C_22
REMARK    7  A    between atoms: C_22  and  N_23
REMARK                            x       y       z     vdW  Elec       q    Type
REMARK                         _______ _______ _______ _____ _____    ______ ____
ROOT
ATOM      1  C   UNL     1      36.146  -1.512  16.231  0.00  0.00    +0.000 A 
ATOM      2  S   UNL     1      35.238  -0.459  17.219  0.00  0.00    +0.000 S 
ATOM      3  C   UNL     1      35.279   0.935  16.244  0.00  0.00    +0.000 A 
ATOM      4  C   UNL     1      34.758   2.233  16.363  0.00  0.00    +0.000 A 
ATOM      5  C   UNL     1      34.954   3.188  15.387  0.00  0.00    +0.000 A 
ATOM      6  C   UNL     1      35.688   2.786  14.299  0.00  0.00    +0.000 A 
ATOM      7  C   UNL     1      36.190   1.548  14.176  0.00  0.00    +0.000 A 
ATOM      8  C   UNL     1      36.010   0.541  15.158  0.00  0.00    +0.000 A 
ATOM      9  C   UNL     1      36.459  -0.739  15.159  0.00  0.00    +0.000 A 
ENDROOT
BRANCH   1  14
ATOM     10  O   UNL     1      37.578  -6.847  17.184  0.00  0.00    +0.000 OA
ATOM     11  C   UNL     1      37.198  -5.532  16.930  0.00  0.00    +0.000 A 
ATOM     12  C   UNL     1      37.972  -4.524  17.451  0.00  0.00    +0.000 A 
ATOM     13  C   UNL     1      37.619  -3.218  17.216  0.00  0.00    +0.000 A 
ATOM     14  C   UNL     1      36.514  -2.930  16.474  0.00  0.00    +0.000 A 
ATOM     15  C   UNL     1      35.729  -3.914  15.946  0.00  0.00    +0.000 A 
ATOM     16  C   UNL     1      36.079  -5.225  16.180  0.00  0.00    +0.000 A 
ENDBRANCH   1  14
BRANCH   9  17
ATOM     17  O   UNL     1      37.227  -1.289  14.102  0.00  0.00    +0.000 OA
BRANCH  17  18
ATOM     18  C   UNL     1      38.607  -1.364  14.194  0.00  0.00    +0.000 A 
ATOM     19  C   UNL     1      39.357  -0.210  14.213  0.00  0.00    +0.000 A 
ATOM     20  C   UNL     1      40.751  -0.256  14.305  0.00  0.00    +0.000 A 
ATOM     21  C   UNL     1      41.425  -1.453  14.380  0.00  0.00    +0.000 A 
ATOM     22  C   UNL     1      40.680  -2.610  14.362  0.00  0.00    +0.000 A 
ATOM     23  C   UNL     1      39.290  -2.561  14.270  0.00  0.00    +0.000 A 
BRANCH  21  24
ATOM     24  O   UNL     1      42.821  -1.525  14.472  0.00  0.00    +0.000 OA
BRANCH  24  25
ATOM     25  C   UNL     1      43.592  -2.247  13.531  0.00  0.00    +0.000 C 
BRANCH  25  26
ATOM     26  C   UNL     1      43.774  -1.316  12.333  0.00  0.00    +0.000 C 
BRANCH  26  27
ATOM     27  N   UNL     1      43.135  -1.821  11.144  0.00  0.00    +0.000 NA
ATOM     28  C   UNL     1      42.116  -0.969  10.620  0.00  0.00    +0.000 C 
ATOM     29  C   UNL     1      40.800  -1.699  10.796  0.00  0.00    +0.000 C 
ATOM     30  C   UNL     1      41.241  -3.147  10.631  0.00  0.00    +0.000 C 
ATOM     31  C   UNL     1      42.611  -3.145  11.264  0.00  0.00    +0.000 C 
ENDBRANCH  26  27
ENDBRANCH  25  26
ENDBRANCH  24  25
ENDBRANCH  21  24
ENDBRANCH  17  18
ENDBRANCH   9  17
TORSDOF 7
ENDMDL
MODEL 5
REMARK VINA RESULT:      -7.5     23.448     27.916
REMARK  Name = 
REMARK  7 active torsions:
REMARK  status: ('A' for Active; 'I' for Inactive)
REMARK    1  A    between atoms: C_5  and  C_6
REMARK    2  A    between atoms: C_14  and  O_15
REMARK    3  A    between atoms: O_15  and  C_16
REMARK    4  A    between atoms: C_19  and  O_20
REMARK    5  A    between atoms: O_20  and  C_21
REMARK    6  A    between atoms: C_21  and  C_22
REMARK    7  A    between atoms: C_22  and  N_23
REMARK                            x       y       z     vdW  Elec       q    Type
REMARK                         _______ _______ _______ _____ _____    ______ ____
ROOT
ATOM      1  C   UNL     1      42.193   8.186  20.486  0.00  0.00    +0.000 A 
ATOM      2  S   UNL     1      42.090   9.877  20.675  0.00  0.00    +0.000 S 
ATOM      3  C   UNL     1      40.404  10.066  20.541  0.00  0.00    +0.000 A 
ATOM      4  C   UNL     1      39.531  11.163  20.589  0.00  0.00    +0.000 A 
ATOM      5  C   UNL     1      38.167  11.016  20.445  0.00  0.00    +0.000 A 
ATOM      6  C   UNL     1      37.724   9.731  20.252  0.00  0.00    +0.000 A 
ATOM      7  C   UNL     1      38.551   8.675  20.205  0.00  0.00    +0.000 A 
ATOM      8  C   UNL     1      39.957   8.788  20.349  0.00  0.00    +0.000 A 
ATOM      9  C   UNL     1      40.898   7.812  20.321  0.00  0.00    +0.000 A 
ENDROOT
BRANCH   1  14
ATOM     10  O   UNL     1      46.729   4.891  20.567  0.00  0.00    +0.000 OA
ATOM     11  C   UNL     1      45.612   5.723  20.519  0.00  0.00    +0.000 A 
ATOM     12  C   UNL     1      44.720   5.665  21.561  0.00  0.00    +0.000 A 
ATOM     13  C   UNL     1      43.609   6.473  21.539  0.00  0.00    +0.000 A 
ATOM     14  C   UNL     1      43.400   7.320  20.494  0.00  0.00    +0.000 A 
ATOM     15  C   UNL     1      44.272   7.396  19.447  0.00  0.00    +0.000 A 
ATOM     16  C   UNL     1      45.386   6.586  19.465  0.00  0.00    +0.000 A 
ENDBRANCH   1  14
BRANCH   9  17
ATOM     17  O   UNL     1      40.585   6.442  20.132  0.00  0.00    +0.000 OA
BRANCH  17  18
ATOM     18  C   UNL     1      40.136   5.982  18.905  0.00  0.00    +0.000 A 
ATOM     19  C   UNL     1      40.840   6.283  17.760  0.00  0.00    +0.000 A 
ATOM     20  C   UNL     1      40.410   5.832  16.509  0.00  0.00    +0.000 A 
ATOM     21  C   UNL     1      39.271   5.073  16.372  0.00  0.00    +0.000 A 
ATOM     22  C   UNL     1      38.563   4.769  17.514  0.00  0.00    +0.000 A 
ATOM     23  C   UNL     1      38.995   5.220  18.760  0.00  0.00    +0.000 A 
BRANCH  21  24
ATOM     24  O   UNL     1      38.819   4.611  15.130  0.00  0.00    +0.000 OA
BRANCH  24  25
ATOM     25  C   UNL     1      38.916   3.248  14.764  0.00  0.00    +0.000 C 
BRANCH  25  26
ATOM     26  C   UNL     1      37.482   2.725  14.701  0.00  0.00    +0.000 C 
BRANCH  26  27
ATOM     27  N   UNL     1      37.115   1.986  15.882  0.00  0.00    +0.000 NA
ATOM     28  C   UNL     1      36.973   0.580  15.672  0.00  0.00    +0.000 C 
ATOM     29  C   UNL     1      35.505   0.254  15.859  0.00  0.00    +0.000 C 
ATOM     30  C   UNL     1      35.109   1.272  16.920  0.00  0.00    +0.000 C 
ATOM     31  C   UNL     1      35.950   2.471  16.552  0.00  0.00    +0.000 C 
ENDBRANCH  26  27
ENDBRANCH  25  26
ENDBRANCH  24  25
ENDBRANCH  21  24
ENDBRANCH  17  18
ENDBRANCH   9  17
TORSDOF 7
ENDMDL
MODEL 6
REMARK VINA RESULT:      -7.5     22.968     26.719
REMARK  Name = 
REMARK  7 active torsions:
REMARK  status: ('A' for Active; 'I' for Inactive)
REMARK    1  A    between atoms: C_5  and  C_6
REMARK    2  A    between atoms: C_14  and  O_15
REMARK    3  A    between atoms: O_15  and  C_16
REMARK    4  A    between atoms: C_19  and  O_20
REMARK    5  A    between atoms: O_20  and  C_21
REMARK    6  A    between atoms: C_21  and  C_22
REMARK    7  A    between atoms: C_22  and  N_23
REMARK                            x       y       z     vdW  Elec       q    Type
REMARK                         _______ _______ _______ _____ _____    ______ ____
ROOT
ATOM      1  C   UNL     1      38.734  -1.754  15.496  0.00  0.00    +0.000 A 
ATOM      2  S   UNL     1      38.802  -2.564  16.995  0.00  0.00    +0.000 S 
ATOM      3  C   UNL     1      37.564  -1.729  17.814  0.00  0.00    +0.000 A 
ATOM      4  C   UNL     1      37.010  -1.810  19.101  0.00  0.00    +0.000 A 
ATOM      5  C   UNL     1      35.984  -0.981  19.504  0.00  0.00    +0.000 A 
ATOM      6  C   UNL     1      35.545  -0.078  18.568  0.00  0.00    +0.000 A 
ATOM      7  C   UNL     1      36.069   0.007  17.336  0.00  0.00    +0.000 A 
ATOM      8  C   UNL     1      37.123  -0.827  16.886  0.00  0.00    +0.000 A 
ATOM      9  C   UNL     1      37.739  -0.847  15.678  0.00  0.00    +0.000 A 
ENDROOT
BRANCH   1  14
ATOM     10  O   UNL     1      41.794  -2.607  10.878  0.00  0.00    +0.000 OA
ATOM     11  C   UNL     1      41.060  -2.384  12.040  0.00  0.00    +0.000 A 
ATOM     12  C   UNL     1      39.734  -2.743  12.044  0.00  0.00    +0.000 A 
ATOM     13  C   UNL     1      38.986  -2.533  13.178  0.00  0.00    +0.000 A 
ATOM     14  C   UNL     1      39.557  -1.976  14.281  0.00  0.00    +0.000 A 
ATOM     15  C   UNL     1      40.873  -1.610  14.300  0.00  0.00    +0.000 A 
ATOM     16  C   UNL     1      41.625  -1.818  13.166  0.00  0.00    +0.000 A 
ENDBRANCH   1  14
BRANCH   9  17
ATOM     17  O   UNL     1      37.389   0.028  14.618  0.00  0.00    +0.000 OA
BRANCH  17  18
ATOM     18  C   UNL     1      37.802   1.350  14.626  0.00  0.00    +0.000 A 
ATOM     19  C   UNL     1      36.873   2.357  14.763  0.00  0.00    +0.000 A 
ATOM     20  C   UNL     1      37.262   3.700  14.773  0.00  0.00    +0.000 A 
ATOM     21  C   UNL     1      38.582   4.066  14.647  0.00  0.00    +0.000 A 
ATOM     22  C   UNL     1      39.514   3.062  14.509  0.00  0.00    +0.000 A 
ATOM     23  C   UNL     1      39.124   1.724  14.500  0.00  0.00    +0.000 A 
BRANCH  21  24
ATOM     24  O   UNL     1      38.996   5.404  14.653  0.00  0.00    +0.000 OA
BRANCH  24  25
ATOM     25  C   UNL     1      38.853   6.221  15.799  0.00  0.00    +0.000 C 
BRANCH  25  26
ATOM     26  C   UNL     1      40.264   6.437  16.342  0.00  0.00    +0.000 C 
BRANCH  26  27
ATOM     27  N   UNL     1      40.464   5.804  17.620  0.00  0.00    +0.000 NA
ATOM     28  C   UNL     1      39.266   5.621  18.377  0.00  0.00    +0.000 C 
ATOM     29  C   UNL     1      39.371   6.523  19.590  0.00  0.00    +0.000 C 
ATOM     30  C   UNL     1      40.872   6.499  19.847  0.00  0.00    +0.000 C 
ATOM     31  C   UNL     1      41.442   6.432  18.451  0.00  0.00    +0.000 C 
ENDBRANCH  26  27
ENDBRANCH  25  26
ENDBRANCH  24  25
ENDBRANCH  21  24
ENDBRANCH  17  18
ENDBRANCH   9  17
TORSDOF 7
ENDMDL
MODEL 7
REMARK VINA RESULT:      -7.4     23.564     27.318
REMARK  Name = 
REMARK  7 active torsions:
REMARK  status: ('A' for Active; 'I' for Inactive)
REMARK    1  A    between atoms: C_5  and  C_6
REMARK    2  A    between atoms: C_14  and  O_15
REMARK    3  A    between atoms: O_15  and  C_16
REMARK    4  A    between atoms: C_19  and  O_20
REMARK    5  A    between atoms: O_20  and  C_21
REMARK    6  A    between atoms: C_21  and  C_22
REMARK    7  A    between atoms: C_22  and  N_23
REMARK                            x       y       z     vdW  Elec       q    Type
REMARK                         _______ _______ _______ _____ _____    ______ ____
ROOT
ATOM      1  C   UNL     1      40.378   8.466  19.860  0.00  0.00    +0.000 A 
ATOM      2  S   UNL     1      41.635   9.546  20.266  0.00  0.00    +0.000 S 
ATOM      3  C   UNL     1      42.812   8.421  20.763  0.00  0.00    +0.000 A 
ATOM      4  C   UNL     1      44.126   8.522  21.244  0.00  0.00    +0.000 A 
ATOM      5  C   UNL     1      44.867   7.408  21.578  0.00  0.00    +0.000 A 
ATOM      6  C   UNL     1      44.235   6.201  21.411  0.00  0.00    +0.000 A 
ATOM      7  C   UNL     1      42.979   6.094  20.951  0.00  0.00    +0.000 A 
ATOM      8  C   UNL     1      42.188   7.216  20.598  0.00  0.00    +0.000 A 
ATOM      9  C   UNL     1      40.917   7.248  20.125  0.00  0.00    +0.000 A 
ENDROOT
BRANCH   1  14
ATOM     10  O   UNL     1      35.275   9.630  17.853  0.00  0.00    +0.000 OA
ATOM     11  C   UNL     1      36.530   9.333  18.380  0.00  0.00    +0.000 A 
ATOM     12  C   UNL     1      37.629   9.540  17.583  0.00  0.00    +0.000 A 
ATOM     13  C   UNL     1      38.879   9.254  18.077  0.00  0.00    +0.000 A 
ATOM     14  C   UNL     1      39.021   8.772  19.342  0.00  0.00    +0.000 A 
ATOM     15  C   UNL     1      37.943   8.557  20.153  0.00  0.00    +0.000 A 
ATOM     16  C   UNL     1      36.688   8.841  19.661  0.00  0.00    +0.000 A 
ENDBRANCH   1  14
BRANCH   9  17
ATOM     17  O   UNL     1      40.146   6.080  19.903  0.00  0.00    +0.000 OA
BRANCH  17  18
ATOM     18  C   UNL     1      39.793   5.698  18.619  0.00  0.00    +0.000 A 
ATOM     19  C   UNL     1      40.589   6.057  17.554  0.00  0.00    +0.000 A 
ATOM     20  C   UNL     1      40.257   5.686  16.247  0.00  0.00    +0.000 A 
ATOM     21  C   UNL     1      39.127   4.952  15.976  0.00  0.00    +0.000 A 
ATOM     22  C   UNL     1      38.328   4.590  17.037  0.00  0.00    +0.000 A 
ATOM     23  C   UNL     1      38.661   4.961  18.339  0.00  0.00    +0.000 A 
BRANCH  21  24
ATOM     24  O   UNL     1      38.773   4.569  14.676  0.00  0.00    +0.000 OA
BRANCH  24  25
ATOM     25  C   UNL     1      38.630   3.209  14.314  0.00  0.00    +0.000 C 
BRANCH  25  26
ATOM     26  C   UNL     1      37.272   3.097  13.622  0.00  0.00    +0.000 C 
BRANCH  26  27
ATOM     27  N   UNL     1      36.403   2.147  14.269  0.00  0.00    +0.000 NA
ATOM     28  C   UNL     1      35.156   2.694  14.701  0.00  0.00    +0.000 C 
ATOM     29  C   UNL     1      35.165   2.664  16.216  0.00  0.00    +0.000 C 
ATOM     30  C   UNL     1      35.990   1.413  16.482  0.00  0.00    +0.000 C 
ATOM     31  C   UNL     1      36.998   1.440  15.359  0.00  0.00    +0.000 C 
ENDBRANCH  26  27
ENDBRANCH  25  26
ENDBRANCH  24  25
ENDBRANCH  21  24
ENDBRANCH  17  18
ENDBRANCH   9  17
TORSDOF 7
ENDMDL
MODEL 8
REMARK VINA RESULT:      -7.1     23.479     26.054
REMARK  Name = 
REMARK  7 active torsions:
REMARK  status: ('A' for Active; 'I' for Inactive)
REMARK    1  A    between atoms: C_5  and  C_6
REMARK    2  A    between atoms: C_14  and  O_15
REMARK    3  A    between atoms: O_15  and  C_16
REMARK    4  A    between atoms: C_19  and  O_20
REMARK    5  A    between atoms: O_20  and  C_21
REMARK    6  A    between atoms: C_21  and  C_22
REMARK    7  A    between atoms: C_22  and  N_23
REMARK                            x       y       z     vdW  Elec       q    Type
REMARK                         _______ _______ _______ _____ _____    ______ ____
ROOT
ATOM      1  C   UNL     1      38.211   6.801  16.158  0.00  0.00    +0.000 A 
ATOM      2  S   UNL     1      37.253   8.158  15.771  0.00  0.00    +0.000 S 
ATOM      3  C   UNL     1      36.430   7.534  14.417  0.00  0.00    +0.000 A 
ATOM      4  C   UNL     1      35.465   8.042  13.535  0.00  0.00    +0.000 A 
ATOM      5  C   UNL     1      34.961   7.289  12.494  0.00  0.00    +0.000 A 
ATOM      6  C   UNL     1      35.467   6.018  12.381  0.00  0.00    +0.000 A 
ATOM      7  C   UNL     1      36.390   5.524  13.219  0.00  0.00    +0.000 A 
ATOM      8  C   UNL     1      36.930   6.267  14.299  0.00  0.00    +0.000 A 
ATOM      9  C   UNL     1      37.860   5.892  15.212  0.00  0.00    +0.000 A 
ENDROOT
BRANCH   1  14
ATOM     10  O   UNL     1      41.884   6.183  20.349  0.00  0.00    +0.000 OA
ATOM     11  C   UNL     1      40.995   6.341  19.287  0.00  0.00    +0.000 A 
ATOM     12  C   UNL     1      39.650   6.284  19.558  0.00  0.00    +0.000 A 
ATOM     13  C   UNL     1      38.753   6.436  18.529  0.00  0.00    +0.000 A 
ATOM     14  C   UNL     1      39.196   6.641  17.258  0.00  0.00    +0.000 A 
ATOM     15  C   UNL     1      40.528   6.700  16.964  0.00  0.00    +0.000 A 
ATOM     16  C   UNL     1      41.431   6.547  17.993  0.00  0.00    +0.000 A 
ENDBRANCH   1  14
BRANCH   9  17
ATOM     17  O   UNL     1      38.465   4.610  15.216  0.00  0.00    +0.000 OA
BRANCH  17  18
ATOM     18  C   UNL     1      37.727   3.479  15.523  0.00  0.00    +0.000 A 
ATOM     19  C   UNL     1      37.757   2.391  14.680  0.00  0.00    +0.000 A 
ATOM     20  C   UNL     1      37.021   1.236  14.965  0.00  0.00    +0.000 A 
ATOM     21  C   UNL     1      36.241   1.144  16.094  0.00  0.00    +0.000 A 
ATOM     22  C   UNL     1      36.207   2.230  16.940  0.00  0.00    +0.000 A 
ATOM     23  C   UNL     1      36.942   3.379  16.654  0.00  0.00    +0.000 A 
BRANCH  21  24
ATOM     24  O   UNL     1      35.494  -0.001  16.401  0.00  0.00    +0.000 OA
BRANCH  24  25
ATOM     25  C   UNL     1      36.080  -1.125  17.028  0.00  0.00    +0.000 C 
BRANCH  25  26
ATOM     26  C   UNL     1      36.132  -2.222  15.966  0.00  0.00    +0.000 C 
BRANCH  26  27
ATOM     27  N   UNL     1      37.454  -2.771  15.808  0.00  0.00    +0.000 NA
ATOM     28  C   UNL     1      38.459  -2.110  16.578  0.00  0.00    +0.000 C 
ATOM     29  C   UNL     1      39.384  -1.422  15.595  0.00  0.00    +0.000 C 
ATOM     30  C   UNL     1      39.331  -2.384  14.416  0.00  0.00    +0.000 C 
ATOM     31  C   UNL     1      37.902  -2.869  14.454  0.00  0.00    +0.000 C 
ENDBRANCH  26  27
ENDBRANCH  25  26
ENDBRANCH  24  25
ENDBRANCH  21  24
ENDBRANCH  17  18
ENDBRANCH   9  17
TORSDOF 7
ENDMDL
MODEL 9
REMARK VINA RESULT:      -7.0     24.350     27.554
REMARK  Name = 
REMARK  7 active torsions:
REMARK  status: ('A' for Active; 'I' for Inactive)
REMARK    1  A    between atoms: C_5  and  C_6
REMARK    2  A    between atoms: C_14  and  O_15
REMARK    3  A    between atoms: O_15  and  C_16
REMARK    4  A    between atoms: C_19  and  O_20
REMARK    5  A    between atoms: O_20  and  C_21
REMARK    6  A    between atoms: C_21  and  C_22
REMARK    7  A    between atoms: C_22  and  N_23
REMARK                            x       y       z     vdW  Elec       q    Type
REMARK                         _______ _______ _______ _____ _____    ______ ____
ROOT
ATOM      1  C   UNL     1      40.458   8.485  19.910  0.00  0.00    +0.000 A 
ATOM      2  S   UNL     1      41.695   9.569  20.358  0.00  0.00    +0.000 S 
ATOM      3  C   UNL     1      42.889   8.447  20.820  0.00  0.00    +0.000 A 
ATOM      4  C   UNL     1      44.200   8.553  21.309  0.00  0.00    +0.000 A 
ATOM      5  C   UNL     1      44.958   7.440  21.607  0.00  0.00    +0.000 A 
ATOM      6  C   UNL     1      44.347   6.229  21.395  0.00  0.00    +0.000 A 
ATOM      7  C   UNL     1      43.094   6.118  20.928  0.00  0.00    +0.000 A 
ATOM      8  C   UNL     1      42.286   7.239  20.610  0.00  0.00    +0.000 A 
ATOM      9  C   UNL     1      41.016   7.267  20.135  0.00  0.00    +0.000 A 
ENDROOT
BRANCH   1  14
ATOM     10  O   UNL     1      35.343   9.635  17.926  0.00  0.00    +0.000 OA
ATOM     11  C   UNL     1      36.601   9.339  18.446  0.00  0.00    +0.000 A 
ATOM     12  C   UNL     1      37.700   9.618  17.673  0.00  0.00    +0.000 A 
ATOM     13  C   UNL     1      38.953   9.336  18.161  0.00  0.00    +0.000 A 
ATOM     14  C   UNL     1      39.097   8.786  19.398  0.00  0.00    +0.000 A 
ATOM     15  C   UNL     1      38.019   8.499  20.185  0.00  0.00    +0.000 A 
ATOM     16  C   UNL     1      36.761   8.780  19.699  0.00  0.00    +0.000 A 
ENDBRANCH   1  14
BRANCH   9  17
ATOM     17  O   UNL     1      40.265   6.094  19.869  0.00  0.00    +0.000 OA
BRANCH  17  18
ATOM     18  C   UNL     1      39.877   5.780  18.576  0.00  0.00    +0.000 A 
ATOM     19  C   UNL     1      40.692   6.112  17.517  0.00  0.00    +0.000 A 
ATOM     20  C   UNL     1      40.326   5.807  16.202  0.00  0.00    +0.000 A 
ATOM     21  C   UNL     1      39.143   5.166  15.917  0.00  0.00    +0.000 A 
ATOM     22  C   UNL     1      38.325   4.832  16.973  0.00  0.00    +0.000 A 
ATOM     23  C   UNL     1      38.692   5.137  18.283  0.00  0.00    +0.000 A 
BRANCH  21  24
ATOM     24  O   UNL     1      38.754   4.851  14.609  0.00  0.00    +0.000 OA
BRANCH  24  25
ATOM     25  C   UNL     1      38.316   5.846  13.703  0.00  0.00    +0.000 C 
BRANCH  25  26
ATOM     26  C   UNL     1      36.889   5.462  13.313  0.00  0.00    +0.000 C 
BRANCH  26  27
ATOM     27  N   UNL     1      36.069   6.613  13.031  0.00  0.00    +0.000 NA
ATOM     28  C   UNL     1      35.305   7.075  14.145  0.00  0.00    +0.000 C 
ATOM     29  C   UNL     1      33.848   6.824  13.813  0.00  0.00    +0.000 C 
ATOM     30  C   UNL     1      33.852   7.016  12.303  0.00  0.00    +0.000 C 
ATOM     31  C   UNL     1      35.200   6.464  11.906  0.00  0.00    +0.000 C 
ENDBRANCH  26  27
ENDBRANCH  25  26
ENDBRANCH  24  25
ENDBRANCH  21  24
ENDBRANCH  17  18
ENDBRANCH   9  17
TORSDOF 7
ENDMDL
MODEL 10
REMARK VINA RESULT:      -7.0     24.877     28.037
REMARK  Name = 
REMARK  7 active torsions:
REMARK  status: ('A' for Active; 'I' for Inactive)
REMARK    1  A    between atoms: C_5  and  C_6
REMARK    2  A    between atoms: C_14  and  O_15
REMARK    3  A    between atoms: O_15  and  C_16
REMARK    4  A    between atoms: C_19  and  O_20
REMARK    5  A    between atoms: O_20  and  C_21
REMARK    6  A    between atoms: C_21  and  C_22
REMARK    7  A    between atoms: C_22  and  N_23
REMARK                            x       y       z     vdW  Elec       q    Type
REMARK                         _______ _______ _______ _____ _____    ______ ____
ROOT
ATOM      1  C   UNL     1      42.189   8.023  20.496  0.00  0.00    +0.000 A 
ATOM      2  S   UNL     1      42.062   9.701  20.777  0.00  0.00    +0.000 S 
ATOM      3  C   UNL     1      40.382   9.887  20.570  0.00  0.00    +0.000 A 
ATOM      4  C   UNL     1      39.498  10.974  20.638  0.00  0.00    +0.000 A 
ATOM      5  C   UNL     1      38.144  10.827  20.418  0.00  0.00    +0.000 A 
ATOM      6  C   UNL     1      37.723   9.553  20.130  0.00  0.00    +0.000 A 
ATOM      7  C   UNL     1      38.560   8.507  20.064  0.00  0.00    +0.000 A 
ATOM      8  C   UNL     1      39.956   8.620  20.283  0.00  0.00    +0.000 A 
ATOM      9  C   UNL     1      40.906   7.652  20.247  0.00  0.00    +0.000 A 
ENDROOT
BRANCH   1  14
ATOM     10  O   UNL     1      46.743   4.757  20.614  0.00  0.00    +0.000 OA
ATOM     11  C   UNL     1      45.623   5.583  20.558  0.00  0.00    +0.000 A 
ATOM     12  C   UNL     1      44.683   5.463  21.552  0.00  0.00    +0.000 A 
ATOM     13  C   UNL     1      43.568   6.265  21.522  0.00  0.00    +0.000 A 
ATOM     14  C   UNL     1      43.401   7.166  20.515  0.00  0.00    +0.000 A 
ATOM     15  C   UNL     1      44.321   7.303  19.515  0.00  0.00    +0.000 A 
ATOM     16  C   UNL     1      45.439   6.501  19.542  0.00  0.00    +0.000 A 
ENDBRANCH   1  14
BRANCH   9  17
ATOM     17  O   UNL     1      40.614   6.294  19.964  0.00  0.00    +0.000 OA
BRANCH  17  18
ATOM     18  C   UNL     1      40.154   5.914  18.714  0.00  0.00    +0.000 A 
ATOM     19  C   UNL     1      39.026   5.132  18.607  0.00  0.00    +0.000 A 
ATOM     20  C   UNL     1      38.539   4.733  17.358  0.00  0.00    +0.000 A 
ATOM     21  C   UNL     1      39.166   5.106  16.193  0.00  0.00    +0.000 A 
ATOM     22  C   UNL     1      40.295   5.888  16.294  0.00  0.00    +0.000 A 
ATOM     23  C   UNL     1      40.778   6.284  17.540  0.00  0.00    +0.000 A 
BRANCH  21  24
ATOM     24  O   UNL     1      38.699   4.719  14.930  0.00  0.00    +0.000 OA
BRANCH  24  25
ATOM     25  C   UNL     1      37.347   4.362  14.715  0.00  0.00    +0.000 C 
BRANCH  25  26
ATOM     26  C   UNL     1      36.600   5.671  14.464  0.00  0.00    +0.000 C 
BRANCH  26  27
ATOM     27  N   UNL     1      35.505   5.511  13.542  0.00  0.00    +0.000 NA
ATOM     28  C   UNL     1      35.887   5.557  12.166  0.00  0.00    +0.000 C 
ATOM     29  C   UNL     1      35.280   6.817  11.583  0.00  0.00    +0.000 C 
ATOM     30  C   UNL     1      33.995   6.927  12.391  0.00  0.00    +0.000 C 
ATOM     31  C   UNL     1      34.415   6.412  13.747  0.00  0.00    +0.000 C 
ENDBRANCH  26  27
ENDBRANCH  25  26
ENDBRANCH  24  25
ENDBRANCH  21  24
ENDBRANCH  17  18
ENDBRANCH   9  17
TORSDOF 7
ENDMDL
