MODEL 1
REMARK VINA RESULT:      -5.9      0.000      0.000
REMARK  Name = 
REMARK  3 active torsions:
REMARK  status: ('A' for Active; 'I' for Inactive)
REMARK    1  A    between atoms: O_2  and  C_3
REMARK    2  A    between atoms: C_7  and  N_8
REMARK    3  A    between atoms: C_16  and  C_17
REMARK                            x       y       z     vdW  Elec       q    Type
REMARK                         _______ _______ _______ _____ _____    ______ ____
ROOT
ATOM      1  N   UNL     1      17.509   9.557  37.462  0.00  0.00    +0.000 NA
ATOM      2  C   UNL     1      18.456  10.198  38.306  0.00  0.00    +0.000 A 
ATOM      3  N   UNL     1      19.019  11.353  37.931  0.00  0.00    +0.000 NA
ATOM      4  C   UNL     1      19.923  12.007  38.691  0.00  0.00    +0.000 A 
ATOM      5  C   UNL     1      20.492  13.280  38.192  0.00  0.00    +0.000 C 
ATOM      6  C   UNL     1      20.254  11.433  39.893  0.00  0.00    +0.000 A 
ATOM      7  C   UNL     1      19.706  10.246  40.330  0.00  0.00    +0.000 A 
ATOM      8  C   UNL     1      20.118   9.681  41.655  0.00  0.00    +0.000 C 
ATOM      9  C   UNL     1      18.795   9.625  39.521  0.00  0.00    +0.000 A 
ENDROOT
BRANCH   1  14
ATOM     10  C   UNL     1      15.797  11.701  34.941  0.00  0.00    +0.000 A 
ATOM     11  C   UNL     1      16.456  11.280  33.786  0.00  0.00    +0.000 A 
ATOM     12  C   UNL     1      17.430  10.325  33.828  0.00  0.00    +0.000 A 
ATOM     13  C   UNL     1      17.784   9.748  35.051  0.00  0.00    +0.000 A 
ATOM     14  C   UNL     1      17.155  10.139  36.213  0.00  0.00    +0.000 A 
ATOM     15  C   UNL     1      16.177  11.107  36.121  0.00  0.00    +0.000 A 
BRANCH  10  17
ATOM     16  C   UNL     1      13.849  12.700  35.911  0.00  0.00    +0.000 C 
ATOM     17  O   UNL     1      14.805  12.681  34.868  0.00  0.00    +0.000 OA
ENDBRANCH  10  17
ENDBRANCH   1  14
BRANCH   9  18
ATOM     18  C   UNL     1      18.186   8.376  39.928  0.00  0.00    +0.000 C 
ATOM     19  N   UNL     1      16.981   8.391  40.700  0.00  0.00    +0.000 NA
ATOM     20  O   UNL     1      18.729   7.269  39.593  0.00  0.00    +0.000 OA
ENDBRANCH   9  18
TORSDOF 3
ENDMDL
MODEL 2
REMARK VINA RESULT:      -5.6      3.221      4.434
REMARK  Name = 
REMARK  3 active torsions:
REMARK  status: ('A' for Active; 'I' for Inactive)
REMARK    1  A    between atoms: O_2  and  C_3
REMARK    2  A    between atoms: C_7  and  N_8
REMARK    3  A    between atoms: C_16  and  C_17
REMARK                            x       y       z     vdW  Elec       q    Type
REMARK                         _______ _______ _______ _____ _____    ______ ____
ROOT
ATOM      1  N   UNL     1      21.069   9.888  37.168  0.00  0.00    +0.000 NA
ATOM      2  C   UNL     1      21.815  11.001  37.644  0.00  0.00    +0.000 A 
ATOM      3  N   UNL     1      21.185  12.108  38.055  0.00  0.00    +0.000 NA
ATOM      4  C   UNL     1      21.840  13.194  38.516  0.00  0.00    +0.000 A 
ATOM      5  C   UNL     1      21.057  14.374  38.950  0.00  0.00    +0.000 C 
ATOM      6  C   UNL     1      23.211  13.124  38.550  0.00  0.00    +0.000 A 
ATOM      7  C   UNL     1      23.912  12.010  38.140  0.00  0.00    +0.000 A 
ATOM      8  C   UNL     1      25.408  12.008  38.206  0.00  0.00    +0.000 C 
ATOM      9  C   UNL     1      23.199  10.937  37.681  0.00  0.00    +0.000 A 
ENDROOT
BRANCH   1  14
ATOM     10  C   UNL     1      17.585   9.847  35.847  0.00  0.00    +0.000 A 
ATOM     11  C   UNL     1      16.880  10.055  37.032  0.00  0.00    +0.000 A 
ATOM     12  C   UNL     1      17.522  10.205  38.228  0.00  0.00    +0.000 A 
ATOM     13  C   UNL     1      18.918  10.149  38.276  0.00  0.00    +0.000 A 
ATOM     14  C   UNL     1      19.648   9.945  37.126  0.00  0.00    +0.000 A 
ATOM     15  C   UNL     1      18.956   9.800  35.943  0.00  0.00    +0.000 A 
BRANCH  10  17
ATOM     16  C   UNL     1      16.905  10.806  33.761  0.00  0.00    +0.000 C 
ATOM     17  O   UNL     1      16.902   9.696  34.638  0.00  0.00    +0.000 OA
ENDBRANCH  10  17
ENDBRANCH   1  14
BRANCH   9  18
ATOM     18  C   UNL     1      23.881   9.740  37.236  0.00  0.00    +0.000 C 
ATOM     19  N   UNL     1      24.199   8.712  38.180  0.00  0.00    +0.000 NA
ATOM     20  O   UNL     1      24.193   9.611  36.004  0.00  0.00    +0.000 OA
ENDBRANCH   9  18
TORSDOF 3
ENDMDL
MODEL 3
REMARK VINA RESULT:      -5.6     17.366     19.399
REMARK  Name = 
REMARK  3 active torsions:
REMARK  status: ('A' for Active; 'I' for Inactive)
REMARK    1  A    between atoms: O_2  and  C_3
REMARK    2  A    between atoms: C_7  and  N_8
REMARK    3  A    between atoms: C_16  and  C_17
REMARK                            x       y       z     vdW  Elec       q    Type
REMARK                         _______ _______ _______ _____ _____    ______ ____
ROOT
ATOM      1  N   UNL     1      26.447  23.492  27.611  0.00  0.00    +0.000 NA
ATOM      2  C   UNL     1      27.717  23.240  28.199  0.00  0.00    +0.000 A 
ATOM      3  N   UNL     1      28.828  23.309  27.457  0.00  0.00    +0.000 NA
ATOM      4  C   UNL     1      30.060  23.080  27.959  0.00  0.00    +0.000 A 
ATOM      5  C   UNL     1      31.232  23.180  27.060  0.00  0.00    +0.000 C 
ATOM      6  C   UNL     1      30.136  22.766  29.294  0.00  0.00    +0.000 A 
ATOM      7  C   UNL     1      29.026  22.682  30.106  0.00  0.00    +0.000 A 
ATOM      8  C   UNL     1      29.189  22.334  31.554  0.00  0.00    +0.000 C 
ATOM      9  C   UNL     1      27.802  22.923  29.545  0.00  0.00    +0.000 A 
ENDROOT
BRANCH   1  14
ATOM     10  C   UNL     1      26.362  25.491  24.468  0.00  0.00    +0.000 A 
ATOM     11  C   UNL     1      26.165  24.468  23.542  0.00  0.00    +0.000 A 
ATOM     12  C   UNL     1      26.062  23.163  23.931  0.00  0.00    +0.000 A 
ATOM     13  C   UNL     1      26.156  22.834  25.286  0.00  0.00    +0.000 A 
ATOM     14  C   UNL     1      26.351  23.819  26.229  0.00  0.00    +0.000 A 
ATOM     15  C   UNL     1      26.448  25.122  25.789  0.00  0.00    +0.000 A 
BRANCH  10  17
ATOM     16  C   UNL     1      27.155  27.045  22.828  0.00  0.00    +0.000 C 
ATOM     17  O   UNL     1      26.464  26.817  24.041  0.00  0.00    +0.000 OA
ENDBRANCH  10  17
ENDBRANCH   1  14
BRANCH   9  18
ATOM     18  C   UNL     1      26.600  22.849  30.349  0.00  0.00    +0.000 C 
ATOM     19  N   UNL     1      26.084  24.033  30.966  0.00  0.00    +0.000 NA
ATOM     20  O   UNL     1      26.009  21.726  30.500  0.00  0.00    +0.000 OA
ENDBRANCH   9  18
TORSDOF 3
ENDMDL
MODEL 4
REMARK VINA RESULT:      -5.6     20.627     22.488
REMARK  Name = 
REMARK  3 active torsions:
REMARK  status: ('A' for Active; 'I' for Inactive)
REMARK    1  A    between atoms: O_2  and  C_3
REMARK    2  A    between atoms: C_7  and  N_8
REMARK    3  A    between atoms: C_16  and  C_17
REMARK                            x       y       z     vdW  Elec       q    Type
REMARK                         _______ _______ _______ _____ _____    ______ ____
ROOT
ATOM      1  N   UNL     1      17.147  -8.537  26.369  0.00  0.00    +0.000 NA
ATOM      2  C   UNL     1      17.109  -9.352  27.533  0.00  0.00    +0.000 A 
ATOM      3  N   UNL     1      17.929  -9.101  28.559  0.00  0.00    +0.000 NA
ATOM      4  C   UNL     1      17.938  -9.840  29.689  0.00  0.00    +0.000 A 
ATOM      5  C   UNL     1      18.884  -9.485  30.772  0.00  0.00    +0.000 C 
ATOM      6  C   UNL     1      17.051 -10.887  29.751  0.00  0.00    +0.000 A 
ATOM      7  C   UNL     1      16.183 -11.192  28.726  0.00  0.00    +0.000 A 
ATOM      8  C   UNL     1      15.244 -12.350  28.867  0.00  0.00    +0.000 C 
ATOM      9  C   UNL     1      16.216 -10.410  27.603  0.00  0.00    +0.000 A 
ENDROOT
BRANCH   1  14
ATOM     10  C   UNL     1      20.233  -6.583  25.632  0.00  0.00    +0.000 A 
ATOM     11  C   UNL     1      19.847  -5.337  26.126  0.00  0.00    +0.000 A 
ATOM     12  C   UNL     1      18.616  -5.140  26.683  0.00  0.00    +0.000 A 
ATOM     13  C   UNL     1      17.714  -6.204  26.765  0.00  0.00    +0.000 A 
ATOM     14  C   UNL     1      18.060  -7.449  26.288  0.00  0.00    +0.000 A 
ATOM     15  C   UNL     1      19.313  -7.600  25.735  0.00  0.00    +0.000 A 
BRANCH  10  17
ATOM     16  C   UNL     1      21.941  -8.087  24.887  0.00  0.00    +0.000 C 
ATOM     17  O   UNL     1      21.498  -6.756  25.067  0.00  0.00    +0.000 OA
ENDBRANCH  10  17
ENDBRANCH   1  14
BRANCH   9  18
ATOM     18  C   UNL     1      15.327 -10.683  26.494  0.00  0.00    +0.000 C 
ATOM     19  N   UNL     1      14.035 -10.069  26.451  0.00  0.00    +0.000 NA
ATOM     20  O   UNL     1      15.704 -11.471  25.561  0.00  0.00    +0.000 OA
ENDBRANCH   9  18
TORSDOF 3
ENDMDL
MODEL 5
REMARK VINA RESULT:      -5.6     20.629     22.626
REMARK  Name = 
REMARK  3 active torsions:
REMARK  status: ('A' for Active; 'I' for Inactive)
REMARK    1  A    between atoms: O_2  and  C_3
REMARK    2  A    between atoms: C_7  and  N_8
REMARK    3  A    between atoms: C_16  and  C_17
REMARK                            x       y       z     vdW  Elec       q    Type
REMARK                         _______ _______ _______ _____ _____    ______ ____
ROOT
ATOM      1  N   UNL     1      19.814  -9.776  26.825  0.00  0.00    +0.000 NA
ATOM      2  C   UNL     1      20.072  -8.453  26.372  0.00  0.00    +0.000 A 
ATOM      3  N   UNL     1      19.225  -7.461  26.671  0.00  0.00    +0.000 NA
ATOM      4  C   UNL     1      19.418  -6.187  26.269  0.00  0.00    +0.000 A 
ATOM      5  C   UNL     1      18.424  -5.156  26.648  0.00  0.00    +0.000 C 
ATOM      6  C   UNL     1      20.544  -5.936  25.525  0.00  0.00    +0.000 A 
ATOM      7  C   UNL     1      21.451  -6.917  25.188  0.00  0.00    +0.000 A 
ATOM      8  C   UNL     1      22.657  -6.566  24.372  0.00  0.00    +0.000 C 
ATOM      9  C   UNL     1      21.207  -8.191  25.621  0.00  0.00    +0.000 A 
ENDROOT
BRANCH   1  14
ATOM     10  C   UNL     1      17.512 -10.042  29.742  0.00  0.00    +0.000 A 
ATOM     11  C   UNL     1      16.394 -10.588  29.113  0.00  0.00    +0.000 A 
ATOM     12  C   UNL     1      16.390 -10.861  27.775  0.00  0.00    +0.000 A 
ATOM     13  C   UNL     1      17.528 -10.591  27.010  0.00  0.00    +0.000 A 
ATOM     14  C   UNL     1      18.651 -10.053  27.597  0.00  0.00    +0.000 A 
ATOM     15  C   UNL     1      18.608  -9.794  28.951  0.00  0.00    +0.000 A 
BRANCH  10  17
ATOM     16  C   UNL     1      16.425 -10.341  31.855  0.00  0.00    +0.000 C 
ATOM     17  O   UNL     1      17.487  -9.773  31.113  0.00  0.00    +0.000 OA
ENDBRANCH  10  17
ENDBRANCH   1  14
BRANCH   9  18
ATOM     18  C   UNL     1      22.125  -9.263  25.298  0.00  0.00    +0.000 C 
ATOM     19  N   UNL     1      21.953 -10.004  24.085  0.00  0.00    +0.000 NA
ATOM     20  O   UNL     1      23.082  -9.539  26.098  0.00  0.00    +0.000 OA
ENDBRANCH   9  18
TORSDOF 3
ENDMDL
MODEL 6
REMARK VINA RESULT:      -5.5     21.334     23.280
REMARK  Name = 
REMARK  3 active torsions:
REMARK  status: ('A' for Active; 'I' for Inactive)
REMARK    1  A    between atoms: O_2  and  C_3
REMARK    2  A    between atoms: C_7  and  N_8
REMARK    3  A    between atoms: C_16  and  C_17
REMARK                            x       y       z     vdW  Elec       q    Type
REMARK                         _______ _______ _______ _____ _____    ______ ____
ROOT
ATOM      1  N   UNL     1      21.009  -7.350  24.993  0.00  0.00    +0.000 NA
ATOM      2  C   UNL     1      20.772  -8.252  26.066  0.00  0.00    +0.000 A 
ATOM      3  N   UNL     1      21.701  -9.151  26.408  0.00  0.00    +0.000 NA
ATOM      4  C   UNL     1      21.533 -10.032  27.417  0.00  0.00    +0.000 A 
ATOM      5  C   UNL     1      22.619 -10.992  27.722  0.00  0.00    +0.000 C 
ATOM      6  C   UNL     1      20.342  -9.972  28.099  0.00  0.00    +0.000 A 
ATOM      7  C   UNL     1      19.350  -9.067  27.792  0.00  0.00    +0.000 A 
ATOM      8  C   UNL     1      18.077  -9.062  28.582  0.00  0.00    +0.000 C 
ATOM      9  C   UNL     1      19.573  -8.197  26.760  0.00  0.00    +0.000 A 
ENDROOT
BRANCH   1  14
ATOM     10  C   UNL     1      23.575  -8.336  22.478  0.00  0.00    +0.000 A 
ATOM     11  C   UNL     1      24.623  -7.505  22.871  0.00  0.00    +0.000 A 
ATOM     12  C   UNL     1      24.497  -6.648  23.927  0.00  0.00    +0.000 A 
ATOM     13  C   UNL     1      23.294  -6.593  24.636  0.00  0.00    +0.000 A 
ATOM     14  C   UNL     1      22.237  -7.399  24.276  0.00  0.00    +0.000 A 
ATOM     15  C   UNL     1      22.410  -8.249  23.204  0.00  0.00    +0.000 A 
BRANCH  10  17
ATOM     16  C   UNL     1      25.058  -9.525  21.022  0.00  0.00    +0.000 C 
ATOM     17  O   UNL     1      23.732  -9.203  21.394  0.00  0.00    +0.000 OA
ENDBRANCH  10  17
ENDBRANCH   1  14
BRANCH   9  18
ATOM     18  C   UNL     1      18.566  -7.224  26.391  0.00  0.00    +0.000 C 
ATOM     19  N   UNL     1      18.555  -5.940  27.023  0.00  0.00    +0.000 NA
ATOM     20  O   UNL     1      17.697  -7.519  25.503  0.00  0.00    +0.000 OA
ENDBRANCH   9  18
TORSDOF 3
ENDMDL
MODEL 7
REMARK VINA RESULT:      -5.5      3.649      5.592
REMARK  Name = 
REMARK  3 active torsions:
REMARK  status: ('A' for Active; 'I' for Inactive)
REMARK    1  A    between atoms: O_2  and  C_3
REMARK    2  A    between atoms: C_7  and  N_8
REMARK    3  A    between atoms: C_16  and  C_17
REMARK                            x       y       z     vdW  Elec       q    Type
REMARK                         _______ _______ _______ _____ _____    ______ ____
ROOT
ATOM      1  N   UNL     1      20.849  12.415  39.059  0.00  0.00    +0.000 NA
ATOM      2  C   UNL     1      22.083  12.175  38.395  0.00  0.00    +0.000 A 
ATOM      3  N   UNL     1      22.260  11.052  37.690  0.00  0.00    +0.000 NA
ATOM      4  C   UNL     1      23.408  10.770  37.038  0.00  0.00    +0.000 A 
ATOM      5  C   UNL     1      23.512   9.500  36.282  0.00  0.00    +0.000 C 
ATOM      6  C   UNL     1      24.416  11.699  37.127  0.00  0.00    +0.000 A 
ATOM      7  C   UNL     1      24.288  12.873  37.838  0.00  0.00    +0.000 A 
ATOM      8  C   UNL     1      25.432  13.838  37.889  0.00  0.00    +0.000 C 
ATOM      9  C   UNL     1      23.103  13.108  38.480  0.00  0.00    +0.000 A 
ENDROOT
BRANCH   1  14
ATOM     10  C   UNL     1      17.845  10.591  37.820  0.00  0.00    +0.000 A 
ATOM     11  C   UNL     1      17.739   9.612  38.807  0.00  0.00    +0.000 A 
ATOM     12  C   UNL     1      18.622   9.548  39.847  0.00  0.00    +0.000 A 
ATOM     13  C   UNL     1      19.659  10.481  39.934  0.00  0.00    +0.000 A 
ATOM     14  C   UNL     1      19.795  11.462  38.978  0.00  0.00    +0.000 A 
ATOM     15  C   UNL     1      18.881  11.487  37.947  0.00  0.00    +0.000 A 
BRANCH  10  17
ATOM     16  C   UNL     1      17.262   9.903  35.602  0.00  0.00    +0.000 C 
ATOM     17  O   UNL     1      16.928  10.632  36.768  0.00  0.00    +0.000 OA
ENDBRANCH  10  17
ENDBRANCH   1  14
BRANCH   9  18
ATOM     18  C   UNL     1      22.912  14.324  39.243  0.00  0.00    +0.000 C 
ATOM     19  N   UNL     1      23.250  14.350  40.633  0.00  0.00    +0.000 NA
ATOM     20  O   UNL     1      22.445  15.365  38.668  0.00  0.00    +0.000 OA
ENDBRANCH   9  18
TORSDOF 3
ENDMDL
MODEL 8
REMARK VINA RESULT:      -5.5     21.819     23.984
REMARK  Name = 
REMARK  3 active torsions:
REMARK  status: ('A' for Active; 'I' for Inactive)
REMARK    1  A    between atoms: O_2  and  C_3
REMARK    2  A    between atoms: C_7  and  N_8
REMARK    3  A    between atoms: C_16  and  C_17
REMARK                            x       y       z     vdW  Elec       q    Type
REMARK                         _______ _______ _______ _____ _____    ______ ____
ROOT
ATOM      1  N   UNL     1      25.390   4.630  15.722  0.00  0.00    +0.000 NA
ATOM      2  C   UNL     1      26.406   5.524  16.158  0.00  0.00    +0.000 A 
ATOM      3  N   UNL     1      26.782   5.541  17.442  0.00  0.00    +0.000 NA
ATOM      4  C   UNL     1      27.739   6.367  17.914  0.00  0.00    +0.000 A 
ATOM      5  C   UNL     1      28.089   6.314  19.353  0.00  0.00    +0.000 C 
ATOM      6  C   UNL     1      28.331   7.212  17.007  0.00  0.00    +0.000 A 
ATOM      7  C   UNL     1      27.984   7.237  15.674  0.00  0.00    +0.000 A 
ATOM      8  C   UNL     1      28.675   8.188  14.745  0.00  0.00    +0.000 C 
ATOM      9  C   UNL     1      27.007   6.379  15.249  0.00  0.00    +0.000 A 
ENDROOT
BRANCH   1  14
ATOM     10  C   UNL     1      24.531   1.518  17.582  0.00  0.00    +0.000 A 
ATOM     11  C   UNL     1      23.562   2.020  18.449  0.00  0.00    +0.000 A 
ATOM     12  C   UNL     1      23.198   3.336  18.428  0.00  0.00    +0.000 A 
ATOM     13  C   UNL     1      23.806   4.208  17.521  0.00  0.00    +0.000 A 
ATOM     14  C   UNL     1      24.767   3.748  16.649  0.00  0.00    +0.000 A 
ATOM     15  C   UNL     1      25.101   2.412  16.707  0.00  0.00    +0.000 A 
BRANCH  10  17
ATOM     16  C   UNL     1      23.861  -0.769  17.340  0.00  0.00    +0.000 C 
ATOM     17  O   UNL     1      24.883   0.167  17.626  0.00  0.00    +0.000 OA
ENDBRANCH  10  17
ENDBRANCH   1  14
BRANCH   9  18
ATOM     18  C   UNL     1      26.601   6.361  13.860  0.00  0.00    +0.000 C 
ATOM     19  N   UNL     1      27.230   5.455  12.947  0.00  0.00    +0.000 NA
ATOM     20  O   UNL     1      25.684   7.155  13.459  0.00  0.00    +0.000 OA
ENDBRANCH   9  18
TORSDOF 3
ENDMDL
MODEL 9
REMARK VINA RESULT:      -5.5      3.224      5.307
REMARK  Name = 
REMARK  3 active torsions:
REMARK  status: ('A' for Active; 'I' for Inactive)
REMARK    1  A    between atoms: O_2  and  C_3
REMARK    2  A    between atoms: C_7  and  N_8
REMARK    3  A    between atoms: C_16  and  C_17
REMARK                            x       y       z     vdW  Elec       q    Type
REMARK                         _______ _______ _______ _____ _____    ______ ____
ROOT
ATOM      1  N   UNL     1      17.847   9.370  39.541  0.00  0.00    +0.000 NA
ATOM      2  C   UNL     1      17.805   8.154  40.278  0.00  0.00    +0.000 A 
ATOM      3  N   UNL     1      18.576   7.122  39.919  0.00  0.00    +0.000 NA
ATOM      4  C   UNL     1      18.580   5.945  40.579  0.00  0.00    +0.000 A 
ATOM      5  C   UNL     1      19.467   4.858  40.107  0.00  0.00    +0.000 C 
ATOM      6  C   UNL     1      17.742   5.841  41.664  0.00  0.00    +0.000 A 
ATOM      7  C   UNL     1      16.928   6.871  42.080  0.00  0.00    +0.000 A 
ATOM      8  C   UNL     1      16.041   6.682  43.272  0.00  0.00    +0.000 C 
ATOM      9  C   UNL     1      16.964   8.042  41.373  0.00  0.00    +0.000 A 
ENDROOT
BRANCH   1  14
ATOM     10  C   UNL     1      20.937   9.841  37.513  0.00  0.00    +0.000 A 
ATOM     11  C   UNL     1      20.397   9.738  36.232  0.00  0.00    +0.000 A 
ATOM     12  C   UNL     1      19.063   9.521  36.034  0.00  0.00    +0.000 A 
ATOM     13  C   UNL     1      18.211   9.398  37.135  0.00  0.00    +0.000 A 
ATOM     14  C   UNL     1      18.708   9.494  38.416  0.00  0.00    +0.000 A 
ATOM     15  C   UNL     1      20.061   9.714  38.566  0.00  0.00    +0.000 A 
BRANCH  10  17
ATOM     16  C   UNL     1      23.178   9.359  36.823  0.00  0.00    +0.000 C 
ATOM     17  O   UNL     1      22.305  10.063  37.685  0.00  0.00    +0.000 OA
ENDBRANCH  10  17
ENDBRANCH   1  14
BRANCH   9  18
ATOM     18  C   UNL     1      16.129   9.159  41.764  0.00  0.00    +0.000 C 
ATOM     19  N   UNL     1      16.540  10.011  42.838  0.00  0.00    +0.000 NA
ATOM     20  O   UNL     1      15.033   9.376  41.145  0.00  0.00    +0.000 OA
ENDBRANCH   9  18
TORSDOF 3
ENDMDL
MODEL 10
REMARK VINA RESULT:      -5.4     21.576     23.300
REMARK  Name = 
REMARK  3 active torsions:
REMARK  status: ('A' for Active; 'I' for Inactive)
REMARK    1  A    between atoms: O_2  and  C_3
REMARK    2  A    between atoms: C_7  and  N_8
REMARK    3  A    between atoms: C_16  and  C_17
REMARK                            x       y       z     vdW  Elec       q    Type
REMARK                         _______ _______ _______ _____ _____    ______ ____
ROOT
ATOM      1  N   UNL     1      25.878   4.298  17.880  0.00  0.00    +0.000 NA
ATOM      2  C   UNL     1      26.222   4.999  16.692  0.00  0.00    +0.000 A 
ATOM      3  N   UNL     1      25.528   4.798  15.566  0.00  0.00    +0.000 NA
ATOM      4  C   UNL     1      25.808   5.435  14.409  0.00  0.00    +0.000 A 
ATOM      5  C   UNL     1      24.983   5.147  13.213  0.00  0.00    +0.000 C 
ATOM      6  C   UNL     1      26.858   6.320  14.427  0.00  0.00    +0.000 A 
ATOM      7  C   UNL     1      27.607   6.566  15.557  0.00  0.00    +0.000 A 
ATOM      8  C   UNL     1      28.739   7.546  15.499  0.00  0.00    +0.000 C 
ATOM      9  C   UNL     1      27.280   5.894  16.703  0.00  0.00    +0.000 A 
ENDROOT
BRANCH   1  14
ATOM     10  C   UNL     1      22.413   2.946  18.108  0.00  0.00    +0.000 A 
ATOM     11  C   UNL     1      22.670   1.596  17.876  0.00  0.00    +0.000 A 
ATOM     12  C   UNL     1      23.937   1.138  17.652  0.00  0.00    +0.000 A 
ATOM     13  C   UNL     1      25.008   2.036  17.653  0.00  0.00    +0.000 A 
ATOM     14  C   UNL     1      24.792   3.377  17.878  0.00  0.00    +0.000 A 
ATOM     15  C   UNL     1      23.497   3.793  18.099  0.00  0.00    +0.000 A 
BRANCH  10  17
ATOM     16  C   UNL     1      20.065   2.580  17.817  0.00  0.00    +0.000 C 
ATOM     17  O   UNL     1      21.107   3.386  18.334  0.00  0.00    +0.000 OA
ENDBRANCH  10  17
ENDBRANCH   1  14
BRANCH   9  18
ATOM     18  C   UNL     1      28.032   6.112  17.920  0.00  0.00    +0.000 C 
ATOM     19  N   UNL     1      27.679   7.194  18.789  0.00  0.00    +0.000 NA
ATOM     20  O   UNL     1      29.005   5.336  18.211  0.00  0.00    +0.000 OA
ENDBRANCH   9  18
TORSDOF 3
ENDMDL
