MODEL 1
REMARK VINA RESULT:      -7.6      0.000      0.000
REMARK  Name = 
REMARK  9 active torsions:
REMARK  status: ('A' for Active; 'I' for Inactive)
REMARK    1  A    between atoms: C_2  and  O_3
REMARK    2  A    between atoms: O_3  and  C_4
REMARK    3  A    between atoms: C_4  and  C_6
REMARK    4  A    between atoms: C_10  and  C_11
REMARK    5  A    between atoms: N_13  and  C_14
REMARK    6  A    between atoms: C_14  and  C_15
REMARK    7  A    between atoms: C_15  and  C_16
REMARK    8  A    between atoms: C_16  and  C_17
REMARK    9  A    between atoms: C_16  and  C_23
REMARK                            x       y       z     vdW  Elec       q    Type
REMARK                         _______ _______ _______ _____ _____    ______ ____
ROOT
ATOM      1  C   UNL     1      36.424   2.312  16.297  0.00  0.00    +0.000 C 
ATOM      2  O   UNL     1      35.366   2.987  16.216  0.00  0.00    +0.000 OA
ATOM      3  N   UNL     1      37.599   2.986  16.721  0.00  0.00    +0.000 NA
ENDROOT
BRANCH   1   8
ATOM      4  C   UNL     1      36.376  -1.355  16.160  0.00  0.00    +0.000 A 
ATOM      5  N   UNL     1      36.523  -1.005  14.850  0.00  0.00    +0.000 NA
ATOM      6  C   UNL     1      36.560   0.326  14.719  0.00  0.00    +0.000 A 
ATOM      7  C   UNL     1      36.711   1.027  13.423  0.00  0.00    +0.000 C 
ATOM      8  C   UNL     1      36.435   0.897  15.967  0.00  0.00    +0.000 A 
ATOM      9  C   UNL     1      36.323  -0.153  16.840  0.00  0.00    +0.000 A 
ATOM     10  C   UNL     1      36.165  -0.060  18.325  0.00  0.00    +0.000 C 
BRANCH   4  11
ATOM     11  C   UNL     1      36.296  -2.706  16.695  0.00  0.00    +0.000 C 
ATOM     12  O   UNL     1      35.186  -3.183  17.015  0.00  0.00    +0.000 OA
BRANCH  11  13
ATOM     13  O   UNL     1      37.441  -3.466  16.849  0.00  0.00    +0.000 OA
BRANCH  13  15
ATOM     14  C   UNL     1      38.547  -2.871  18.865  0.00  0.00    +0.000 C 
ATOM     15  C   UNL     1      38.659  -2.913  17.346  0.00  0.00    +0.000 C 
ENDBRANCH  13  15
ENDBRANCH  11  13
ENDBRANCH   4  11
ENDBRANCH   1   8
BRANCH   3  16
ATOM     16  C   UNL     1      37.611   4.396  17.055  0.00  0.00    +0.000 C 
BRANCH  16  17
ATOM     17  C   UNL     1      39.026   4.952  17.060  0.00  0.00    +0.000 C 
BRANCH  17  18
ATOM     18  C   UNL     1      39.108   5.995  18.122  0.00  0.00    +0.000 C 
BRANCH  18  19
ATOM     19  C   UNL     1      40.464   6.234  18.637  0.00  0.00    +0.000 A 
ATOM     20  C   UNL     1      40.781   6.257  19.983  0.00  0.00    +0.000 A 
ATOM     21  C   UNL     1      42.072   6.486  20.427  0.00  0.00    +0.000 A 
ATOM     22  C   UNL     1      43.093   6.700  19.539  0.00  0.00    +0.000 A 
ATOM     23  C   UNL     1      42.803   6.682  18.191  0.00  0.00    +0.000 A 
ATOM     24  C   UNL     1      41.506   6.452  17.756  0.00  0.00    +0.000 A 
ENDBRANCH  18  19
BRANCH  18  25
ATOM     25  C   UNL     1      38.330   7.203  17.867  0.00  0.00    +0.000 A 
ATOM     26  C   UNL     1      37.714   7.824  18.959  0.00  0.00    +0.000 A 
ATOM     27  C   UNL     1      36.962   8.959  18.829  0.00  0.00    +0.000 A 
ATOM     28  C   UNL     1      36.793   9.524  17.601  0.00  0.00    +0.000 A 
ATOM     29  C   UNL     1      37.380   8.949  16.499  0.00  0.00    +0.000 A 
ATOM     30  C   UNL     1      38.141   7.795  16.649  0.00  0.00    +0.000 A 
ENDBRANCH  18  25
ENDBRANCH  17  18
ENDBRANCH  16  17
ENDBRANCH   3  16
TORSDOF 9
ENDMDL
MODEL 2
REMARK VINA RESULT:      -7.6      0.946      3.501
REMARK  Name = 
REMARK  9 active torsions:
REMARK  status: ('A' for Active; 'I' for Inactive)
REMARK    1  A    between atoms: C_2  and  O_3
REMARK    2  A    between atoms: O_3  and  C_4
REMARK    3  A    between atoms: C_4  and  C_6
REMARK    4  A    between atoms: C_10  and  C_11
REMARK    5  A    between atoms: N_13  and  C_14
REMARK    6  A    between atoms: C_14  and  C_15
REMARK    7  A    between atoms: C_15  and  C_16
REMARK    8  A    between atoms: C_16  and  C_17
REMARK    9  A    between atoms: C_16  and  C_23
REMARK                            x       y       z     vdW  Elec       q    Type
REMARK                         _______ _______ _______ _____ _____    ______ ____
ROOT
ATOM      1  C   UNL     1      37.054   2.456  15.535  0.00  0.00    +0.000 C 
ATOM      2  O   UNL     1      36.476   3.206  14.709  0.00  0.00    +0.000 OA
ATOM      3  N   UNL     1      37.797   3.075  16.574  0.00  0.00    +0.000 NA
ENDROOT
BRANCH   1   8
ATOM      4  C   UNL     1      36.315  -1.133  15.745  0.00  0.00    +0.000 A 
ATOM      5  N   UNL     1      37.307  -1.083  14.809  0.00  0.00    +0.000 NA
ATOM      6  C   UNL     1      37.701   0.181  14.608  0.00  0.00    +0.000 A 
ATOM      7  C   UNL     1      38.762   0.575  13.654  0.00  0.00    +0.000 C 
ATOM      8  C   UNL     1      36.962   1.009  15.424  0.00  0.00    +0.000 A 
ATOM      9  C   UNL     1      36.115   0.183  16.115  0.00  0.00    +0.000 A 
ATOM     10  C   UNL     1      35.103   0.601  17.135  0.00  0.00    +0.000 C 
BRANCH   4  11
ATOM     11  C   UNL     1      35.636  -2.326  16.227  0.00  0.00    +0.000 C 
ATOM     12  O   UNL     1      34.817  -2.916  15.489  0.00  0.00    +0.000 OA
BRANCH  11  13
ATOM     13  O   UNL     1      35.891  -2.812  17.496  0.00  0.00    +0.000 OA
BRANCH  13  15
ATOM     14  C   UNL     1      37.096  -1.804  19.277  0.00  0.00    +0.000 C 
ATOM     15  C   UNL     1      37.188  -2.750  18.086  0.00  0.00    +0.000 C 
ENDBRANCH  13  15
ENDBRANCH  11  13
ENDBRANCH   4  11
ENDBRANCH   1   8
BRANCH   3  16
ATOM     16  C   UNL     1      37.903   4.515  16.705  0.00  0.00    +0.000 C 
BRANCH  16  17
ATOM     17  C   UNL     1      38.587   4.905  18.004  0.00  0.00    +0.000 C 
BRANCH  17  18
ATOM     18  C   UNL     1      39.285   6.203  17.787  0.00  0.00    +0.000 C 
BRANCH  18  19
ATOM     19  C   UNL     1      38.411   7.383  17.850  0.00  0.00    +0.000 A 
ATOM     20  C   UNL     1      37.786   7.815  19.007  0.00  0.00    +0.000 A 
ATOM     21  C   UNL     1      36.970   8.933  19.024  0.00  0.00    +0.000 A 
ATOM     22  C   UNL     1      36.750   9.659  17.883  0.00  0.00    +0.000 A 
ATOM     23  C   UNL     1      37.362   9.250  16.717  0.00  0.00    +0.000 A 
ATOM     24  C   UNL     1      38.178   8.129  16.711  0.00  0.00    +0.000 A 
ENDBRANCH  18  19
BRANCH  18  25
ATOM     25  C   UNL     1      40.558   6.348  18.487  0.00  0.00    +0.000 A 
ATOM     26  C   UNL     1      41.699   6.604  17.719  0.00  0.00    +0.000 A 
ATOM     27  C   UNL     1      42.939   6.756  18.276  0.00  0.00    +0.000 A 
ATOM     28  C   UNL     1      43.094   6.658  19.626  0.00  0.00    +0.000 A 
ATOM     29  C   UNL     1      42.001   6.408  20.421  0.00  0.00    +0.000 A 
ATOM     30  C   UNL     1      40.747   6.256  19.838  0.00  0.00    +0.000 A 
ENDBRANCH  18  25
ENDBRANCH  17  18
ENDBRANCH  16  17
ENDBRANCH   3  16
TORSDOF 9
ENDMDL
MODEL 3
REMARK VINA RESULT:      -7.6      1.968      2.899
REMARK  Name = 
REMARK  9 active torsions:
REMARK  status: ('A' for Active; 'I' for Inactive)
REMARK    1  A    between atoms: C_2  and  O_3
REMARK    2  A    between atoms: O_3  and  C_4
REMARK    3  A    between atoms: C_4  and  C_6
REMARK    4  A    between atoms: C_10  and  C_11
REMARK    5  A    between atoms: N_13  and  C_14
REMARK    6  A    between atoms: C_14  and  C_15
REMARK    7  A    between atoms: C_15  and  C_16
REMARK    8  A    between atoms: C_16  and  C_17
REMARK    9  A    between atoms: C_16  and  C_23
REMARK                            x       y       z     vdW  Elec       q    Type
REMARK                         _______ _______ _______ _____ _____    ______ ____
ROOT
ATOM      1  C   UNL     1      37.494   3.667  16.174  0.00  0.00    +0.000 C 
ATOM      2  O   UNL     1      37.127   4.705  15.567  0.00  0.00    +0.000 OA
ATOM      3  N   UNL     1      38.108   3.834  17.444  0.00  0.00    +0.000 NA
ENDROOT
BRANCH   1   8
ATOM      4  C   UNL     1      37.626   0.451  14.412  0.00  0.00    +0.000 A 
ATOM      5  N   UNL     1      36.419   0.399  15.045  0.00  0.00    +0.000 NA
ATOM      6  C   UNL     1      36.207   1.518  15.749  0.00  0.00    +0.000 A 
ATOM      7  C   UNL     1      34.989   1.776  16.550  0.00  0.00    +0.000 C 
ATOM      8  C   UNL     1      37.294   2.350  15.592  0.00  0.00    +0.000 A 
ATOM      9  C   UNL     1      38.156   1.677  14.766  0.00  0.00    +0.000 A 
ATOM     10  C   UNL     1      39.490   2.159  14.291  0.00  0.00    +0.000 C 
BRANCH   4  11
ATOM     11  C   UNL     1      38.202  -0.576  13.557  0.00  0.00    +0.000 C 
ATOM     12  O   UNL     1      38.002  -0.543  12.324  0.00  0.00    +0.000 OA
BRANCH  11  13
ATOM     13  O   UNL     1      38.971  -1.588  14.101  0.00  0.00    +0.000 OA
BRANCH  13  15
ATOM     14  C   UNL     1      38.879  -2.303  16.364  0.00  0.00    +0.000 C 
ATOM     15  C   UNL     1      39.636  -1.447  15.356  0.00  0.00    +0.000 C 
ENDBRANCH  13  15
ENDBRANCH  11  13
ENDBRANCH   4  11
ENDBRANCH   1   8
BRANCH   3  16
ATOM     16  C   UNL     1      38.317   5.137  18.043  0.00  0.00    +0.000 C 
BRANCH  16  17
ATOM     17  C   UNL     1      39.770   5.569  17.937  0.00  0.00    +0.000 C 
BRANCH  17  18
ATOM     18  C   UNL     1      40.119   6.323  19.174  0.00  0.00    +0.000 C 
BRANCH  18  19
ATOM     19  C   UNL     1      41.562   6.446  19.426  0.00  0.00    +0.000 A 
ATOM     20  C   UNL     1      42.488   6.761  18.448  0.00  0.00    +0.000 A 
ATOM     21  C   UNL     1      43.840   6.866  18.728  0.00  0.00    +0.000 A 
ATOM     22  C   UNL     1      44.313   6.660  19.997  0.00  0.00    +0.000 A 
ATOM     23  C   UNL     1      43.409   6.345  20.990  0.00  0.00    +0.000 A 
ATOM     24  C   UNL     1      42.057   6.241  20.700  0.00  0.00    +0.000 A 
ENDBRANCH  18  19
BRANCH  18  25
ATOM     25  C   UNL     1      39.355   7.548  19.389  0.00  0.00    +0.000 A 
ATOM     26  C   UNL     1      39.177   8.406  18.297  0.00  0.00    +0.000 A 
ATOM     27  C   UNL     1      38.478   9.578  18.393  0.00  0.00    +0.000 A 
ATOM     28  C   UNL     1      37.927   9.945  19.583  0.00  0.00    +0.000 A 
ATOM     29  C   UNL     1      38.075   9.133  20.682  0.00  0.00    +0.000 A 
ATOM     30  C   UNL     1      38.789   7.945  20.568  0.00  0.00    +0.000 A 
ENDBRANCH  18  25
ENDBRANCH  17  18
ENDBRANCH  16  17
ENDBRANCH   3  16
TORSDOF 9
ENDMDL
MODEL 4
REMARK VINA RESULT:      -7.6      1.795      4.059
REMARK  Name = 
REMARK  9 active torsions:
REMARK  status: ('A' for Active; 'I' for Inactive)
REMARK    1  A    between atoms: C_2  and  O_3
REMARK    2  A    between atoms: O_3  and  C_4
REMARK    3  A    between atoms: C_4  and  C_6
REMARK    4  A    between atoms: C_10  and  C_11
REMARK    5  A    between atoms: N_13  and  C_14
REMARK    6  A    between atoms: C_14  and  C_15
REMARK    7  A    between atoms: C_15  and  C_16
REMARK    8  A    between atoms: C_16  and  C_17
REMARK    9  A    between atoms: C_16  and  C_23
REMARK                            x       y       z     vdW  Elec       q    Type
REMARK                         _______ _______ _______ _____ _____    ______ ____
ROOT
ATOM      1  C   UNL     1      37.590   3.562  15.739  0.00  0.00    +0.000 C 
ATOM      2  O   UNL     1      37.281   4.490  14.949  0.00  0.00    +0.000 OA
ATOM      3  N   UNL     1      38.295   3.914  16.919  0.00  0.00    +0.000 NA
ENDROOT
BRANCH   1   8
ATOM      4  C   UNL     1      37.352   0.038  14.740  0.00  0.00    +0.000 A 
ATOM      5  N   UNL     1      36.122   0.284  15.276  0.00  0.00    +0.000 NA
ATOM      6  C   UNL     1      36.037   1.552  15.698  0.00  0.00    +0.000 A 
ATOM      7  C   UNL     1      34.831   2.136  16.329  0.00  0.00    +0.000 C 
ATOM      8  C   UNL     1      37.235   2.183  15.446  0.00  0.00    +0.000 A 
ATOM      9  C   UNL     1      38.031   1.236  14.856  0.00  0.00    +0.000 A 
ATOM     10  C   UNL     1      39.440   1.426  14.388  0.00  0.00    +0.000 C 
BRANCH   4  11
ATOM     11  C   UNL     1      37.818  -1.220  14.177  0.00  0.00    +0.000 C 
ATOM     12  O   UNL     1      37.874  -1.364  12.937  0.00  0.00    +0.000 OA
BRANCH  11  13
ATOM     13  O   UNL     1      38.200  -2.258  15.007  0.00  0.00    +0.000 OA
BRANCH  13  15
ATOM     14  C   UNL     1      39.086  -3.320  16.938  0.00  0.00    +0.000 C 
ATOM     15  C   UNL     1      39.160  -2.085  16.049  0.00  0.00    +0.000 C 
ENDBRANCH  13  15
ENDBRANCH  11  13
ENDBRANCH   4  11
ENDBRANCH   1   8
BRANCH   3  16
ATOM     16  C   UNL     1      38.658   5.282  17.231  0.00  0.00    +0.000 C 
BRANCH  16  17
ATOM     17  C   UNL     1      39.332   5.381  18.590  0.00  0.00    +0.000 C 
BRANCH  17  18
ATOM     18  C   UNL     1      40.102   6.656  18.632  0.00  0.00    +0.000 C 
BRANCH  18  19
ATOM     19  C   UNL     1      39.313   7.832  19.024  0.00  0.00    +0.000 A 
ATOM     20  C   UNL     1      38.706   7.973  20.260  0.00  0.00    +0.000 A 
ATOM     21  C   UNL     1      37.970   9.098  20.590  0.00  0.00    +0.000 A 
ATOM     22  C   UNL     1      37.816  10.124  19.695  0.00  0.00    +0.000 A 
ATOM     23  C   UNL     1      38.411  10.008  18.457  0.00  0.00    +0.000 A 
ATOM     24  C   UNL     1      39.146   8.877  18.135  0.00  0.00    +0.000 A 
ENDBRANCH  18  19
BRANCH  18  25
ATOM     25  C   UNL     1      41.416   6.566  19.259  0.00  0.00    +0.000 A 
ATOM     26  C   UNL     1      42.533   6.897  18.483  0.00  0.00    +0.000 A 
ATOM     27  C   UNL     1      43.809   6.845  18.974  0.00  0.00    +0.000 A 
ATOM     28  C   UNL     1      44.025   6.460  20.263  0.00  0.00    +0.000 A 
ATOM     29  C   UNL     1      42.958   6.127  21.063  0.00  0.00    +0.000 A 
ATOM     30  C   UNL     1      41.667   6.185  20.548  0.00  0.00    +0.000 A 
ENDBRANCH  18  25
ENDBRANCH  17  18
ENDBRANCH  16  17
ENDBRANCH   3  16
TORSDOF 9
ENDMDL
MODEL 5
REMARK VINA RESULT:      -7.1      1.932      3.510
REMARK  Name = 
REMARK  9 active torsions:
REMARK  status: ('A' for Active; 'I' for Inactive)
REMARK    1  A    between atoms: C_2  and  O_3
REMARK    2  A    between atoms: O_3  and  C_4
REMARK    3  A    between atoms: C_4  and  C_6
REMARK    4  A    between atoms: C_10  and  C_11
REMARK    5  A    between atoms: N_13  and  C_14
REMARK    6  A    between atoms: C_14  and  C_15
REMARK    7  A    between atoms: C_15  and  C_16
REMARK    8  A    between atoms: C_16  and  C_17
REMARK    9  A    between atoms: C_16  and  C_23
REMARK                            x       y       z     vdW  Elec       q    Type
REMARK                         _______ _______ _______ _____ _____    ______ ____
ROOT
ATOM      1  C   UNL     1      35.955   1.471  16.593  0.00  0.00    +0.000 C 
ATOM      2  O   UNL     1      34.853   2.073  16.538  0.00  0.00    +0.000 OA
ATOM      3  N   UNL     1      37.131   2.263  16.663  0.00  0.00    +0.000 NA
ENDROOT
BRANCH   1   8
ATOM      4  C   UNL     1      36.263  -2.117  15.883  0.00  0.00    +0.000 A 
ATOM      5  N   UNL     1      35.946  -2.097  17.210  0.00  0.00    +0.000 NA
ATOM      6  C   UNL     1      35.795  -0.838  17.639  0.00  0.00    +0.000 A 
ATOM      7  C   UNL     1      35.448  -0.474  19.032  0.00  0.00    +0.000 C 
ATOM      8  C   UNL     1      36.014   0.019  16.583  0.00  0.00    +0.000 A 
ATOM      9  C   UNL     1      36.300  -0.786  15.511  0.00  0.00    +0.000 A 
ATOM     10  C   UNL     1      36.615  -0.334  14.120  0.00  0.00    +0.000 C 
BRANCH   4  11
ATOM     11  C   UNL     1      36.504  -3.296  15.065  0.00  0.00    +0.000 C 
ATOM     12  O   UNL     1      37.666  -3.739  14.941  0.00  0.00    +0.000 OA
BRANCH  11  13
ATOM     13  O   UNL     1      35.455  -3.929  14.426  0.00  0.00    +0.000 OA
BRANCH  13  15
ATOM     14  C   UNL     1      33.246  -4.366  15.181  0.00  0.00    +0.000 C 
ATOM     15  C   UNL     1      34.660  -4.923  15.070  0.00  0.00    +0.000 C 
ENDBRANCH  13  15
ENDBRANCH  11  13
ENDBRANCH   4  11
ENDBRANCH   1   8
BRANCH   3  16
ATOM     16  C   UNL     1      37.095   3.712  16.673  0.00  0.00    +0.000 C 
BRANCH  16  17
ATOM     17  C   UNL     1      38.346   4.293  17.312  0.00  0.00    +0.000 C 
BRANCH  17  18
ATOM     18  C   UNL     1      38.338   5.766  17.087  0.00  0.00    +0.000 C 
BRANCH  18  19
ATOM     19  C   UNL     1      38.628   6.567  18.284  0.00  0.00    +0.000 A 
ATOM     20  C   UNL     1      37.926   7.706  18.635  0.00  0.00    +0.000 A 
ATOM     21  C   UNL     1      38.232   8.433  19.773  0.00  0.00    +0.000 A 
ATOM     22  C   UNL     1      39.252   8.045  20.601  0.00  0.00    +0.000 A 
ATOM     23  C   UNL     1      39.967   6.912  20.274  0.00  0.00    +0.000 A 
ATOM     24  C   UNL     1      39.653   6.191  19.132  0.00  0.00    +0.000 A 
ENDBRANCH  18  19
BRANCH  18  25
ATOM     25  C   UNL     1      39.017   6.212  15.874  0.00  0.00    +0.000 A 
ATOM     26  C   UNL     1      40.223   5.587  15.535  0.00  0.00    +0.000 A 
ATOM     27  C   UNL     1      40.938   5.930  14.421  0.00  0.00    +0.000 A 
ATOM     28  C   UNL     1      40.480   6.912  13.596  0.00  0.00    +0.000 A 
ATOM     29  C   UNL     1      39.300   7.553  13.888  0.00  0.00    +0.000 A 
ATOM     30  C   UNL     1      38.585   7.192  15.026  0.00  0.00    +0.000 A 
ENDBRANCH  18  25
ENDBRANCH  17  18
ENDBRANCH  16  17
ENDBRANCH   3  16
TORSDOF 9
ENDMDL
MODEL 6
REMARK VINA RESULT:      -7.1      1.314      3.856
REMARK  Name = 
REMARK  9 active torsions:
REMARK  status: ('A' for Active; 'I' for Inactive)
REMARK    1  A    between atoms: C_2  and  O_3
REMARK    2  A    between atoms: O_3  and  C_4
REMARK    3  A    between atoms: C_4  and  C_6
REMARK    4  A    between atoms: C_10  and  C_11
REMARK    5  A    between atoms: N_13  and  C_14
REMARK    6  A    between atoms: C_14  and  C_15
REMARK    7  A    between atoms: C_15  and  C_16
REMARK    8  A    between atoms: C_16  and  C_17
REMARK    9  A    between atoms: C_16  and  C_23
REMARK                            x       y       z     vdW  Elec       q    Type
REMARK                         _______ _______ _______ _____ _____    ______ ____
ROOT
ATOM      1  C   UNL     1      36.618   2.697  15.938  0.00  0.00    +0.000 C 
ATOM      2  O   UNL     1      35.895   3.549  15.363  0.00  0.00    +0.000 OA
ATOM      3  N   UNL     1      37.744   3.173  16.660  0.00  0.00    +0.000 NA
ENDROOT
BRANCH   1   8
ATOM      4  C   UNL     1      35.674  -0.815  16.436  0.00  0.00    +0.000 A 
ATOM      5  N   UNL     1      36.017  -0.777  15.116  0.00  0.00    +0.000 NA
ATOM      6  C   UNL     1      36.394   0.457  14.761  0.00  0.00    +0.000 A 
ATOM      7  C   UNL     1      36.828   0.831  13.396  0.00  0.00    +0.000 C 
ATOM      8  C   UNL     1      36.306   1.279  15.863  0.00  0.00    +0.000 A 
ATOM      9  C   UNL     1      35.862   0.480  16.883  0.00  0.00    +0.000 A 
ATOM     10  C   UNL     1      35.602   0.902  18.295  0.00  0.00    +0.000 C 
BRANCH   4  11
ATOM     11  C   UNL     1      35.214  -1.976  17.181  0.00  0.00    +0.000 C 
ATOM     12  O   UNL     1      35.988  -2.940  17.370  0.00  0.00    +0.000 OA
BRANCH  11  13
ATOM     13  O   UNL     1      33.926  -2.021  17.682  0.00  0.00    +0.000 OA
BRANCH  13  15
ATOM     14  C   UNL     1      31.555  -2.157  17.662  0.00  0.00    +0.000 C 
ATOM     15  C   UNL     1      32.833  -2.536  16.924  0.00  0.00    +0.000 C 
ENDBRANCH  13  15
ENDBRANCH  11  13
ENDBRANCH   4  11
ENDBRANCH   1   8
BRANCH   3  16
ATOM     16  C   UNL     1      38.074   4.582  16.747  0.00  0.00    +0.000 C 
BRANCH  16  17
ATOM     17  C   UNL     1      38.841   4.893  18.022  0.00  0.00    +0.000 C 
BRANCH  17  18
ATOM     18  C   UNL     1      39.470   6.235  17.867  0.00  0.00    +0.000 C 
BRANCH  18  19
ATOM     19  C   UNL     1      38.555   7.365  18.081  0.00  0.00    +0.000 A 
ATOM     20  C   UNL     1      38.042   8.142  17.058  0.00  0.00    +0.000 A 
ATOM     21  C   UNL     1      37.182   9.199  17.302  0.00  0.00    +0.000 A 
ATOM     22  C   UNL     1      36.804   9.516  18.581  0.00  0.00    +0.000 A 
ATOM     23  C   UNL     1      37.301   8.756  19.618  0.00  0.00    +0.000 A 
ATOM     24  C   UNL     1      38.163   7.699  19.363  0.00  0.00    +0.000 A 
ENDBRANCH  18  19
BRANCH  18  25
ATOM     25  C   UNL     1      40.780   6.382  18.493  0.00  0.00    +0.000 A 
ATOM     26  C   UNL     1      40.865   6.194  19.878  0.00  0.00    +0.000 A 
ATOM     27  C   UNL     1      42.044   6.309  20.562  0.00  0.00    +0.000 A 
ATOM     28  C   UNL     1      43.190   6.618  19.893  0.00  0.00    +0.000 A 
ATOM     29  C   UNL     1      43.154   6.811  18.533  0.00  0.00    +0.000 A 
ATOM     30  C   UNL     1      41.947   6.690  17.852  0.00  0.00    +0.000 A 
ENDBRANCH  18  25
ENDBRANCH  17  18
ENDBRANCH  16  17
ENDBRANCH   3  16
TORSDOF 9
ENDMDL
MODEL 7
REMARK VINA RESULT:      -7.1      2.372      3.584
REMARK  Name = 
REMARK  9 active torsions:
REMARK  status: ('A' for Active; 'I' for Inactive)
REMARK    1  A    between atoms: C_2  and  O_3
REMARK    2  A    between atoms: O_3  and  C_4
REMARK    3  A    between atoms: C_4  and  C_6
REMARK    4  A    between atoms: C_10  and  C_11
REMARK    5  A    between atoms: N_13  and  C_14
REMARK    6  A    between atoms: C_14  and  C_15
REMARK    7  A    between atoms: C_15  and  C_16
REMARK    8  A    between atoms: C_16  and  C_17
REMARK    9  A    between atoms: C_16  and  C_23
REMARK                            x       y       z     vdW  Elec       q    Type
REMARK                         _______ _______ _______ _____ _____    ______ ____
ROOT
ATOM      1  C   UNL     1      37.774   1.499  14.394  0.00  0.00    +0.000 C 
ATOM      2  O   UNL     1      37.689   1.499  13.140  0.00  0.00    +0.000 OA
ATOM      3  N   UNL     1      38.835   2.240  14.979  0.00  0.00    +0.000 NA
ENDROOT
BRANCH   1   8
ATOM      4  C   UNL     1      35.765  -0.915  16.294  0.00  0.00    +0.000 A 
ATOM      5  N   UNL     1      35.099   0.258  16.496  0.00  0.00    +0.000 NA
ATOM      6  C   UNL     1      35.711   1.264  15.858  0.00  0.00    +0.000 A 
ATOM      7  C   UNL     1      35.239   2.667  15.878  0.00  0.00    +0.000 C 
ATOM      8  C   UNL     1      36.819   0.765  15.208  0.00  0.00    +0.000 A 
ATOM      9  C   UNL     1      36.836  -0.576  15.487  0.00  0.00    +0.000 A 
ATOM     10  C   UNL     1      37.847  -1.570  15.010  0.00  0.00    +0.000 C 
BRANCH   4  11
ATOM     11  C   UNL     1      35.405  -2.221  16.824  0.00  0.00    +0.000 C 
ATOM     12  O   UNL     1      35.979  -2.657  17.845  0.00  0.00    +0.000 OA
BRANCH  11  13
ATOM     13  O   UNL     1      34.429  -2.981  16.206  0.00  0.00    +0.000 OA
BRANCH  13  15
ATOM     14  C   UNL     1      33.413  -4.492  14.681  0.00  0.00    +0.000 C 
ATOM     15  C   UNL     1      34.685  -3.721  15.013  0.00  0.00    +0.000 C 
ENDBRANCH  13  15
ENDBRANCH  11  13
ENDBRANCH   4  11
ENDBRANCH   1   8
BRANCH   3  16
ATOM     16  C   UNL     1      39.798   2.978  14.186  0.00  0.00    +0.000 C 
BRANCH  16  17
ATOM     17  C   UNL     1      39.333   4.403  13.934  0.00  0.00    +0.000 C 
BRANCH  17  18
ATOM     18  C   UNL     1      38.404   4.787  15.034  0.00  0.00    +0.000 C 
BRANCH  18  19
ATOM     19  C   UNL     1      39.070   5.217  16.272  0.00  0.00    +0.000 A 
ATOM     20  C   UNL     1      40.263   5.917  16.298  0.00  0.00    +0.000 A 
ATOM     21  C   UNL     1      40.859   6.303  17.487  0.00  0.00    +0.000 A 
ATOM     22  C   UNL     1      40.280   6.003  18.692  0.00  0.00    +0.000 A 
ATOM     23  C   UNL     1      39.090   5.306  18.693  0.00  0.00    +0.000 A 
ATOM     24  C   UNL     1      38.502   4.923  17.496  0.00  0.00    +0.000 A 
ENDBRANCH  18  19
BRANCH  18  25
ATOM     25  C   UNL     1      37.273   5.617  14.630  0.00  0.00    +0.000 A 
ATOM     26  C   UNL     1      36.324   5.050  13.771  0.00  0.00    +0.000 A 
ATOM     27  C   UNL     1      35.228   5.742  13.332  0.00  0.00    +0.000 A 
ATOM     28  C   UNL     1      35.032   7.029  13.732  0.00  0.00    +0.000 A 
ATOM     29  C   UNL     1      35.938   7.626  14.576  0.00  0.00    +0.000 A 
ATOM     30  C   UNL     1      37.047   6.909  15.012  0.00  0.00    +0.000 A 
ENDBRANCH  18  25
ENDBRANCH  17  18
ENDBRANCH  16  17
ENDBRANCH   3  16
TORSDOF 9
ENDMDL
MODEL 8
REMARK VINA RESULT:      -7.0      3.021      9.219
REMARK  Name = 
REMARK  9 active torsions:
REMARK  status: ('A' for Active; 'I' for Inactive)
REMARK    1  A    between atoms: C_2  and  O_3
REMARK    2  A    between atoms: O_3  and  C_4
REMARK    3  A    between atoms: C_4  and  C_6
REMARK    4  A    between atoms: C_10  and  C_11
REMARK    5  A    between atoms: N_13  and  C_14
REMARK    6  A    between atoms: C_14  and  C_15
REMARK    7  A    between atoms: C_15  and  C_16
REMARK    8  A    between atoms: C_16  and  C_17
REMARK    9  A    between atoms: C_16  and  C_23
REMARK                            x       y       z     vdW  Elec       q    Type
REMARK                         _______ _______ _______ _____ _____    ______ ____
ROOT
ATOM      1  C   UNL     1      38.977  -0.317  14.304  0.00  0.00    +0.000 C 
ATOM      2  O   UNL     1      39.916  -0.836  14.959  0.00  0.00    +0.000 OA
ATOM      3  N   UNL     1      38.069  -1.193  13.654  0.00  0.00    +0.000 NA
ENDROOT
BRANCH   1   8
ATOM      4  C   UNL     1      38.083   3.235  14.542  0.00  0.00    +0.000 A 
ATOM      5  N   UNL     1      39.134   3.245  13.673  0.00  0.00    +0.000 NA
ATOM      6  C   UNL     1      39.590   2.003  13.470  0.00  0.00    +0.000 A 
ATOM      7  C   UNL     1      40.725   1.673  12.578  0.00  0.00    +0.000 C 
ATOM      8  C   UNL     1      38.835   1.127  14.219  0.00  0.00    +0.000 A 
ATOM      9  C   UNL     1      37.913   1.903  14.871  0.00  0.00    +0.000 A 
ATOM     10  C   UNL     1      36.855   1.422  15.813  0.00  0.00    +0.000 C 
BRANCH   4  11
ATOM     11  C   UNL     1      37.327   4.389  15.005  0.00  0.00    +0.000 C 
ATOM     12  O   UNL     1      36.258   4.700  14.436  0.00  0.00    +0.000 OA
BRANCH  11  13
ATOM     13  O   UNL     1      37.783   5.142  16.070  0.00  0.00    +0.000 OA
BRANCH  13  15
ATOM     14  C   UNL     1      38.774   4.837  18.207  0.00  0.00    +0.000 C 
ATOM     15  C   UNL     1      39.033   4.881  16.706  0.00  0.00    +0.000 C 
ENDBRANCH  13  15
ENDBRANCH  11  13
ENDBRANCH   4  11
ENDBRANCH   1   8
BRANCH   3  16
ATOM     16  C   UNL     1      38.192  -2.635  13.725  0.00  0.00    +0.000 C 
BRANCH  16  17
ATOM     17  C   UNL     1      38.015  -3.137  15.148  0.00  0.00    +0.000 C 
BRANCH  17  18
ATOM     18  C   UNL     1      36.603  -2.887  15.554  0.00  0.00    +0.000 C 
BRANCH  18  19
ATOM     19  C   UNL     1      35.718  -4.054  15.431  0.00  0.00    +0.000 A 
ATOM     20  C   UNL     1      35.916  -5.243  16.111  0.00  0.00    +0.000 A 
ATOM     21  C   UNL     1      35.057  -6.319  15.967  0.00  0.00    +0.000 A 
ATOM     22  C   UNL     1      33.970  -6.244  15.137  0.00  0.00    +0.000 A 
ATOM     23  C   UNL     1      33.751  -5.070  14.449  0.00  0.00    +0.000 A 
ATOM     24  C   UNL     1      34.617  -3.997  14.599  0.00  0.00    +0.000 A 
ENDBRANCH  18  19
BRANCH  18  25
ATOM     25  C   UNL     1      36.439  -2.123  16.786  0.00  0.00    +0.000 A 
ATOM     26  C   UNL     1      35.172  -1.593  17.061  0.00  0.00    +0.000 A 
ATOM     27  C   UNL     1      34.912  -0.862  18.187  0.00  0.00    +0.000 A 
ATOM     28  C   UNL     1      35.906  -0.628  19.089  0.00  0.00    +0.000 A 
ATOM     29  C   UNL     1      37.165  -1.129  18.862  0.00  0.00    +0.000 A 
ATOM     30  C   UNL     1      37.413  -1.870  17.712  0.00  0.00    +0.000 A 
ENDBRANCH  18  25
ENDBRANCH  17  18
ENDBRANCH  16  17
ENDBRANCH   3  16
TORSDOF 9
ENDMDL
MODEL 9
REMARK VINA RESULT:      -7.0      2.462      3.496
REMARK  Name = 
REMARK  9 active torsions:
REMARK  status: ('A' for Active; 'I' for Inactive)
REMARK    1  A    between atoms: C_2  and  O_3
REMARK    2  A    between atoms: O_3  and  C_4
REMARK    3  A    between atoms: C_4  and  C_6
REMARK    4  A    between atoms: C_10  and  C_11
REMARK    5  A    between atoms: N_13  and  C_14
REMARK    6  A    between atoms: C_14  and  C_15
REMARK    7  A    between atoms: C_15  and  C_16
REMARK    8  A    between atoms: C_16  and  C_17
REMARK    9  A    between atoms: C_16  and  C_23
REMARK                            x       y       z     vdW  Elec       q    Type
REMARK                         _______ _______ _______ _____ _____    ______ ____
ROOT
ATOM      1  C   UNL     1      38.581   1.525  13.722  0.00  0.00    +0.000 C 
ATOM      2  O   UNL     1      38.175   1.568  12.533  0.00  0.00    +0.000 OA
ATOM      3  N   UNL     1      39.485   2.535  14.143  0.00  0.00    +0.000 NA
ENDROOT
BRANCH   1   8
ATOM      4  C   UNL     1      36.853  -0.756  16.021  0.00  0.00    +0.000 A 
ATOM      5  N   UNL     1      38.079  -1.337  15.883  0.00  0.00    +0.000 NA
ATOM      6  C   UNL     1      38.851  -0.618  15.059  0.00  0.00    +0.000 A 
ATOM      7  C   UNL     1      40.242  -0.980  14.701  0.00  0.00    +0.000 C 
ATOM      8  C   UNL     1      38.136   0.477  14.626  0.00  0.00    +0.000 A 
ATOM      9  C   UNL     1      36.910   0.376  15.228  0.00  0.00    +0.000 A 
ATOM     10  C   UNL     1      35.765   1.328  15.079  0.00  0.00    +0.000 C 
BRANCH   4  11
ATOM     11  C   UNL     1      35.747  -1.243  16.832  0.00  0.00    +0.000 C 
ATOM     12  O   UNL     1      35.115  -2.260  16.475  0.00  0.00    +0.000 OA
BRANCH  11  13
ATOM     13  O   UNL     1      35.391  -0.586  17.995  0.00  0.00    +0.000 OA
BRANCH  13  15
ATOM     14  C   UNL     1      36.990  -1.613  19.420  0.00  0.00    +0.000 C 
ATOM     15  C   UNL     1      36.337  -0.295  19.023  0.00  0.00    +0.000 C 
ENDBRANCH  13  15
ENDBRANCH  11  13
ENDBRANCH   4  11
ENDBRANCH   1   8
BRANCH   3  16
ATOM     16  C   UNL     1      39.942   3.589  13.259  0.00  0.00    +0.000 C 
BRANCH  16  17
ATOM     17  C   UNL     1      39.987   4.930  13.973  0.00  0.00    +0.000 C 
BRANCH  17  18
ATOM     18  C   UNL     1      38.924   4.934  15.018  0.00  0.00    +0.000 C 
BRANCH  18  19
ATOM     19  C   UNL     1      39.388   5.321  16.358  0.00  0.00    +0.000 A 
ATOM     20  C   UNL     1      40.547   6.040  16.591  0.00  0.00    +0.000 A 
ATOM     21  C   UNL     1      40.949   6.384  17.871  0.00  0.00    +0.000 A 
ATOM     22  C   UNL     1      40.204   6.022  18.962  0.00  0.00    +0.000 A 
ATOM     23  C   UNL     1      39.044   5.306  18.755  0.00  0.00    +0.000 A 
ATOM     24  C   UNL     1      38.650   4.966  17.470  0.00  0.00    +0.000 A 
ENDBRANCH  18  19
BRANCH  18  25
ATOM     25  C   UNL     1      37.659   5.537  14.612  0.00  0.00    +0.000 A 
ATOM     26  C   UNL     1      36.613   4.678  14.254  0.00  0.00    +0.000 A 
ATOM     27  C   UNL     1      35.388   5.140  13.858  0.00  0.00    +0.000 A 
ATOM     28  C   UNL     1      35.153   6.481  13.803  0.00  0.00    +0.000 A 
ATOM     29  C   UNL     1      36.150   7.362  14.146  0.00  0.00    +0.000 A 
ATOM     30  C   UNL     1      37.391   6.876  14.546  0.00  0.00    +0.000 A 
ENDBRANCH  18  25
ENDBRANCH  17  18
ENDBRANCH  16  17
ENDBRANCH   3  16
TORSDOF 9
ENDMDL
MODEL 10
REMARK VINA RESULT:      -7.0      3.527      5.690
REMARK  Name = 
REMARK  9 active torsions:
REMARK  status: ('A' for Active; 'I' for Inactive)
REMARK    1  A    between atoms: C_2  and  O_3
REMARK    2  A    between atoms: O_3  and  C_4
REMARK    3  A    between atoms: C_4  and  C_6
REMARK    4  A    between atoms: C_10  and  C_11
REMARK    5  A    between atoms: N_13  and  C_14
REMARK    6  A    between atoms: C_14  and  C_15
REMARK    7  A    between atoms: C_15  and  C_16
REMARK    8  A    between atoms: C_16  and  C_17
REMARK    9  A    between atoms: C_16  and  C_23
REMARK                            x       y       z     vdW  Elec       q    Type
REMARK                         _______ _______ _______ _____ _____    ______ ____
ROOT
ATOM      1  C   UNL     1      37.639  -0.080  15.133  0.00  0.00    +0.000 C 
ATOM      2  O   UNL     1      36.741  -0.177  14.259  0.00  0.00    +0.000 OA
ATOM      3  N   UNL     1      37.435   0.856  16.180  0.00  0.00    +0.000 NA
ENDROOT
BRANCH   1   8
ATOM      4  C   UNL     1      40.942  -1.596  14.622  0.00  0.00    +0.000 A 
ATOM      5  N   UNL     1      40.262  -2.571  15.293  0.00  0.00    +0.000 NA
ATOM      6  C   UNL     1      39.013  -2.173  15.563  0.00  0.00    +0.000 A 
ATOM      7  C   UNL     1      38.017  -3.001  16.282  0.00  0.00    +0.000 C 
ATOM      8  C   UNL     1      38.837  -0.900  15.067  0.00  0.00    +0.000 A 
ATOM      9  C   UNL     1      40.034  -0.562  14.491  0.00  0.00    +0.000 A 
ATOM     10  C   UNL     1      40.358   0.729  13.808  0.00  0.00    +0.000 C 
BRANCH   4  11
ATOM     11  C   UNL     1      42.320  -1.660  14.159  0.00  0.00    +0.000 C 
ATOM     12  O   UNL     1      43.256  -1.620  14.987  0.00  0.00    +0.000 OA
BRANCH  11  13
ATOM     13  O   UNL     1      42.599  -1.766  12.809  0.00  0.00    +0.000 OA
BRANCH  13  15
ATOM     14  C   UNL     1      41.862  -3.576  11.461  0.00  0.00    +0.000 C 
ATOM     15  C   UNL     1      43.044  -2.986  12.219  0.00  0.00    +0.000 C 
ENDBRANCH  13  15
ENDBRANCH  11  13
ENDBRANCH   4  11
ENDBRANCH   1   8
BRANCH   3  16
ATOM     16  C   UNL     1      36.248   1.683  16.266  0.00  0.00    +0.000 C 
BRANCH  16  17
ATOM     17  C   UNL     1      36.581   3.081  16.762  0.00  0.00    +0.000 C 
BRANCH  17  18
ATOM     18  C   UNL     1      37.697   3.613  15.930  0.00  0.00    +0.000 C 
BRANCH  18  19
ATOM     19  C   UNL     1      37.301   4.044  14.582  0.00  0.00    +0.000 A 
ATOM     20  C   UNL     1      37.823   3.505  13.419  0.00  0.00    +0.000 A 
ATOM     21  C   UNL     1      37.422   3.940  12.167  0.00  0.00    +0.000 A 
ATOM     22  C   UNL     1      36.484   4.929  12.034  0.00  0.00    +0.000 A 
ATOM     23  C   UNL     1      35.949   5.483  13.178  0.00  0.00    +0.000 A 
ATOM     24  C   UNL     1      36.357   5.041  14.428  0.00  0.00    +0.000 A 
ENDBRANCH  18  19
BRANCH  18  25
ATOM     25  C   UNL     1      38.606   4.523  16.620  0.00  0.00    +0.000 A 
ATOM     26  C   UNL     1      38.447   4.679  18.002  0.00  0.00    +0.000 A 
ATOM     27  C   UNL     1      39.245   5.507  18.742  0.00  0.00    +0.000 A 
ATOM     28  C   UNL     1      40.236   6.217  18.135  0.00  0.00    +0.000 A 
ATOM     29  C   UNL     1      40.430   6.095  16.779  0.00  0.00    +0.000 A 
ATOM     30  C   UNL     1      39.609   5.248  16.041  0.00  0.00    +0.000 A 
ENDBRANCH  18  25
ENDBRANCH  17  18
ENDBRANCH  16  17
ENDBRANCH   3  16
TORSDOF 9
ENDMDL
