MODEL 1
REMARK VINA RESULT:      -7.0      0.000      0.000
REMARK  Name = 
REMARK  2 active torsions:
REMARK  status: ('A' for Active; 'I' for Inactive)
REMARK    1  A    between atoms: C_7  and  S_8
REMARK    2  A    between atoms: S_8  and  C_9
REMARK                            x       y       z     vdW  Elec       q    Type
REMARK                         _______ _______ _______ _____ _____    ______ ____
ROOT
ATOM      1  C   UNL     1      27.677  23.526  23.226  0.00  0.00    +0.000 A 
ATOM      2  N   UNL     1      26.387  23.546  22.938  0.00  0.00    +0.000 NA
ATOM      3  C   UNL     1      25.419  23.220  23.777  0.00  0.00    +0.000 A 
ATOM      4  N   UNL     1      25.800  22.841  25.017  0.00  0.00    +0.000 NA
ATOM      5  C   UNL     1      27.119  22.804  25.365  0.00  0.00    +0.000 A 
ATOM      6  S   UNL     1      27.954  22.391  26.794  0.00  0.00    +0.000 S 
ATOM      7  C   UNL     1      29.553  22.652  26.264  0.00  0.00    +0.000 A 
ATOM      8  C   UNL     1      29.382  23.062  24.964  0.00  0.00    +0.000 A 
ATOM      9  C   UNL     1      28.129  23.141  24.500  0.00  0.00    +0.000 A 
ATOM     10  C   UNL     1      30.708  23.361  24.275  0.00  0.00    +0.000 C 
ATOM     11  C   UNL     1      31.408  24.349  25.194  0.00  0.00    +0.000 C 
ATOM     12  C   UNL     1      31.783  23.731  26.514  0.00  0.00    +0.000 C 
ATOM     13  C   UNL     1      30.938  22.540  26.860  0.00  0.00    +0.000 C 
ENDROOT
BRANCH   1  14
ATOM     14  S   UNL     1      28.823  24.003  21.948  0.00  0.00    +0.000 S 
BRANCH  14  21
ATOM     15  N   UNL     1      29.806  25.695  19.708  0.00  0.00    +0.000 NA
ATOM     16  C   UNL     1      29.366  26.456  20.837  0.00  0.00    +0.000 A 
ATOM     17  C   UNL     1      29.416  27.832  20.831  0.00  0.00    +0.000 A 
ATOM     18  C   UNL     1      29.002  28.564  21.895  0.00  0.00    +0.000 A 
ATOM     19  C   UNL     1      28.513  27.931  23.026  0.00  0.00    +0.000 A 
ATOM     20  C   UNL     1      28.470  26.548  23.015  0.00  0.00    +0.000 A 
ATOM     21  C   UNL     1      28.888  25.791  21.939  0.00  0.00    +0.000 A 
ENDBRANCH  14  21
ENDBRANCH   1  14
TORSDOF 2
ENDMDL
MODEL 2
REMARK VINA RESULT:      -6.3      2.411      3.589
REMARK  Name = 
REMARK  2 active torsions:
REMARK  status: ('A' for Active; 'I' for Inactive)
REMARK    1  A    between atoms: C_7  and  S_8
REMARK    2  A    between atoms: S_8  and  C_9
REMARK                            x       y       z     vdW  Elec       q    Type
REMARK                         _______ _______ _______ _____ _____    ______ ____
ROOT
ATOM      1  C   UNL     1      26.135  23.931  26.629  0.00  0.00    +0.000 A 
ATOM      2  N   UNL     1      25.061  24.697  26.712  0.00  0.00    +0.000 NA
ATOM      3  C   UNL     1      24.790  25.513  27.716  0.00  0.00    +0.000 A 
ATOM      4  N   UNL     1      25.693  25.553  28.720  0.00  0.00    +0.000 NA
ATOM      5  C   UNL     1      26.819  24.783  28.683  0.00  0.00    +0.000 A 
ATOM      6  S   UNL     1      28.145  24.573  29.734  0.00  0.00    +0.000 S 
ATOM      7  C   UNL     1      29.027  23.421  28.840  0.00  0.00    +0.000 A 
ATOM      8  C   UNL     1      28.245  23.232  27.727  0.00  0.00    +0.000 A 
ATOM      9  C   UNL     1      27.108  23.933  27.645  0.00  0.00    +0.000 A 
ATOM     10  C   UNL     1      28.850  22.219  26.762  0.00  0.00    +0.000 C 
ATOM     11  C   UNL     1      30.260  22.727  26.502  0.00  0.00    +0.000 C 
ATOM     12  C   UNL     1      31.123  22.661  27.733  0.00  0.00    +0.000 C 
ATOM     13  C   UNL     1      30.327  22.666  29.005  0.00  0.00    +0.000 C 
ENDROOT
BRANCH   1  14
ATOM     14  S   UNL     1      26.312  22.899  25.187  0.00  0.00    +0.000 S 
BRANCH  14  21
ATOM     15  N   UNL     1      25.578  22.888  22.306  0.00  0.00    +0.000 NA
ATOM     16  C   UNL     1      26.636  23.799  22.613  0.00  0.00    +0.000 A 
ATOM     17  C   UNL     1      27.221  24.570  21.632  0.00  0.00    +0.000 A 
ATOM     18  C   UNL     1      28.226  25.436  21.911  0.00  0.00    +0.000 A 
ATOM     19  C   UNL     1      28.690  25.566  23.209  0.00  0.00    +0.000 A 
ATOM     20  C   UNL     1      28.093  24.785  24.182  0.00  0.00    +0.000 A 
ATOM     21  C   UNL     1      27.069  23.899  23.912  0.00  0.00    +0.000 A 
ENDBRANCH  14  21
ENDBRANCH   1  14
TORSDOF 2
ENDMDL
MODEL 3
REMARK VINA RESULT:      -6.2      2.525      4.763
REMARK  Name = 
REMARK  2 active torsions:
REMARK  status: ('A' for Active; 'I' for Inactive)
REMARK    1  A    between atoms: C_7  and  S_8
REMARK    2  A    between atoms: S_8  and  C_9
REMARK                            x       y       z     vdW  Elec       q    Type
REMARK                         _______ _______ _______ _____ _____    ______ ____
ROOT
ATOM      1  C   UNL     1      28.037  23.253  24.326  0.00  0.00    +0.000 A 
ATOM      2  N   UNL     1      27.638  23.343  23.068  0.00  0.00    +0.000 NA
ATOM      3  C   UNL     1      28.399  23.730  22.059  0.00  0.00    +0.000 A 
ATOM      4  N   UNL     1      29.676  24.053  22.358  0.00  0.00    +0.000 NA
ATOM      5  C   UNL     1      30.138  23.977  23.640  0.00  0.00    +0.000 A 
ATOM      6  S   UNL     1      31.643  24.293  24.377  0.00  0.00    +0.000 S 
ATOM      7  C   UNL     1      31.247  23.913  25.990  0.00  0.00    +0.000 A 
ATOM      8  C   UNL     1      29.927  23.543  25.903  0.00  0.00    +0.000 A 
ATOM      9  C   UNL     1      29.355  23.575  24.693  0.00  0.00    +0.000 A 
ATOM     10  C   UNL     1      29.347  23.151  27.256  0.00  0.00    +0.000 C 
ATOM     11  C   UNL     1      30.298  22.091  27.792  0.00  0.00    +0.000 C 
ATOM     12  C   UNL     1      31.661  22.652  28.097  0.00  0.00    +0.000 C 
ATOM     13  C   UNL     1      31.963  23.901  27.321  0.00  0.00    +0.000 C 
ENDROOT
BRANCH   1  14
ATOM     14  S   UNL     1      26.850  22.708  25.539  0.00  0.00    +0.000 S 
BRANCH  14  21
ATOM     15  N   UNL     1      25.999  23.551  28.260  0.00  0.00    +0.000 NA
ATOM     16  C   UNL     1      25.484  24.391  27.224  0.00  0.00    +0.000 A 
ATOM     17  C   UNL     1      24.678  25.470  27.516  0.00  0.00    +0.000 A 
ATOM     18  C   UNL     1      24.183  26.274  26.543  0.00  0.00    +0.000 A 
ATOM     19  C   UNL     1      24.484  26.021  25.214  0.00  0.00    +0.000 A 
ATOM     20  C   UNL     1      25.294  24.934  24.939  0.00  0.00    +0.000 A 
ATOM     21  C   UNL     1      25.805  24.108  25.919  0.00  0.00    +0.000 A 
ENDBRANCH  14  21
ENDBRANCH   1  14
TORSDOF 2
ENDMDL
MODEL 4
REMARK VINA RESULT:      -6.2      3.251      4.474
REMARK  Name = 
REMARK  2 active torsions:
REMARK  status: ('A' for Active; 'I' for Inactive)
REMARK    1  A    between atoms: C_7  and  S_8
REMARK    2  A    between atoms: S_8  and  C_9
REMARK                            x       y       z     vdW  Elec       q    Type
REMARK                         _______ _______ _______ _____ _____    ______ ____
ROOT
ATOM      1  C   UNL     1      25.528  24.416  25.889  0.00  0.00    +0.000 A 
ATOM      2  N   UNL     1      24.891  25.164  25.005  0.00  0.00    +0.000 NA
ATOM      3  C   UNL     1      24.162  26.227  25.298  0.00  0.00    +0.000 A 
ATOM      4  N   UNL     1      24.075  26.555  26.606  0.00  0.00    +0.000 NA
ATOM      5  C   UNL     1      24.715  25.816  27.559  0.00  0.00    +0.000 A 
ATOM      6  S   UNL     1      24.834  25.923  29.257  0.00  0.00    +0.000 S 
ATOM      7  C   UNL     1      25.835  24.575  29.549  0.00  0.00    +0.000 A 
ATOM      8  C   UNL     1      26.050  24.073  28.288  0.00  0.00    +0.000 A 
ATOM      9  C   UNL     1      25.474  24.712  27.263  0.00  0.00    +0.000 A 
ATOM     10  C   UNL     1      26.940  22.837  28.303  0.00  0.00    +0.000 C 
ATOM     11  C   UNL     1      28.184  23.265  29.067  0.00  0.00    +0.000 C 
ATOM     12  C   UNL     1      27.891  23.555  30.514  0.00  0.00    +0.000 C 
ATOM     13  C   UNL     1      26.452  23.909  30.758  0.00  0.00    +0.000 C 
ENDROOT
BRANCH   1  14
ATOM     14  S   UNL     1      26.460  23.023  25.284  0.00  0.00    +0.000 S 
BRANCH  14  21
ATOM     15  N   UNL     1      26.071  23.150  22.339  0.00  0.00    +0.000 NA
ATOM     16  C   UNL     1      27.340  23.656  22.761  0.00  0.00    +0.000 A 
ATOM     17  C   UNL     1      28.252  24.142  21.850  0.00  0.00    +0.000 A 
ATOM     18  C   UNL     1      29.459  24.624  22.238  0.00  0.00    +0.000 A 
ATOM     19  C   UNL     1      29.802  24.639  23.580  0.00  0.00    +0.000 A 
ATOM     20  C   UNL     1      28.874  24.147  24.481  0.00  0.00    +0.000 A 
ATOM     21  C   UNL     1      27.643  23.653  24.100  0.00  0.00    +0.000 A 
ENDBRANCH  14  21
ENDBRANCH   1  14
TORSDOF 2
ENDMDL
MODEL 5
REMARK VINA RESULT:      -6.2      4.544      6.785
REMARK  Name = 
REMARK  2 active torsions:
REMARK  status: ('A' for Active; 'I' for Inactive)
REMARK    1  A    between atoms: C_7  and  S_8
REMARK    2  A    between atoms: S_8  and  C_9
REMARK                            x       y       z     vdW  Elec       q    Type
REMARK                         _______ _______ _______ _____ _____    ______ ____
ROOT
ATOM      1  C   UNL     1      28.861  23.117  29.427  0.00  0.00    +0.000 A 
ATOM      2  N   UNL     1      29.222  23.552  30.622  0.00  0.00    +0.000 NA
ATOM      3  C   UNL     1      30.411  24.049  30.918  0.00  0.00    +0.000 A 
ATOM      4  N   UNL     1      31.307  24.107  29.909  0.00  0.00    +0.000 NA
ATOM      5  C   UNL     1      30.984  23.672  28.657  0.00  0.00    +0.000 A 
ATOM      6  S   UNL     1      31.828  23.592  27.177  0.00  0.00    +0.000 S 
ATOM      7  C   UNL     1      30.609  22.910  26.200  0.00  0.00    +0.000 A 
ATOM      8  C   UNL     1      29.560  22.763  27.076  0.00  0.00    +0.000 A 
ATOM      9  C   UNL     1      29.753  23.155  28.341  0.00  0.00    +0.000 A 
ATOM     10  C   UNL     1      28.332  22.158  26.408  0.00  0.00    +0.000 C 
ATOM     11  C   UNL     1      28.069  23.047  25.202  0.00  0.00    +0.000 C 
ATOM     12  C   UNL     1      29.163  22.949  24.174  0.00  0.00    +0.000 C 
ATOM     13  C   UNL     1      30.469  22.491  24.754  0.00  0.00    +0.000 C 
ENDROOT
BRANCH   1  14
ATOM     14  S   UNL     1      27.206  22.483  29.238  0.00  0.00    +0.000 S 
BRANCH  14  21
ATOM     15  N   UNL     1      26.102  24.296  31.320  0.00  0.00    +0.000 NA
ATOM     16  C   UNL     1      25.692  24.645  29.995  0.00  0.00    +0.000 A 
ATOM     17  C   UNL     1      24.867  25.724  29.766  0.00  0.00    +0.000 A 
ATOM     18  C   UNL     1      24.470  26.065  28.515  0.00  0.00    +0.000 A 
ATOM     19  C   UNL     1      24.896  25.323  27.426  0.00  0.00    +0.000 A 
ATOM     20  C   UNL     1      25.724  24.243  27.673  0.00  0.00    +0.000 A 
ATOM     21  C   UNL     1      26.135  23.884  28.942  0.00  0.00    +0.000 A 
ENDBRANCH  14  21
ENDBRANCH   1  14
TORSDOF 2
ENDMDL
MODEL 6
REMARK VINA RESULT:      -6.2      3.548      5.276
REMARK  Name = 
REMARK  2 active torsions:
REMARK  status: ('A' for Active; 'I' for Inactive)
REMARK    1  A    between atoms: C_7  and  S_8
REMARK    2  A    between atoms: S_8  and  C_9
REMARK                            x       y       z     vdW  Elec       q    Type
REMARK                         _______ _______ _______ _____ _____    ______ ____
ROOT
ATOM      1  C   UNL     1      26.371  23.726  26.319  0.00  0.00    +0.000 A 
ATOM      2  N   UNL     1      27.223  22.719  26.227  0.00  0.00    +0.000 NA
ATOM      3  C   UNL     1      27.786  22.110  27.256  0.00  0.00    +0.000 A 
ATOM      4  N   UNL     1      27.453  22.567  28.483  0.00  0.00    +0.000 NA
ATOM      5  C   UNL     1      26.578  23.603  28.632  0.00  0.00    +0.000 A 
ATOM      6  S   UNL     1      25.937  24.426  29.981  0.00  0.00    +0.000 S 
ATOM      7  C   UNL     1      24.944  25.551  29.173  0.00  0.00    +0.000 A 
ATOM      8  C   UNL     1      25.147  25.244  27.849  0.00  0.00    +0.000 A 
ATOM      9  C   UNL     1      25.988  24.241  27.570  0.00  0.00    +0.000 A 
ATOM     10  C   UNL     1      24.341  26.142  26.918  0.00  0.00    +0.000 C 
ATOM     11  C   UNL     1      22.908  26.025  27.413  0.00  0.00    +0.000 C 
ATOM     12  C   UNL     1      22.729  26.620  28.784  0.00  0.00    +0.000 C 
ATOM     13  C   UNL     1      24.008  26.671  29.568  0.00  0.00    +0.000 C 
ENDROOT
BRANCH   1  14
ATOM     14  S   UNL     1      25.723  24.408  24.805  0.00  0.00    +0.000 S 
BRANCH  14  21
ATOM     15  N   UNL     1      25.883  23.104  22.137  0.00  0.00    +0.000 NA
ATOM     16  C   UNL     1      27.040  23.883  22.452  0.00  0.00    +0.000 A 
ATOM     17  C   UNL     1      28.093  23.984  21.571  0.00  0.00    +0.000 A 
ATOM     18  C   UNL     1      29.196  24.719  21.858  0.00  0.00    +0.000 A 
ATOM     19  C   UNL     1      29.284  25.395  23.064  0.00  0.00    +0.000 A 
ATOM     20  C   UNL     1      28.217  25.284  23.938  0.00  0.00    +0.000 A 
ATOM     21  C   UNL     1      27.090  24.538  23.658  0.00  0.00    +0.000 A 
ENDBRANCH  14  21
ENDBRANCH   1  14
TORSDOF 2
ENDMDL
MODEL 7
REMARK VINA RESULT:      -6.2      2.688      3.986
REMARK  Name = 
REMARK  2 active torsions:
REMARK  status: ('A' for Active; 'I' for Inactive)
REMARK    1  A    between atoms: C_7  and  S_8
REMARK    2  A    between atoms: S_8  and  C_9
REMARK                            x       y       z     vdW  Elec       q    Type
REMARK                         _______ _______ _______ _____ _____    ______ ____
ROOT
ATOM      1  C   UNL     1      30.092  23.505  23.977  0.00  0.00    +0.000 A 
ATOM      2  N   UNL     1      29.889  23.908  22.734  0.00  0.00    +0.000 NA
ATOM      3  C   UNL     1      28.702  24.072  22.177  0.00  0.00    +0.000 A 
ATOM      4  N   UNL     1      27.630  23.801  22.953  0.00  0.00    +0.000 NA
ATOM      5  C   UNL     1      27.785  23.383  24.243  0.00  0.00    +0.000 A 
ATOM      6  S   UNL     1      26.700  22.960  25.489  0.00  0.00    +0.000 S 
ATOM      7  C   UNL     1      27.821  22.578  26.714  0.00  0.00    +0.000 A 
ATOM      8  C   UNL     1      29.031  22.796  26.102  0.00  0.00    +0.000 A 
ATOM      9  C   UNL     1      29.014  23.211  24.829  0.00  0.00    +0.000 A 
ATOM     10  C   UNL     1      30.206  22.512  27.029  0.00  0.00    +0.000 C 
ATOM     11  C   UNL     1      29.932  23.348  28.269  0.00  0.00    +0.000 C 
ATOM     12  C   UNL     1      28.717  22.871  29.018  0.00  0.00    +0.000 C 
ATOM     13  C   UNL     1      27.759  22.109  28.150  0.00  0.00    +0.000 C 
ENDROOT
BRANCH   1  14
ATOM     14  S   UNL     1      31.777  23.348  24.536  0.00  0.00    +0.000 S 
BRANCH  14  21
ATOM     15  N   UNL     1      34.599  24.282  24.457  0.00  0.00    +0.000 NA
ATOM     16  C   UNL     1      33.684  25.295  24.881  0.00  0.00    +0.000 A 
ATOM     17  C   UNL     1      34.121  26.560  25.207  0.00  0.00    +0.000 A 
ATOM     18  C   UNL     1      33.263  27.529  25.611  0.00  0.00    +0.000 A 
ATOM     19  C   UNL     1      31.907  27.260  25.703  0.00  0.00    +0.000 A 
ATOM     20  C   UNL     1      31.484  25.986  25.371  0.00  0.00    +0.000 A 
ATOM     21  C   UNL     1      32.347  24.990  24.959  0.00  0.00    +0.000 A 
ENDBRANCH  14  21
ENDBRANCH   1  14
TORSDOF 2
ENDMDL
MODEL 8
REMARK VINA RESULT:      -6.0     33.195     35.441
REMARK  Name = 
REMARK  2 active torsions:
REMARK  status: ('A' for Active; 'I' for Inactive)
REMARK    1  A    between atoms: C_7  and  S_8
REMARK    2  A    between atoms: S_8  and  C_9
REMARK                            x       y       z     vdW  Elec       q    Type
REMARK                         _______ _______ _______ _____ _____    ______ ____
ROOT
ATOM      1  C   UNL     1      16.274  -8.398  26.337  0.00  0.00    +0.000 A 
ATOM      2  N   UNL     1      15.592  -8.042  25.261  0.00  0.00    +0.000 NA
ATOM      3  C   UNL     1      14.883  -8.865  24.509  0.00  0.00    +0.000 A 
ATOM      4  N   UNL     1      14.867 -10.163  24.885  0.00  0.00    +0.000 NA
ATOM      5  C   UNL     1      15.553 -10.582  25.988  0.00  0.00    +0.000 A 
ATOM      6  S   UNL     1      15.761 -12.094  26.748  0.00  0.00    +0.000 S 
ATOM      7  C   UNL     1      16.772 -11.619  28.036  0.00  0.00    +0.000 A 
ATOM      8  C   UNL     1      16.919 -10.269  27.829  0.00  0.00    +0.000 A 
ATOM      9  C   UNL     1      16.292  -9.734  26.774  0.00  0.00    +0.000 A 
ATOM     10  C   UNL     1      17.804  -9.617  28.884  0.00  0.00    +0.000 C 
ATOM     11  C   UNL     1      17.183 -10.019  30.213  0.00  0.00    +0.000 C 
ATOM     12  C   UNL     1      17.294 -11.498  30.467  0.00  0.00    +0.000 C 
ATOM     13  C   UNL     1      17.449 -12.297  29.206  0.00  0.00    +0.000 C 
ENDROOT
BRANCH   1  14
ATOM     14  S   UNL     1      17.167  -7.130  27.214  0.00  0.00    +0.000 S 
BRANCH  14  21
ATOM     15  N   UNL     1      18.521  -4.584  26.485  0.00  0.00    +0.000 NA
ATOM     16  C   UNL     1      19.288  -5.744  26.153  0.00  0.00    +0.000 A 
ATOM     17  C   UNL     1      20.524  -5.634  25.556  0.00  0.00    +0.000 A 
ATOM     18  C   UNL     1      21.261  -6.726  25.235  0.00  0.00    +0.000 A 
ATOM     19  C   UNL     1      20.776  -7.995  25.508  0.00  0.00    +0.000 A 
ATOM     20  C   UNL     1      19.533  -8.088  26.107  0.00  0.00    +0.000 A 
ATOM     21  C   UNL     1      18.773  -6.984  26.439  0.00  0.00    +0.000 A 
ENDBRANCH  14  21
ENDBRANCH   1  14
TORSDOF 2
ENDMDL
MODEL 9
REMARK VINA RESULT:      -6.0     32.522     35.040
REMARK  Name = 
REMARK  2 active torsions:
REMARK  status: ('A' for Active; 'I' for Inactive)
REMARK    1  A    between atoms: C_7  and  S_8
REMARK    2  A    between atoms: S_8  and  C_9
REMARK                            x       y       z     vdW  Elec       q    Type
REMARK                         _______ _______ _______ _____ _____    ______ ____
ROOT
ATOM      1  C   UNL     1      20.474  -9.956  25.880  0.00  0.00    +0.000 A 
ATOM      2  N   UNL     1      21.438 -10.832  25.651  0.00  0.00    +0.000 NA
ATOM      3  C   UNL     1      22.652 -10.526  25.226  0.00  0.00    +0.000 A 
ATOM      4  N   UNL     1      22.904  -9.215  25.017  0.00  0.00    +0.000 NA
ATOM      5  C   UNL     1      21.944  -8.271  25.239  0.00  0.00    +0.000 A 
ATOM      6  S   UNL     1      21.896  -6.573  25.091  0.00  0.00    +0.000 S 
ATOM      7  C   UNL     1      20.290  -6.297  25.589  0.00  0.00    +0.000 A 
ATOM      8  C   UNL     1      19.831  -7.563  25.860  0.00  0.00    +0.000 A 
ATOM      9  C   UNL     1      20.682  -8.580  25.680  0.00  0.00    +0.000 A 
ATOM     10  C   UNL     1      18.382  -7.562  26.333  0.00  0.00    +0.000 C 
ATOM     11  C   UNL     1      18.355  -6.584  27.497  0.00  0.00    +0.000 C 
ATOM     12  C   UNL     1      18.626  -5.170  27.058  0.00  0.00    +0.000 C 
ATOM     13  C   UNL     1      19.388  -5.096  25.768  0.00  0.00    +0.000 C 
ENDROOT
BRANCH   1  14
ATOM     14  S   UNL     1      18.905 -10.578  26.451  0.00  0.00    +0.000 S 
BRANCH  14  21
ATOM     15  N   UNL     1      16.413 -10.401  28.064  0.00  0.00    +0.000 NA
ATOM     16  C   UNL     1      17.599 -10.198  28.837  0.00  0.00    +0.000 A 
ATOM     17  C   UNL     1      17.533  -9.948  30.190  0.00  0.00    +0.000 A 
ATOM     18  C   UNL     1      18.650  -9.753  30.934  0.00  0.00    +0.000 A 
ATOM     19  C   UNL     1      19.899  -9.803  30.337  0.00  0.00    +0.000 A 
ATOM     20  C   UNL     1      19.947 -10.055  28.977  0.00  0.00    +0.000 A 
ATOM     21  C   UNL     1      18.818 -10.255  28.208  0.00  0.00    +0.000 A 
ENDBRANCH  14  21
ENDBRANCH   1  14
TORSDOF 2
ENDMDL
MODEL 10
REMARK VINA RESULT:      -6.0      3.529      5.379
REMARK  Name = 
REMARK  2 active torsions:
REMARK  status: ('A' for Active; 'I' for Inactive)
REMARK    1  A    between atoms: C_7  and  S_8
REMARK    2  A    between atoms: S_8  and  C_9
REMARK                            x       y       z     vdW  Elec       q    Type
REMARK                         _______ _______ _______ _____ _____    ______ ____
ROOT
ATOM      1  C   UNL     1      26.068  24.910  25.644  0.00  0.00    +0.000 A 
ATOM      2  N   UNL     1      26.078  25.613  24.523  0.00  0.00    +0.000 NA
ATOM      3  C   UNL     1      25.865  26.915  24.446  0.00  0.00    +0.000 A 
ATOM      4  N   UNL     1      25.622  27.556  25.610  0.00  0.00    +0.000 NA
ATOM      5  C   UNL     1      25.602  26.878  26.794  0.00  0.00    +0.000 A 
ATOM      6  S   UNL     1      25.339  27.335  28.416  0.00  0.00    +0.000 S 
ATOM      7  C   UNL     1      25.512  25.813  29.163  0.00  0.00    +0.000 A 
ATOM      8  C   UNL     1      25.775  24.979  28.104  0.00  0.00    +0.000 A 
ATOM      9  C   UNL     1      25.822  25.526  26.883  0.00  0.00    +0.000 A 
ATOM     10  C   UNL     1      25.971  23.533  28.544  0.00  0.00    +0.000 C 
ATOM     11  C   UNL     1      27.045  23.597  29.618  0.00  0.00    +0.000 C 
ATOM     12  C   UNL     1      26.573  24.321  30.850  0.00  0.00    +0.000 C 
ATOM     13  C   UNL     1      25.443  25.269  30.572  0.00  0.00    +0.000 C 
ENDROOT
BRANCH   1  14
ATOM     14  S   UNL     1      26.379  23.159  25.531  0.00  0.00    +0.000 S 
BRANCH  14  21
ATOM     15  N   UNL     1      27.994  23.164  23.034  0.00  0.00    +0.000 NA
ATOM     16  C   UNL     1      28.780  22.966  24.211  0.00  0.00    +0.000 A 
ATOM     17  C   UNL     1      30.145  22.800  24.137  0.00  0.00    +0.000 A 
ATOM     18  C   UNL     1      30.902  22.611  25.246  0.00  0.00    +0.000 A 
ATOM     19  C   UNL     1      30.305  22.582  26.496  0.00  0.00    +0.000 A 
ATOM     20  C   UNL     1      28.934  22.751  26.554  0.00  0.00    +0.000 A 
ATOM     21  C   UNL     1      28.152  22.944  25.432  0.00  0.00    +0.000 A 
ENDBRANCH  14  21
ENDBRANCH   1  14
TORSDOF 2
ENDMDL
