MODEL 1
REMARK VINA RESULT:      -6.8      0.000      0.000
REMARK  Name = 
REMARK  2 active torsions:
REMARK  status: ('A' for Active; 'I' for Inactive)
REMARK    1  A    between atoms: C_2  and  N_3
REMARK    2  A    between atoms: C_8  and  C_9
REMARK                            x       y       z     vdW  Elec       q    Type
REMARK                         _______ _______ _______ _____ _____    ______ ____
ROOT
ATOM      1  N   UNL     1      29.067  23.752  27.420  0.00  0.00    +0.000 N 
ATOM      2  C   UNL     1      28.399  23.607  28.585  0.00  0.00    +0.000 A 
ATOM      3  C   UNL     1      27.054  23.701  28.304  0.00  0.00    +0.000 A 
ATOM      4  C   UNL     1      26.953  23.905  26.940  0.00  0.00    +0.000 A 
ATOM      5  C   UNL     1      25.677  24.060  26.222  0.00  0.00    +0.000 C 
ATOM      6  C   UNL     1      28.216  23.936  26.397  0.00  0.00    +0.000 A 
ATOM      7  C   UNL     1      26.103  23.571  29.437  0.00  0.00    +0.000 C 
ATOM      8  C   UNL     1      26.588  22.481  30.310  0.00  0.00    +0.000 C 
ATOM      9  O   UNL     1      25.789  21.686  30.748  0.00  0.00    +0.000 OA
ATOM     10  C   UNL     1      28.013  22.319  30.672  0.00  0.00    +0.000 C 
ATOM     11  C   UNL     1      28.879  23.382  29.994  0.00  0.00    +0.000 C 
ENDROOT
BRANCH   6  12
ATOM     12  C   UNL     1      28.584  24.127  25.000  0.00  0.00    +0.000 A 
ATOM     13  C   UNL     1      29.033  25.321  24.499  0.00  0.00    +0.000 A 
ATOM     14  C   UNL     1      29.376  25.477  23.168  0.00  0.00    +0.000 A 
ATOM     15  C   UNL     1      29.276  24.422  22.284  0.00  0.00    +0.000 A 
ATOM     16  O   UNL     1      29.624  24.581  20.938  0.00  0.00    +0.000 OA
ATOM     17  C   UNL     1      28.825  23.217  22.780  0.00  0.00    +0.000 A 
ATOM     18  C   UNL     1      28.484  23.073  24.114  0.00  0.00    +0.000 A 
ENDBRANCH   6  12
BRANCH   1  20
ATOM     19  C   UNL     1      30.978  22.271  27.189  0.00  0.00    +0.000 C 
ATOM     20  C   UNL     1      30.530  23.706  27.354  0.00  0.00    +0.000 C 
ENDBRANCH   1  20
TORSDOF 2
ENDMDL
MODEL 2
REMARK VINA RESULT:      -6.8     21.158     23.497
REMARK  Name = 
REMARK  2 active torsions:
REMARK  status: ('A' for Active; 'I' for Inactive)
REMARK    1  A    between atoms: C_2  and  N_3
REMARK    2  A    between atoms: C_8  and  C_9
REMARK                            x       y       z     vdW  Elec       q    Type
REMARK                         _______ _______ _______ _____ _____    ______ ____
ROOT
ATOM      1  N   UNL     1      34.167   2.543  36.331  0.00  0.00    +0.000 N 
ATOM      2  C   UNL     1      33.695   1.364  35.873  0.00  0.00    +0.000 A 
ATOM      3  C   UNL     1      33.387   1.531  34.541  0.00  0.00    +0.000 A 
ATOM      4  C   UNL     1      33.693   2.844  34.231  0.00  0.00    +0.000 A 
ATOM      5  C   UNL     1      33.511   3.440  32.897  0.00  0.00    +0.000 C 
ATOM      6  C   UNL     1      34.178   3.468  35.356  0.00  0.00    +0.000 A 
ATOM      7  C   UNL     1      32.844   0.360  33.807  0.00  0.00    +0.000 C 
ATOM      8  C   UNL     1      33.610  -0.832  34.231  0.00  0.00    +0.000 C 
ATOM      9  O   UNL     1      33.960  -1.628  33.391  0.00  0.00    +0.000 OA
ATOM     10  C   UNL     1      33.968  -1.093  35.642  0.00  0.00    +0.000 C 
ATOM     11  C   UNL     1      33.484   0.037  36.553  0.00  0.00    +0.000 C 
ENDROOT
BRANCH   6  12
ATOM     12  C   UNL     1      34.623   4.850  35.491  0.00  0.00    +0.000 A 
ATOM     13  C   UNL     1      33.773   5.887  35.773  0.00  0.00    +0.000 A 
ATOM     14  C   UNL     1      34.219   7.191  35.896  0.00  0.00    +0.000 A 
ATOM     15  C   UNL     1      35.555   7.499  35.735  0.00  0.00    +0.000 A 
ATOM     16  O   UNL     1      36.006   8.817  35.859  0.00  0.00    +0.000 OA
ATOM     17  C   UNL     1      36.417   6.460  35.450  0.00  0.00    +0.000 A 
ATOM     18  C   UNL     1      35.958   5.159  35.330  0.00  0.00    +0.000 A 
ENDBRANCH   6  12
BRANCH   1  20
ATOM     19  C   UNL     1      36.051   2.345  37.851  0.00  0.00    +0.000 C 
ATOM     20  C   UNL     1      34.592   2.722  37.722  0.00  0.00    +0.000 C 
ENDBRANCH   1  20
TORSDOF 2
ENDMDL
MODEL 3
REMARK VINA RESULT:      -6.5      1.816      3.067
REMARK  Name = 
REMARK  2 active torsions:
REMARK  status: ('A' for Active; 'I' for Inactive)
REMARK    1  A    between atoms: C_2  and  N_3
REMARK    2  A    between atoms: C_8  and  C_9
REMARK                            x       y       z     vdW  Elec       q    Type
REMARK                         _______ _______ _______ _____ _____    ______ ____
ROOT
ATOM      1  N   UNL     1      26.199  25.202  26.313  0.00  0.00    +0.000 N 
ATOM      2  C   UNL     1      25.762  24.872  27.547  0.00  0.00    +0.000 A 
ATOM      3  C   UNL     1      26.412  23.716  27.921  0.00  0.00    +0.000 A 
ATOM      4  C   UNL     1      27.244  23.379  26.869  0.00  0.00    +0.000 A 
ATOM      5  C   UNL     1      28.125  22.199  26.861  0.00  0.00    +0.000 C 
ATOM      6  C   UNL     1      27.104  24.313  25.870  0.00  0.00    +0.000 A 
ATOM      7  C   UNL     1      26.095  23.148  29.256  0.00  0.00    +0.000 C 
ATOM      8  C   UNL     1      26.003  24.272  30.213  0.00  0.00    +0.000 C 
ATOM      9  O   UNL     1      26.515  24.152  31.302  0.00  0.00    +0.000 OA
ATOM     10  C   UNL     1      25.310  25.539  29.896  0.00  0.00    +0.000 C 
ATOM     11  C   UNL     1      24.765  25.528  28.466  0.00  0.00    +0.000 C 
ENDROOT
BRANCH   6  12
ATOM     12  C   UNL     1      27.786  24.353  24.582  0.00  0.00    +0.000 A 
ATOM     13  C   UNL     1      28.975  25.005  24.384  0.00  0.00    +0.000 A 
ATOM     14  C   UNL     1      29.603  25.029  23.151  0.00  0.00    +0.000 A 
ATOM     15  C   UNL     1      29.047  24.389  22.062  0.00  0.00    +0.000 A 
ATOM     16  O   UNL     1      29.683  24.413  20.816  0.00  0.00    +0.000 OA
ATOM     17  C   UNL     1      27.850  23.730  22.254  0.00  0.00    +0.000 A 
ATOM     18  C   UNL     1      27.231  23.714  23.492  0.00  0.00    +0.000 A 
ENDBRANCH   6  12
BRANCH   1  20
ATOM     19  C   UNL     1      24.381  26.070  24.957  0.00  0.00    +0.000 C 
ATOM     20  C   UNL     1      25.709  26.388  25.608  0.00  0.00    +0.000 C 
ENDBRANCH   1  20
TORSDOF 2
ENDMDL
MODEL 4
REMARK VINA RESULT:      -6.0      2.146      3.730
REMARK  Name = 
REMARK  2 active torsions:
REMARK  status: ('A' for Active; 'I' for Inactive)
REMARK    1  A    between atoms: C_2  and  N_3
REMARK    2  A    between atoms: C_8  and  C_9
REMARK                            x       y       z     vdW  Elec       q    Type
REMARK                         _______ _______ _______ _____ _____    ______ ____
ROOT
ATOM      1  N   UNL     1      28.282  23.928  25.037  0.00  0.00    +0.000 N 
ATOM      2  C   UNL     1      28.636  23.137  26.071  0.00  0.00    +0.000 A 
ATOM      3  C   UNL     1      30.005  22.984  26.025  0.00  0.00    +0.000 A 
ATOM      4  C   UNL     1      30.442  23.711  24.932  0.00  0.00    +0.000 A 
ATOM      5  C   UNL     1      31.853  23.814  24.523  0.00  0.00    +0.000 C 
ATOM      6  C   UNL     1      29.358  24.296  24.321  0.00  0.00    +0.000 A 
ATOM      7  C   UNL     1      30.641  22.145  27.073  0.00  0.00    +0.000 C 
ATOM      8  C   UNL     1      29.988  22.463  28.361  0.00  0.00    +0.000 C 
ATOM      9  O   UNL     1      30.678  22.595  29.346  0.00  0.00    +0.000 OA
ATOM     10  C   UNL     1      28.525  22.628  28.499  0.00  0.00    +0.000 C 
ATOM     11  C   UNL     1      27.822  22.471  27.149  0.00  0.00    +0.000 C 
ENDROOT
BRANCH   6  12
ATOM     12  C   UNL     1      29.351  25.147  23.138  0.00  0.00    +0.000 A 
ATOM     13  C   UNL     1      29.378  26.516  23.199  0.00  0.00    +0.000 A 
ATOM     14  C   UNL     1      29.370  27.303  22.061  0.00  0.00    +0.000 A 
ATOM     15  C   UNL     1      29.335  26.730  20.806  0.00  0.00    +0.000 A 
ATOM     16  O   UNL     1      29.329  27.525  19.655  0.00  0.00    +0.000 OA
ATOM     17  C   UNL     1      29.309  25.352  20.736  0.00  0.00    +0.000 A 
ATOM     18  C   UNL     1      29.316  24.575  21.883  0.00  0.00    +0.000 A 
ENDBRANCH   6  12
BRANCH   1  20
ATOM     19  C   UNL     1      26.267  23.294  23.838  0.00  0.00    +0.000 C 
ATOM     20  C   UNL     1      26.887  24.297  24.785  0.00  0.00    +0.000 C 
ENDBRANCH   1  20
TORSDOF 2
ENDMDL
MODEL 5
REMARK VINA RESULT:      -5.7     21.161     22.796
REMARK  Name = 
REMARK  2 active torsions:
REMARK  status: ('A' for Active; 'I' for Inactive)
REMARK    1  A    between atoms: C_2  and  N_3
REMARK    2  A    between atoms: C_8  and  C_9
REMARK                            x       y       z     vdW  Elec       q    Type
REMARK                         _______ _______ _______ _____ _____    ______ ____
ROOT
ATOM      1  N   UNL     1      23.971   3.744  15.543  0.00  0.00    +0.000 N 
ATOM      2  C   UNL     1      22.932   2.936  15.848  0.00  0.00    +0.000 A 
ATOM      3  C   UNL     1      23.002   2.662  17.196  0.00  0.00    +0.000 A 
ATOM      4  C   UNL     1      24.113   3.334  17.673  0.00  0.00    +0.000 A 
ATOM      5  C   UNL     1      24.551   3.308  19.079  0.00  0.00    +0.000 C 
ATOM      6  C   UNL     1      24.711   4.006  16.633  0.00  0.00    +0.000 A 
ATOM      7  C   UNL     1      21.956   1.783  17.776  0.00  0.00    +0.000 C 
ATOM      8  C   UNL     1      20.659   2.172  17.181  0.00  0.00    +0.000 C 
ATOM      9  O   UNL     1      19.690   2.254  17.899  0.00  0.00    +0.000 OA
ATOM     10  C   UNL     1      20.496   2.468  15.741  0.00  0.00    +0.000 C 
ATOM     11  C   UNL     1      21.830   2.358  14.999  0.00  0.00    +0.000 C 
ENDROOT
BRANCH   6  12
ATOM     12  C   UNL     1      25.905   4.841  16.678  0.00  0.00    +0.000 A 
ATOM     13  C   UNL     1      27.165   4.361  16.430  0.00  0.00    +0.000 A 
ATOM     14  C   UNL     1      28.284   5.173  16.479  0.00  0.00    +0.000 A 
ATOM     15  C   UNL     1      28.170   6.515  16.783  0.00  0.00    +0.000 A 
ATOM     16  O   UNL     1      29.301   7.336  16.831  0.00  0.00    +0.000 OA
ATOM     17  C   UNL     1      26.905   7.006  17.034  0.00  0.00    +0.000 A 
ATOM     18  C   UNL     1      25.793   6.182  16.982  0.00  0.00    +0.000 A 
ENDBRANCH   6  12
BRANCH   1  20
ATOM     19  C   UNL     1      25.092   3.258  13.444  0.00  0.00    +0.000 C 
ATOM     20  C   UNL     1      24.201   4.232  14.182  0.00  0.00    +0.000 C 
ENDBRANCH   1  20
TORSDOF 2
ENDMDL
MODEL 6
REMARK VINA RESULT:      -5.6      3.224      4.974
REMARK  Name = 
REMARK  2 active torsions:
REMARK  status: ('A' for Active; 'I' for Inactive)
REMARK    1  A    between atoms: C_2  and  N_3
REMARK    2  A    between atoms: C_8  and  C_9
REMARK                            x       y       z     vdW  Elec       q    Type
REMARK                         _______ _______ _______ _____ _____    ______ ____
ROOT
ATOM      1  N   UNL     1      29.610  24.244  23.954  0.00  0.00    +0.000 N 
ATOM      2  C   UNL     1      28.430  23.704  24.327  0.00  0.00    +0.000 A 
ATOM      3  C   UNL     1      28.560  23.287  25.633  0.00  0.00    +0.000 A 
ATOM      4  C   UNL     1      29.853  23.599  26.015  0.00  0.00    +0.000 A 
ATOM      5  C   UNL     1      30.408  23.318  27.350  0.00  0.00    +0.000 C 
ATOM      6  C   UNL     1      30.500  24.196  24.959  0.00  0.00    +0.000 A 
ATOM      7  C   UNL     1      27.381  22.653  26.275  0.00  0.00    +0.000 C 
ATOM      8  C   UNL     1      26.183  23.420  25.875  0.00  0.00    +0.000 C 
ATOM      9  O   UNL     1      25.348  23.676  26.712  0.00  0.00    +0.000 OA
ATOM     10  C   UNL     1      25.960  23.892  24.491  0.00  0.00    +0.000 C 
ATOM     11  C   UNL     1      27.134  23.518  23.583  0.00  0.00    +0.000 C 
ENDROOT
BRANCH   6  12
ATOM     12  C   UNL     1      31.872  24.686  24.914  0.00  0.00    +0.000 A 
ATOM     13  C   UNL     1      32.942  23.892  24.592  0.00  0.00    +0.000 A 
ATOM     14  C   UNL     1      34.236  24.381  24.556  0.00  0.00    +0.000 A 
ATOM     15  C   UNL     1      34.500  25.704  24.848  0.00  0.00    +0.000 A 
ATOM     16  O   UNL     1      35.808  26.198  24.810  0.00  0.00    +0.000 OA
ATOM     17  C   UNL     1      33.428  26.510  25.174  0.00  0.00    +0.000 A 
ATOM     18  C   UNL     1      32.137  26.008  25.206  0.00  0.00    +0.000 A 
ENDBRANCH   6  12
BRANCH   1  20
ATOM     19  C   UNL     1      29.443  26.256  22.603  0.00  0.00    +0.000 C 
ATOM     20  C   UNL     1      29.823  24.792  22.613  0.00  0.00    +0.000 C 
ENDBRANCH   1  20
TORSDOF 2
ENDMDL
MODEL 7
REMARK VINA RESULT:      -5.5     15.703     18.097
REMARK  Name = 
REMARK  2 active torsions:
REMARK  status: ('A' for Active; 'I' for Inactive)
REMARK    1  A    between atoms: C_2  and  N_3
REMARK    2  A    between atoms: C_8  and  C_9
REMARK                            x       y       z     vdW  Elec       q    Type
REMARK                         _______ _______ _______ _____ _____    ______ ____
ROOT
ATOM      1  N   UNL     1      22.171  10.825  37.190  0.00  0.00    +0.000 N 
ATOM      2  C   UNL     1      20.880  10.457  37.337  0.00  0.00    +0.000 A 
ATOM      3  C   UNL     1      20.393  11.094  38.457  0.00  0.00    +0.000 A 
ATOM      4  C   UNL     1      21.437  11.848  38.962  0.00  0.00    +0.000 A 
ATOM      5  C   UNL     1      21.338  12.690  40.166  0.00  0.00    +0.000 C 
ATOM      6  C   UNL     1      22.543  11.672  38.164  0.00  0.00    +0.000 A 
ATOM      7  C   UNL     1      18.977  10.846  38.831  0.00  0.00    +0.000 C 
ATOM      8  C   UNL     1      18.176  10.848  37.588  0.00  0.00    +0.000 C 
ATOM      9  O   UNL     1      17.113  11.425  37.581  0.00  0.00    +0.000 OA
ATOM     10  C   UNL     1      18.620  10.175  36.348  0.00  0.00    +0.000 C 
ATOM     11  C   UNL     1      20.000   9.541  36.527  0.00  0.00    +0.000 C 
ENDROOT
BRANCH   6  12
ATOM     12  C   UNL     1      23.862  12.272  38.321  0.00  0.00    +0.000 A 
ATOM     13  C   UNL     1      24.188  13.507  37.824  0.00  0.00    +0.000 A 
ATOM     14  C   UNL     1      25.448  14.055  37.985  0.00  0.00    +0.000 A 
ATOM     15  C   UNL     1      26.436  13.368  38.661  0.00  0.00    +0.000 A 
ATOM     16  O   UNL     1      27.710  13.923  38.825  0.00  0.00    +0.000 OA
ATOM     17  C   UNL     1      26.116  12.124  39.165  0.00  0.00    +0.000 A 
ATOM     18  C   UNL     1      24.851  11.586  38.996  0.00  0.00    +0.000 A 
ENDBRANCH   6  12
BRANCH   1  20
ATOM     19  C   UNL     1      23.659   9.031  36.508  0.00  0.00    +0.000 C 
ATOM     20  C   UNL     1      22.999  10.326  36.090  0.00  0.00    +0.000 C 
ENDBRANCH   1  20
TORSDOF 2
ENDMDL
MODEL 8
REMARK VINA RESULT:      -5.5      3.851      7.066
REMARK  Name = 
REMARK  2 active torsions:
REMARK  status: ('A' for Active; 'I' for Inactive)
REMARK    1  A    between atoms: C_2  and  N_3
REMARK    2  A    between atoms: C_8  and  C_9
REMARK                            x       y       z     vdW  Elec       q    Type
REMARK                         _______ _______ _______ _____ _____    ______ ____
ROOT
ATOM      1  N   UNL     1      26.889  26.721  24.528  0.00  0.00    +0.000 N 
ATOM      2  C   UNL     1      27.967  26.206  23.900  0.00  0.00    +0.000 A 
ATOM      3  C   UNL     1      27.763  24.849  23.775  0.00  0.00    +0.000 A 
ATOM      4  C   UNL     1      26.533  24.585  24.349  0.00  0.00    +0.000 A 
ATOM      5  C   UNL     1      25.931  23.243  24.426  0.00  0.00    +0.000 C 
ATOM      6  C   UNL     1      25.995  25.760  24.817  0.00  0.00    +0.000 A 
ATOM      7  C   UNL     1      28.823  24.051  23.107  0.00  0.00    +0.000 C 
ATOM      8  C   UNL     1      29.302  24.824  21.941  0.00  0.00    +0.000 C 
ATOM      9  O   UNL     1      29.491  24.245  20.896  0.00  0.00    +0.000 OA
ATOM     10  C   UNL     1      29.560  26.280  21.996  0.00  0.00    +0.000 C 
ATOM     11  C   UNL     1      29.225  26.848  23.376  0.00  0.00    +0.000 C 
ENDROOT
BRANCH   6  12
ATOM     12  C   UNL     1      24.718  25.953  25.491  0.00  0.00    +0.000 A 
ATOM     13  C   UNL     1      23.591  26.397  24.851  0.00  0.00    +0.000 A 
ATOM     14  C   UNL     1      22.389  26.572  25.514  0.00  0.00    +0.000 A 
ATOM     15  C   UNL     1      22.280  26.301  26.863  0.00  0.00    +0.000 A 
ATOM     16  O   UNL     1      21.065  26.477  27.533  0.00  0.00    +0.000 OA
ATOM     17  C   UNL     1      23.411  25.854  27.515  0.00  0.00    +0.000 A 
ATOM     18  C   UNL     1      24.608  25.683  26.841  0.00  0.00    +0.000 A 
ENDBRANCH   6  12
BRANCH   1  20
ATOM     19  C   UNL     1      26.140  28.858  23.650  0.00  0.00    +0.000 C 
ATOM     20  C   UNL     1      26.775  28.151  24.827  0.00  0.00    +0.000 C 
ENDBRANCH   1  20
TORSDOF 2
ENDMDL
MODEL 9
REMARK VINA RESULT:      -5.5     18.298     20.699
REMARK  Name = 
REMARK  2 active torsions:
REMARK  status: ('A' for Active; 'I' for Inactive)
REMARK    1  A    between atoms: C_2  and  N_3
REMARK    2  A    between atoms: C_8  and  C_9
REMARK                            x       y       z     vdW  Elec       q    Type
REMARK                         _______ _______ _______ _____ _____    ______ ____
ROOT
ATOM      1  N   UNL     1      20.104   9.610  38.394  0.00  0.00    +0.000 N 
ATOM      2  C   UNL     1      20.466   9.085  39.584  0.00  0.00    +0.000 A 
ATOM      3  C   UNL     1      19.327   8.964  40.348  0.00  0.00    +0.000 A 
ATOM      4  C   UNL     1      18.284   9.434  39.570  0.00  0.00    +0.000 A 
ATOM      5  C   UNL     1      16.881   9.481  40.014  0.00  0.00    +0.000 C 
ATOM      6  C   UNL     1      18.780   9.836  38.352  0.00  0.00    +0.000 A 
ATOM      7  C   UNL     1      19.469   8.403  41.715  0.00  0.00    +0.000 C 
ATOM      8  C   UNL     1      20.417   7.270  41.641  0.00  0.00    +0.000 C 
ATOM      9  O   UNL     1      20.159   6.255  42.245  0.00  0.00    +0.000 OA
ATOM     10  C   UNL     1      21.669   7.324  40.856  0.00  0.00    +0.000 C 
ATOM     11  C   UNL     1      21.806   8.661  40.125  0.00  0.00    +0.000 C 
ENDROOT
BRANCH   6  12
ATOM     12  C   UNL     1      18.041  10.395  37.227  0.00  0.00    +0.000 A 
ATOM     13  C   UNL     1      17.675  11.714  37.152  0.00  0.00    +0.000 A 
ATOM     14  C   UNL     1      16.973  12.221  36.073  0.00  0.00    +0.000 A 
ATOM     15  C   UNL     1      16.611  11.407  35.019  0.00  0.00    +0.000 A 
ATOM     16  O   UNL     1      15.902  11.921  33.927  0.00  0.00    +0.000 OA
ATOM     17  C   UNL     1      16.976  10.078  35.087  0.00  0.00    +0.000 A 
ATOM     18  C   UNL     1      17.678   9.582  36.173  0.00  0.00    +0.000 A 
ENDBRANCH   6  12
BRANCH   1  20
ATOM     19  C   UNL     1      21.774  11.189  37.609  0.00  0.00    +0.000 C 
ATOM     20  C   UNL     1      21.078   9.875  37.333  0.00  0.00    +0.000 C 
ENDBRANCH   1  20
TORSDOF 2
ENDMDL
MODEL 10
REMARK VINA RESULT:      -5.4     17.345     20.752
REMARK  Name = 
REMARK  2 active torsions:
REMARK  status: ('A' for Active; 'I' for Inactive)
REMARK    1  A    between atoms: C_2  and  N_3
REMARK    2  A    between atoms: C_8  and  C_9
REMARK                            x       y       z     vdW  Elec       q    Type
REMARK                         _______ _______ _______ _____ _____    ______ ____
ROOT
ATOM      1  N   UNL     1      18.821  10.099  38.813  0.00  0.00    +0.000 N 
ATOM      2  C   UNL     1      17.980   9.465  39.657  0.00  0.00    +0.000 A 
ATOM      3  C   UNL     1      18.716   8.525  40.345  0.00  0.00    +0.000 A 
ATOM      4  C   UNL     1      20.014   8.628  39.878  0.00  0.00    +0.000 A 
ATOM      5  C   UNL     1      21.130   7.795  40.356  0.00  0.00    +0.000 C 
ATOM      6  C   UNL     1      20.069   9.614  38.921  0.00  0.00    +0.000 A 
ATOM      7  C   UNL     1      18.005   7.689  41.345  0.00  0.00    +0.000 C 
ATOM      8  C   UNL     1      17.075   8.568  42.086  0.00  0.00    +0.000 C 
ATOM      9  O   UNL     1      16.993   8.448  43.287  0.00  0.00    +0.000 OA
ATOM     10  C   UNL     1      16.238   9.591  41.422  0.00  0.00    +0.000 C 
ATOM     11  C   UNL     1      16.506   9.631  39.916  0.00  0.00    +0.000 C 
ENDROOT
BRANCH   6  12
ATOM     12  C   UNL     1      21.232  10.060  38.164  0.00  0.00    +0.000 A 
ATOM     13  C   UNL     1      21.525   9.609  36.904  0.00  0.00    +0.000 A 
ATOM     14  C   UNL     1      22.636  10.048  36.206  0.00  0.00    +0.000 A 
ATOM     15  C   UNL     1      23.501  10.970  36.761  0.00  0.00    +0.000 A 
ATOM     16  O   UNL     1      24.623  11.414  36.054  0.00  0.00    +0.000 OA
ATOM     17  C   UNL     1      23.212  11.429  38.030  0.00  0.00    +0.000 A 
ATOM     18  C   UNL     1      22.098  10.982  38.718  0.00  0.00    +0.000 A 
ENDBRANCH   6  12
BRANCH   1  20
ATOM     19  C   UNL     1      17.887  10.565  36.619  0.00  0.00    +0.000 C 
ATOM     20  C   UNL     1      18.365  11.168  37.921  0.00  0.00    +0.000 C 
ENDBRANCH   1  20
TORSDOF 2
ENDMDL
