MODEL 1
REMARK VINA RESULT:      -7.0      0.000      0.000
REMARK  Name = 
REMARK  3 active torsions:
REMARK  status: ('A' for Active; 'I' for Inactive)
REMARK    1  A    between atoms: C_2  and  C_3
REMARK    2  A    between atoms: C_3  and  N_5
REMARK    3  A    between atoms: C_8  and  C_9
REMARK                            x       y       z     vdW  Elec       q    Type
REMARK                         _______ _______ _______ _____ _____    ______ ____
ROOT
ATOM      1  N   UNL     1      14.866  12.329  33.161  0.00  0.00    +0.000 NA
ATOM      2  C   UNL     1      15.321  12.064  34.467  0.00  0.00    +0.000 A 
ATOM      3  N   UNL     1      16.411  11.603  35.010  0.00  0.00    +0.000 NA
ATOM      4  C   UNL     1      16.488  11.485  36.318  0.00  0.00    +0.000 A 
ATOM      5  C   UNL     1      15.383  11.867  37.042  0.00  0.00    +0.000 A 
ATOM      6  S   UNL     1      14.316  12.366  35.802  0.00  0.00    +0.000 S 
ENDROOT
BRANCH   4   7
ATOM      7  C   UNL     1      17.685  10.968  37.060  0.00  0.00    +0.000 A 
ATOM      8  C   UNL     1      18.007   9.649  37.300  0.00  0.00    +0.000 A 
ATOM      9  N   UNL     1      19.176   9.612  38.007  0.00  0.00    +0.000 NA
ATOM     10  C   UNL     1      19.618  10.847  38.229  0.00  0.00    +0.000 A 
ATOM     11  C   UNL     1      20.725  11.347  38.879  0.00  0.00    +0.000 A 
ATOM     12  C   UNL     1      20.948  12.699  38.965  0.00  0.00    +0.000 A 
ATOM     13  C   UNL     1      20.037  13.554  38.384  0.00  0.00    +0.000 A 
ATOM     14  C   UNL     1      18.935  13.048  37.738  0.00  0.00    +0.000 A 
ATOM     15  C   UNL     1      18.693  11.694  37.641  0.00  0.00    +0.000 A 
ENDBRANCH   4   7
BRANCH   1  16
ATOM     16  C   UNL     1      15.894  12.005  32.001  0.00  0.00    +0.000 C 
ATOM     17  C   UNL     1      14.876  10.895  31.300  0.00  0.00    +0.000 C 
BRANCH  16  19
ATOM     18  C   UNL     1      16.553  13.630  30.222  0.00  0.00    +0.000 C 
ATOM     19  C   UNL     1      15.323  13.248  31.048  0.00  0.00    +0.000 C 
ENDBRANCH  16  19
ENDBRANCH   1  16
TORSDOF 3
ENDMDL
MODEL 2
REMARK VINA RESULT:      -6.6      1.864      2.518
REMARK  Name = 
REMARK  3 active torsions:
REMARK  status: ('A' for Active; 'I' for Inactive)
REMARK    1  A    between atoms: C_2  and  C_3
REMARK    2  A    between atoms: C_3  and  N_5
REMARK    3  A    between atoms: C_8  and  C_9
REMARK                            x       y       z     vdW  Elec       q    Type
REMARK                         _______ _______ _______ _____ _____    ______ ____
ROOT
ATOM      1  N   UNL     1      15.011  12.210  33.038  0.00  0.00    +0.000 NA
ATOM      2  C   UNL     1      15.359  11.979  34.383  0.00  0.00    +0.000 A 
ATOM      3  N   UNL     1      16.236  11.256  35.019  0.00  0.00    +0.000 NA
ATOM      4  C   UNL     1      16.277  11.289  36.334  0.00  0.00    +0.000 A 
ATOM      5  C   UNL     1      15.366  12.105  36.963  0.00  0.00    +0.000 A 
ATOM      6  S   UNL     1      14.520  12.766  35.632  0.00  0.00    +0.000 S 
ENDROOT
BRANCH   4   7
ATOM      7  C   UNL     1      17.237  10.504  37.178  0.00  0.00    +0.000 A 
ATOM      8  C   UNL     1      18.501  10.082  36.823  0.00  0.00    +0.000 A 
ATOM      9  N   UNL     1      19.040   9.400  37.878  0.00  0.00    +0.000 NA
ATOM     10  C   UNL     1      18.179   9.367  38.891  0.00  0.00    +0.000 A 
ATOM     11  C   UNL     1      18.233   8.817  40.154  0.00  0.00    +0.000 A 
ATOM     12  C   UNL     1      17.177   8.932  41.024  0.00  0.00    +0.000 A 
ATOM     13  C   UNL     1      16.053   9.612  40.609  0.00  0.00    +0.000 A 
ATOM     14  C   UNL     1      16.006  10.157  39.349  0.00  0.00    +0.000 A 
ATOM     15  C   UNL     1      17.056  10.053  38.460  0.00  0.00    +0.000 A 
ENDBRANCH   4   7
BRANCH   1  16
ATOM     16  C   UNL     1      15.866  11.417  31.967  0.00  0.00    +0.000 C 
ATOM     17  C   UNL     1      14.519  10.977  31.100  0.00  0.00    +0.000 C 
BRANCH  16  19
ATOM     18  C   UNL     1      14.710  13.078  30.502  0.00  0.00    +0.000 C 
ATOM     19  C   UNL     1      16.111  12.783  31.043  0.00  0.00    +0.000 C 
ENDBRANCH  16  19
ENDBRANCH   1  16
TORSDOF 3
ENDMDL
MODEL 3
REMARK VINA RESULT:      -6.2      3.088      7.364
REMARK  Name = 
REMARK  3 active torsions:
REMARK  status: ('A' for Active; 'I' for Inactive)
REMARK    1  A    between atoms: C_2  and  C_3
REMARK    2  A    between atoms: C_3  and  N_5
REMARK    3  A    between atoms: C_8  and  C_9
REMARK                            x       y       z     vdW  Elec       q    Type
REMARK                         _______ _______ _______ _____ _____    ______ ____
ROOT
ATOM      1  N   UNL     1      17.461   9.160  40.561  0.00  0.00    +0.000 NA
ATOM      2  C   UNL     1      17.520   9.856  39.339  0.00  0.00    +0.000 A 
ATOM      3  N   UNL     1      16.663  10.318  38.474  0.00  0.00    +0.000 NA
ATOM      4  C   UNL     1      17.093  10.944  37.400  0.00  0.00    +0.000 A 
ATOM      5  C   UNL     1      18.456  11.070  37.259  0.00  0.00    +0.000 A 
ATOM      6  S   UNL     1      19.020  10.287  38.670  0.00  0.00    +0.000 S 
ENDROOT
BRANCH   4   7
ATOM      7  C   UNL     1      16.208  11.518  36.334  0.00  0.00    +0.000 A 
ATOM      8  C   UNL     1      15.175  12.415  36.507  0.00  0.00    +0.000 A 
ATOM      9  N   UNL     1      14.625  12.683  35.285  0.00  0.00    +0.000 NA
ATOM     10  C   UNL     1      15.261  11.999  34.337  0.00  0.00    +0.000 A 
ATOM     11  C   UNL     1      15.103  11.916  32.970  0.00  0.00    +0.000 A 
ATOM     12  C   UNL     1      15.915  11.114  32.208  0.00  0.00    +0.000 A 
ATOM     13  C   UNL     1      16.900  10.386  32.840  0.00  0.00    +0.000 A 
ATOM     14  C   UNL     1      17.052  10.473  34.203  0.00  0.00    +0.000 A 
ATOM     15  C   UNL     1      16.246  11.273  34.985  0.00  0.00    +0.000 A 
ENDBRANCH   4   7
BRANCH   1  16
ATOM     16  C   UNL     1      16.005   8.815  41.079  0.00  0.00    +0.000 C 
ATOM     17  C   UNL     1      16.454   7.293  41.571  0.00  0.00    +0.000 C 
BRANCH  16  19
ATOM     18  C   UNL     1      17.707   8.955  42.903  0.00  0.00    +0.000 C 
ATOM     19  C   UNL     1      16.304   9.474  42.581  0.00  0.00    +0.000 C 
ENDBRANCH  16  19
ENDBRANCH   1  16
TORSDOF 3
ENDMDL
MODEL 4
REMARK VINA RESULT:      -5.8     21.421     23.550
REMARK  Name = 
REMARK  3 active torsions:
REMARK  status: ('A' for Active; 'I' for Inactive)
REMARK    1  A    between atoms: C_2  and  C_3
REMARK    2  A    between atoms: C_3  and  N_5
REMARK    3  A    between atoms: C_8  and  C_9
REMARK                            x       y       z     vdW  Elec       q    Type
REMARK                         _______ _______ _______ _____ _____    ______ ____
ROOT
ATOM      1  N   UNL     1      33.938  -1.524  35.018  0.00  0.00    +0.000 NA
ATOM      2  C   UNL     1      33.878  -2.877  34.633  0.00  0.00    +0.000 A 
ATOM      3  N   UNL     1      33.288  -3.564  33.697  0.00  0.00    +0.000 NA
ATOM      4  C   UNL     1      33.465  -4.867  33.636  0.00  0.00    +0.000 A 
ATOM      5  C   UNL     1      34.281  -5.428  34.591  0.00  0.00    +0.000 A 
ATOM      6  S   UNL     1      34.736  -4.055  35.503  0.00  0.00    +0.000 S 
ENDROOT
BRANCH   4   7
ATOM      7  C   UNL     1      32.843  -5.766  32.610  0.00  0.00    +0.000 A 
ATOM      8  C   UNL     1      31.824  -6.674  32.809  0.00  0.00    +0.000 A 
ATOM      9  N   UNL     1      31.553  -7.288  31.619  0.00  0.00    +0.000 NA
ATOM     10  C   UNL     1      32.351  -6.813  30.666  0.00  0.00    +0.000 A 
ATOM     11  C   UNL     1      32.480  -7.091  29.323  0.00  0.00    +0.000 A 
ATOM     12  C   UNL     1      33.408  -6.440  28.548  0.00  0.00    +0.000 A 
ATOM     13  C   UNL     1      34.215  -5.496  29.143  0.00  0.00    +0.000 A 
ATOM     14  C   UNL     1      34.081  -5.223  30.484  0.00  0.00    +0.000 A 
ATOM     15  C   UNL     1      33.155  -5.867  31.278  0.00  0.00    +0.000 A 
ENDBRANCH   4   7
BRANCH   1  16
ATOM     16  C   UNL     1      33.095  -0.522  34.128  0.00  0.00    +0.000 C 
ATOM     17  C   UNL     1      33.570   0.797  35.020  0.00  0.00    +0.000 C 
BRANCH  16  19
ATOM     18  C   UNL     1      34.038   1.039  32.421  0.00  0.00    +0.000 C 
ATOM     19  C   UNL     1      34.339  -0.330  33.035  0.00  0.00    +0.000 C 
ENDBRANCH  16  19
ENDBRANCH   1  16
TORSDOF 3
ENDMDL
MODEL 5
REMARK VINA RESULT:      -5.6     21.765     23.415
REMARK  Name = 
REMARK  3 active torsions:
REMARK  status: ('A' for Active; 'I' for Inactive)
REMARK    1  A    between atoms: C_2  and  C_3
REMARK    2  A    between atoms: C_3  and  N_5
REMARK    3  A    between atoms: C_8  and  C_9
REMARK                            x       y       z     vdW  Elec       q    Type
REMARK                         _______ _______ _______ _____ _____    ______ ____
ROOT
ATOM      1  N   UNL     1      18.395  -8.471  27.186  0.00  0.00    +0.000 NA
ATOM      2  C   UNL     1      19.669  -9.052  27.039  0.00  0.00    +0.000 A 
ATOM      3  N   UNL     1      20.647  -8.974  26.182  0.00  0.00    +0.000 NA
ATOM      4  C   UNL     1      21.735  -9.690  26.369  0.00  0.00    +0.000 A 
ATOM      5  C   UNL     1      21.766 -10.493  27.485  0.00  0.00    +0.000 A 
ATOM      6  S   UNL     1      20.240 -10.166  28.185  0.00  0.00    +0.000 S 
ENDROOT
BRANCH   4   7
ATOM      7  C   UNL     1      22.925  -9.687  25.456  0.00  0.00    +0.000 A 
ATOM      8  C   UNL     1      23.687 -10.774  25.081  0.00  0.00    +0.000 A 
ATOM      9  N   UNL     1      24.674 -10.342  24.241  0.00  0.00    +0.000 NA
ATOM     10  C   UNL     1      24.578  -9.027  24.060  0.00  0.00    +0.000 A 
ATOM     11  C   UNL     1      25.312  -8.124  23.322  0.00  0.00    +0.000 A 
ATOM     12  C   UNL     1      24.991  -6.789  23.310  0.00  0.00    +0.000 A 
ATOM     13  C   UNL     1      23.913  -6.365  24.055  0.00  0.00    +0.000 A 
ATOM     14  C   UNL     1      23.185  -7.272  24.789  0.00  0.00    +0.000 A 
ATOM     15  C   UNL     1      23.492  -8.616  24.814  0.00  0.00    +0.000 A 
ENDBRANCH   4   7
BRANCH   1  16
ATOM     16  C   UNL     1      17.976  -7.448  26.052  0.00  0.00    +0.000 C 
ATOM     17  C   UNL     1      16.356  -7.640  26.366  0.00  0.00    +0.000 C 
BRANCH  16  19
ATOM     18  C   UNL     1      19.074  -5.222  26.343  0.00  0.00    +0.000 C 
ATOM     19  C   UNL     1      18.100  -6.142  27.082  0.00  0.00    +0.000 C 
ENDBRANCH  16  19
ENDBRANCH   1  16
TORSDOF 3
ENDMDL
MODEL 6
REMARK VINA RESULT:      -5.4     16.913     19.016
REMARK  Name = 
REMARK  3 active torsions:
REMARK  status: ('A' for Active; 'I' for Inactive)
REMARK    1  A    between atoms: C_2  and  C_3
REMARK    2  A    between atoms: C_3  and  N_5
REMARK    3  A    between atoms: C_8  and  C_9
REMARK                            x       y       z     vdW  Elec       q    Type
REMARK                         _______ _______ _______ _____ _____    ______ ____
ROOT
ATOM      1  N   UNL     1      27.842  24.753  22.165  0.00  0.00    +0.000 NA
ATOM      2  C   UNL     1      27.305  24.157  23.321  0.00  0.00    +0.000 A 
ATOM      3  N   UNL     1      27.677  23.996  24.559  0.00  0.00    +0.000 NA
ATOM      4  C   UNL     1      26.887  23.363  25.399  0.00  0.00    +0.000 A 
ATOM      5  C   UNL     1      25.692  22.901  24.900  0.00  0.00    +0.000 A 
ATOM      6  S   UNL     1      25.783  23.405  23.268  0.00  0.00    +0.000 S 
ENDROOT
BRANCH   4   7
ATOM      7  C   UNL     1      27.202  23.114  26.844  0.00  0.00    +0.000 A 
ATOM      8  C   UNL     1      28.124  22.223  27.352  0.00  0.00    +0.000 A 
ATOM      9  N   UNL     1      28.101  22.307  28.716  0.00  0.00    +0.000 NA
ATOM     10  C   UNL     1      27.207  23.213  29.104  0.00  0.00    +0.000 A 
ATOM     11  C   UNL     1      26.806  23.668  30.341  0.00  0.00    +0.000 A 
ATOM     12  C   UNL     1      25.839  24.634  30.464  0.00  0.00    +0.000 A 
ATOM     13  C   UNL     1      25.272  25.146  29.318  0.00  0.00    +0.000 A 
ATOM     14  C   UNL     1      25.676  24.688  28.086  0.00  0.00    +0.000 A 
ATOM     15  C   UNL     1      26.646  23.717  27.943  0.00  0.00    +0.000 A 
ENDBRANCH   4   7
BRANCH   1  16
ATOM     16  C   UNL     1      29.268  25.421  22.341  0.00  0.00    +0.000 C 
ATOM     17  C   UNL     1      29.426  25.703  20.711  0.00  0.00    +0.000 C 
BRANCH  16  19
ATOM     18  C   UNL     1      29.397  27.420  23.833  0.00  0.00    +0.000 C 
ATOM     19  C   UNL     1      28.609  26.927  22.617  0.00  0.00    +0.000 C 
ENDBRANCH  16  19
ENDBRANCH   1  16
TORSDOF 3
ENDMDL
MODEL 7
REMARK VINA RESULT:      -5.2     16.612     19.600
REMARK  Name = 
REMARK  3 active torsions:
REMARK  status: ('A' for Active; 'I' for Inactive)
REMARK    1  A    between atoms: C_2  and  C_3
REMARK    2  A    between atoms: C_3  and  N_5
REMARK    3  A    between atoms: C_8  and  C_9
REMARK                            x       y       z     vdW  Elec       q    Type
REMARK                         _______ _______ _______ _____ _____    ______ ____
ROOT
ATOM      1  N   UNL     1      25.831  25.558  29.246  0.00  0.00    +0.000 NA
ATOM      2  C   UNL     1      25.548  25.463  27.871  0.00  0.00    +0.000 A 
ATOM      3  N   UNL     1      26.069  24.859  26.841  0.00  0.00    +0.000 NA
ATOM      4  C   UNL     1      25.517  25.000  25.655  0.00  0.00    +0.000 A 
ATOM      5  C   UNL     1      24.398  25.796  25.582  0.00  0.00    +0.000 A 
ATOM      6  S   UNL     1      24.217  26.284  27.211  0.00  0.00    +0.000 S 
ENDROOT
BRANCH   4   7
ATOM      7  C   UNL     1      26.022  24.359  24.397  0.00  0.00    +0.000 A 
ATOM      8  C   UNL     1      25.405  23.367  23.664  0.00  0.00    +0.000 A 
ATOM      9  N   UNL     1      26.196  23.066  22.591  0.00  0.00    +0.000 NA
ATOM     10  C   UNL     1      27.291  23.821  22.603  0.00  0.00    +0.000 A 
ATOM     11  C   UNL     1      28.382  23.909  21.765  0.00  0.00    +0.000 A 
ATOM     12  C   UNL     1      29.399  24.797  22.014  0.00  0.00    +0.000 A 
ATOM     13  C   UNL     1      29.309  25.605  23.126  0.00  0.00    +0.000 A 
ATOM     14  C   UNL     1      28.218  25.512  23.957  0.00  0.00    +0.000 A 
ATOM     15  C   UNL     1      27.187  24.627  23.724  0.00  0.00    +0.000 A 
ENDBRANCH   4   7
BRANCH   1  16
ATOM     16  C   UNL     1      27.099  24.748  29.740  0.00  0.00    +0.000 C 
ATOM     17  C   UNL     1      26.956  25.316  31.295  0.00  0.00    +0.000 C 
BRANCH  16  19
ATOM     18  C   UNL     1      27.106  22.253  29.604  0.00  0.00    +0.000 C 
ATOM     19  C   UNL     1      26.192  23.388  30.071  0.00  0.00    +0.000 C 
ENDBRANCH  16  19
ENDBRANCH   1  16
TORSDOF 3
ENDMDL
MODEL 8
REMARK VINA RESULT:      -5.2     18.567     21.614
REMARK  Name = 
REMARK  3 active torsions:
REMARK  status: ('A' for Active; 'I' for Inactive)
REMARK    1  A    between atoms: C_2  and  C_3
REMARK    2  A    between atoms: C_3  and  N_5
REMARK    3  A    between atoms: C_8  and  C_9
REMARK                            x       y       z     vdW  Elec       q    Type
REMARK                         _______ _______ _______ _____ _____    ______ ____
ROOT
ATOM      1  N   UNL     1      27.433  23.981  27.490  0.00  0.00    +0.000 NA
ATOM      2  C   UNL     1      27.286  24.089  26.094  0.00  0.00    +0.000 A 
ATOM      3  N   UNL     1      28.055  24.383  25.085  0.00  0.00    +0.000 NA
ATOM      4  C   UNL     1      27.559  24.386  23.866  0.00  0.00    +0.000 A 
ATOM      5  C   UNL     1      26.226  24.071  23.738  0.00  0.00    +0.000 A 
ATOM      6  S   UNL     1      25.781  23.794  25.366  0.00  0.00    +0.000 S 
ENDROOT
BRANCH   4   7
ATOM      7  C   UNL     1      28.340  24.707  22.627  0.00  0.00    +0.000 A 
ATOM      8  C   UNL     1      28.981  23.814  21.795  0.00  0.00    +0.000 A 
ATOM      9  N   UNL     1      29.573  24.515  20.782  0.00  0.00    +0.000 NA
ATOM     10  C   UNL     1      29.339  25.817  20.928  0.00  0.00    +0.000 A 
ATOM     11  C   UNL     1      29.704  26.925  20.196  0.00  0.00    +0.000 A 
ATOM     12  C   UNL     1      29.319  28.187  20.577  0.00  0.00    +0.000 A 
ATOM     13  C   UNL     1      28.556  28.326  21.715  0.00  0.00    +0.000 A 
ATOM     14  C   UNL     1      28.196  27.215  22.442  0.00  0.00    +0.000 A 
ATOM     15  C   UNL     1      28.573  25.940  22.075  0.00  0.00    +0.000 A 
ENDBRANCH   4   7
BRANCH   1  16
ATOM     16  C   UNL     1      28.884  24.282  28.049  0.00  0.00    +0.000 C 
ATOM     17  C   UNL     1      28.325  24.529  29.594  0.00  0.00    +0.000 C 
BRANCH  16  19
ATOM     18  C   UNL     1      30.331  22.364  27.362  0.00  0.00    +0.000 C 
ATOM     19  C   UNL     1      29.188  22.668  28.333  0.00  0.00    +0.000 C 
ENDBRANCH  16  19
ENDBRANCH   1  16
TORSDOF 3
ENDMDL
MODEL 9
REMARK VINA RESULT:      -5.2     20.917     22.608
REMARK  Name = 
REMARK  3 active torsions:
REMARK  status: ('A' for Active; 'I' for Inactive)
REMARK    1  A    between atoms: C_2  and  C_3
REMARK    2  A    between atoms: C_3  and  N_5
REMARK    3  A    between atoms: C_8  and  C_9
REMARK                            x       y       z     vdW  Elec       q    Type
REMARK                         _______ _______ _______ _____ _____    ______ ____
ROOT
ATOM      1  N   UNL     1      21.599  -6.592  25.099  0.00  0.00    +0.000 NA
ATOM      2  C   UNL     1      20.405  -6.838  25.802  0.00  0.00    +0.000 A 
ATOM      3  N   UNL     1      19.819  -7.874  26.331  0.00  0.00    +0.000 NA
ATOM      4  C   UNL     1      18.660  -7.728  26.937  0.00  0.00    +0.000 A 
ATOM      5  C   UNL     1      18.133  -6.458  26.970  0.00  0.00    +0.000 A 
ATOM      6  S   UNL     1      19.330  -5.567  26.136  0.00  0.00    +0.000 S 
ENDROOT
BRANCH   4   7
ATOM      7  C   UNL     1      17.888  -8.841  27.582  0.00  0.00    +0.000 A 
ATOM      8  C   UNL     1      16.815  -9.525  27.050  0.00  0.00    +0.000 A 
ATOM      9  N   UNL     1      16.404 -10.459  27.959  0.00  0.00    +0.000 NA
ATOM     10  C   UNL     1      17.166 -10.405  29.048  0.00  0.00    +0.000 A 
ATOM     11  C   UNL     1      17.171 -11.115  30.229  0.00  0.00    +0.000 A 
ATOM     12  C   UNL     1      18.090 -10.851  31.214  0.00  0.00    +0.000 A 
ATOM     13  C   UNL     1      19.016  -9.854  30.999  0.00  0.00    +0.000 A 
ATOM     14  C   UNL     1      19.006  -9.149  29.819  0.00  0.00    +0.000 A 
ATOM     15  C   UNL     1      18.090  -9.399  28.818  0.00  0.00    +0.000 A 
ENDBRANCH   4   7
BRANCH   1  16
ATOM     16  C   UNL     1      22.517  -7.858  24.849  0.00  0.00    +0.000 C 
ATOM     17  C   UNL     1      21.876  -8.125  23.340  0.00  0.00    +0.000 C 
BRANCH  16  19
ATOM     18  C   UNL     1      24.716  -7.976  23.668  0.00  0.00    +0.000 C 
ATOM     19  C   UNL     1      23.761  -6.928  24.242  0.00  0.00    +0.000 C 
ENDBRANCH  16  19
ENDBRANCH   1  16
TORSDOF 3
ENDMDL
MODEL 10
REMARK VINA RESULT:      -5.1     16.079     18.351
REMARK  Name = 
REMARK  3 active torsions:
REMARK  status: ('A' for Active; 'I' for Inactive)
REMARK    1  A    between atoms: C_2  and  C_3
REMARK    2  A    between atoms: C_3  and  N_5
REMARK    3  A    between atoms: C_8  and  C_9
REMARK                            x       y       z     vdW  Elec       q    Type
REMARK                         _______ _______ _______ _____ _____    ______ ____
ROOT
ATOM      1  N   UNL     1      25.704  24.516  30.915  0.00  0.00    +0.000 NA
ATOM      2  C   UNL     1      26.472  23.636  30.130  0.00  0.00    +0.000 A 
ATOM      3  N   UNL     1      27.332  23.747  29.158  0.00  0.00    +0.000 NA
ATOM      4  C   UNL     1      27.876  22.665  28.643  0.00  0.00    +0.000 A 
ATOM      5  C   UNL     1      27.488  21.459  29.181  0.00  0.00    +0.000 A 
ATOM      6  S   UNL     1      26.378  21.960  30.381  0.00  0.00    +0.000 S 
ENDROOT
BRANCH   4   7
ATOM      7  C   UNL     1      28.874  22.661  27.524  0.00  0.00    +0.000 A 
ATOM      8  C   UNL     1      30.236  22.466  27.627  0.00  0.00    +0.000 A 
ATOM      9  N   UNL     1      30.778  22.538  26.374  0.00  0.00    +0.000 NA
ATOM     10  C   UNL     1      29.826  22.770  25.475  0.00  0.00    +0.000 A 
ATOM     11  C   UNL     1      29.843  22.926  24.106  0.00  0.00    +0.000 A 
ATOM     12  C   UNL     1      28.687  23.162  23.403  0.00  0.00    +0.000 A 
ATOM     13  C   UNL     1      27.500  23.241  24.097  0.00  0.00    +0.000 A 
ATOM     14  C   UNL     1      27.490  23.084  25.462  0.00  0.00    +0.000 A 
ATOM     15  C   UNL     1      28.640  22.847  26.186  0.00  0.00    +0.000 A 
ENDBRANCH   4   7
BRANCH   1  16
ATOM     16  C   UNL     1      25.879  26.055  30.585  0.00  0.00    +0.000 C 
ATOM     17  C   UNL     1      24.543  26.078  29.598  0.00  0.00    +0.000 C 
BRANCH  16  19
ATOM     18  C   UNL     1      25.271  28.021  32.003  0.00  0.00    +0.000 C 
ATOM     19  C   UNL     1      24.996  26.518  31.922  0.00  0.00    +0.000 C 
ENDBRANCH  16  19
ENDBRANCH   1  16
TORSDOF 3
ENDMDL
