MODEL 1
REMARK VINA RESULT:      -7.2      0.000      0.000
REMARK  Name = 
REMARK  2 active torsions:
REMARK  status: ('A' for Active; 'I' for Inactive)
REMARK    1  A    between atoms: N_2  and  C_3
REMARK    2  A    between atoms: C_12  and  C_13
REMARK                            x       y       z     vdW  Elec       q    Type
REMARK                         _______ _______ _______ _____ _____    ______ ____
ROOT
ATOM      1  C   UNL     1      27.895  23.502  13.231  0.00  0.00    +0.000 C 
ATOM      2  C   UNL     1      26.835  23.082  12.565  0.00  0.00    +0.000 C 
ATOM      3  C   UNL     1      27.224  22.327  11.353  0.00  0.00    +0.000 C 
ATOM      4  C   UNL     1      28.699  22.342  11.366  0.00  0.00    +0.000 A 
ATOM      5  C   UNL     1      29.079  23.044  12.490  0.00  0.00    +0.000 A 
ATOM      6  N   UNL     1      30.434  23.045  12.481  0.00  0.00    +0.000 NA
ATOM      7  C   UNL     1      30.894  22.371  11.400  0.00  0.00    +0.000 A 
ATOM      8  C   UNL     1      32.152  22.073  10.916  0.00  0.00    +0.000 A 
ATOM      9  C   UNL     1      32.328  21.350   9.755  0.00  0.00    +0.000 A 
ATOM     10  C   UNL     1      31.258  20.886   9.018  0.00  0.00    +0.000 A 
ATOM     11  C   UNL     1      30.001  21.183   9.501  0.00  0.00    +0.000 A 
ATOM     12  C   UNL     1      29.815  21.913  10.673  0.00  0.00    +0.000 A 
ENDROOT
BRANCH  10  13
ATOM     13  C   UNL     1      31.459  20.104   7.765  0.00  0.00    +0.000 C 
ATOM     14  C   UNL     1      32.334  20.930   6.863  0.00  0.00    +0.000 C 
ATOM     15  C   UNL     1      31.557  21.973   6.095  0.00  0.00    +0.000 C 
ATOM     16  C   UNL     1      30.360  21.380   5.390  0.00  0.00    +0.000 C 
ATOM     17  C   UNL     1      30.226  19.899   5.665  0.00  0.00    +0.000 C 
ATOM     18  C   UNL     1      30.147  19.730   7.163  0.00  0.00    +0.000 C 
ENDBRANCH  10  13
BRANCH   1  20
ATOM     19  O   UNL     1      28.815  25.279  14.516  0.00  0.00    +0.000 OA
ATOM     20  N   UNL     1      27.933  24.261  14.445  0.00  0.00    +0.000 NA
ENDBRANCH   1  20
TORSDOF 2
ENDMDL
MODEL 2
REMARK VINA RESULT:      -6.7     34.335     35.330
REMARK  Name = 
REMARK  2 active torsions:
REMARK  status: ('A' for Active; 'I' for Inactive)
REMARK    1  A    between atoms: N_2  and  C_3
REMARK    2  A    between atoms: C_12  and  C_13
REMARK                            x       y       z     vdW  Elec       q    Type
REMARK                         _______ _______ _______ _____ _____    ______ ____
ROOT
ATOM      1  C   UNL     1      32.825  -7.390  29.121  0.00  0.00    +0.000 C 
ATOM      2  C   UNL     1      33.630  -6.598  28.436  0.00  0.00    +0.000 C 
ATOM      3  C   UNL     1      34.073  -5.444  29.251  0.00  0.00    +0.000 C 
ATOM      4  C   UNL     1      33.416  -5.641  30.556  0.00  0.00    +0.000 A 
ATOM      5  C   UNL     1      32.680  -6.802  30.460  0.00  0.00    +0.000 A 
ATOM      6  N   UNL     1      32.086  -6.961  31.667  0.00  0.00    +0.000 NA
ATOM      7  C   UNL     1      32.432  -5.946  32.495  0.00  0.00    +0.000 A 
ATOM      8  C   UNL     1      32.123  -5.622  33.800  0.00  0.00    +0.000 A 
ATOM      9  C   UNL     1      32.634  -4.493  34.406  0.00  0.00    +0.000 A 
ATOM     10  C   UNL     1      33.479  -3.630  33.739  0.00  0.00    +0.000 A 
ATOM     11  C   UNL     1      33.788  -3.953  32.435  0.00  0.00    +0.000 A 
ATOM     12  C   UNL     1      33.276  -5.092  31.817  0.00  0.00    +0.000 A 
ENDROOT
BRANCH  10  13
ATOM     13  C   UNL     1      34.026  -2.412  34.403  0.00  0.00    +0.000 C 
ATOM     14  C   UNL     1      33.204  -2.174  35.640  0.00  0.00    +0.000 C 
ATOM     15  C   UNL     1      31.914  -1.444  35.349  0.00  0.00    +0.000 C 
ATOM     16  C   UNL     1      32.144  -0.194  34.533  0.00  0.00    +0.000 C 
ATOM     17  C   UNL     1      33.606  -0.014  34.185  0.00  0.00    +0.000 C 
ATOM     18  C   UNL     1      34.045  -1.261  33.455  0.00  0.00    +0.000 C 
ENDBRANCH  10  13
BRANCH   1  20
ATOM     19  O   UNL     1      30.892  -8.769  28.999  0.00  0.00    +0.000 OA
ATOM     20  N   UNL     1      32.193  -8.599  28.685  0.00  0.00    +0.000 NA
ENDBRANCH   1  20
TORSDOF 2
ENDMDL
MODEL 3
REMARK VINA RESULT:      -6.5     31.551     32.895
REMARK  Name = 
REMARK  2 active torsions:
REMARK  status: ('A' for Active; 'I' for Inactive)
REMARK    1  A    between atoms: N_2  and  C_3
REMARK    2  A    between atoms: C_12  and  C_13
REMARK                            x       y       z     vdW  Elec       q    Type
REMARK                         _______ _______ _______ _____ _____    ______ ____
ROOT
ATOM      1  C   UNL     1      33.477  -1.641  35.518  0.00  0.00    +0.000 C 
ATOM      2  C   UNL     1      33.789  -1.505  36.794  0.00  0.00    +0.000 C 
ATOM      3  C   UNL     1      34.025  -0.085  37.142  0.00  0.00    +0.000 C 
ATOM      4  C   UNL     1      33.811   0.645  35.879  0.00  0.00    +0.000 A 
ATOM      5  C   UNL     1      33.486  -0.296  34.926  0.00  0.00    +0.000 A 
ATOM      6  N   UNL     1      33.295   0.397  33.777  0.00  0.00    +0.000 NA
ATOM      7  C   UNL     1      33.489   1.720  33.992  0.00  0.00    +0.000 A 
ATOM      8  C   UNL     1      33.426   2.844  33.193  0.00  0.00    +0.000 A 
ATOM      9  C   UNL     1      33.680   4.103  33.694  0.00  0.00    +0.000 A 
ATOM     10  C   UNL     1      34.011   4.306  35.018  0.00  0.00    +0.000 A 
ATOM     11  C   UNL     1      34.074   3.184  35.817  0.00  0.00    +0.000 A 
ATOM     12  C   UNL     1      33.819   1.908  35.318  0.00  0.00    +0.000 A 
ENDROOT
BRANCH  10  13
ATOM     13  C   UNL     1      34.284   5.672  35.550  0.00  0.00    +0.000 C 
ATOM     14  C   UNL     1      35.559   6.149  34.912  0.00  0.00    +0.000 C 
ATOM     15  C   UNL     1      36.791   5.624  35.612  0.00  0.00    +0.000 C 
ATOM     16  C   UNL     1      36.739   5.864  37.102  0.00  0.00    +0.000 C 
ATOM     17  C   UNL     1      35.449   6.537  37.516  0.00  0.00    +0.000 C 
ATOM     18  C   UNL     1      34.317   5.657  37.040  0.00  0.00    +0.000 C 
ENDBRANCH  10  13
BRANCH   1  20
ATOM     19  O   UNL     1      31.882  -3.193  34.682  0.00  0.00    +0.000 OA
ATOM     20  N   UNL     1      33.180  -2.847  34.804  0.00  0.00    +0.000 NA
ENDBRANCH   1  20
TORSDOF 2
ENDMDL
MODEL 4
REMARK VINA RESULT:      -6.5     15.317     18.270
REMARK  Name = 
REMARK  2 active torsions:
REMARK  status: ('A' for Active; 'I' for Inactive)
REMARK    1  A    between atoms: N_2  and  C_3
REMARK    2  A    between atoms: C_12  and  C_13
REMARK                            x       y       z     vdW  Elec       q    Type
REMARK                         _______ _______ _______ _____ _____    ______ ____
ROOT
ATOM      1  C   UNL     1      31.989  21.787  31.877  0.00  0.00    +0.000 C 
ATOM      2  C   UNL     1      33.150  21.405  31.377  0.00  0.00    +0.000 C 
ATOM      3  C   UNL     1      33.143  21.457  29.897  0.00  0.00    +0.000 C 
ATOM      4  C   UNL     1      31.791  21.932  29.551  0.00  0.00    +0.000 A 
ATOM      5  C   UNL     1      31.120  22.123  30.740  0.00  0.00    +0.000 A 
ATOM      6  N   UNL     1      29.883  22.557  30.398  0.00  0.00    +0.000 NA
ATOM      7  C   UNL     1      29.774  22.640  29.050  0.00  0.00    +0.000 A 
ATOM      8  C   UNL     1      28.763  23.015  28.189  0.00  0.00    +0.000 A 
ATOM      9  C   UNL     1      28.936  23.001  26.821  0.00  0.00    +0.000 A 
ATOM     10  C   UNL     1      30.126  22.612  26.243  0.00  0.00    +0.000 A 
ATOM     11  C   UNL     1      31.136  22.237  27.102  0.00  0.00    +0.000 A 
ATOM     12  C   UNL     1      30.970  22.248  28.485  0.00  0.00    +0.000 A 
ENDROOT
BRANCH  10  13
ATOM     13  C   UNL     1      30.303  22.600  24.762  0.00  0.00    +0.000 C 
ATOM     14  C   UNL     1      31.464  23.503  24.447  0.00  0.00    +0.000 C 
ATOM     15  C   UNL     1      31.069  24.961  24.395  0.00  0.00    +0.000 C 
ATOM     16  C   UNL     1      29.872  25.190  23.503  0.00  0.00    +0.000 C 
ATOM     17  C   UNL     1      29.353  23.894  22.920  0.00  0.00    +0.000 C 
ATOM     18  C   UNL     1      29.034  22.981  24.079  0.00  0.00    +0.000 C 
ENDBRANCH  10  13
BRANCH   1  20
ATOM     19  O   UNL     1      30.541  21.144  33.649  0.00  0.00    +0.000 OA
ATOM     20  N   UNL     1      31.605  21.873  33.254  0.00  0.00    +0.000 NA
ENDBRANCH   1  20
TORSDOF 2
ENDMDL
MODEL 5
REMARK VINA RESULT:      -6.5     13.860     17.479
REMARK  Name = 
REMARK  2 active torsions:
REMARK  status: ('A' for Active; 'I' for Inactive)
REMARK    1  A    between atoms: N_2  and  C_3
REMARK    2  A    between atoms: C_12  and  C_13
REMARK                            x       y       z     vdW  Elec       q    Type
REMARK                         _______ _______ _______ _____ _____    ______ ____
ROOT
ATOM      1  C   UNL     1      26.708  23.397  23.211  0.00  0.00    +0.000 C 
ATOM      2  C   UNL     1      25.673  23.323  24.028  0.00  0.00    +0.000 C 
ATOM      3  C   UNL     1      26.106  23.112  25.428  0.00  0.00    +0.000 C 
ATOM      4  C   UNL     1      27.578  23.065  25.356  0.00  0.00    +0.000 A 
ATOM      5  C   UNL     1      27.917  23.236  24.031  0.00  0.00    +0.000 A 
ATOM      6  N   UNL     1      29.270  23.188  23.990  0.00  0.00    +0.000 NA
ATOM      7  C   UNL     1      29.769  22.996  25.235  0.00  0.00    +0.000 A 
ATOM      8  C   UNL     1      31.042  22.875  25.752  0.00  0.00    +0.000 A 
ATOM      9  C   UNL     1      31.260  22.679  27.100  0.00  0.00    +0.000 A 
ATOM     10  C   UNL     1      30.218  22.595  28.000  0.00  0.00    +0.000 A 
ATOM     11  C   UNL     1      28.945  22.716  27.484  0.00  0.00    +0.000 A 
ATOM     12  C   UNL     1      28.717  22.914  26.124  0.00  0.00    +0.000 A 
ENDROOT
BRANCH  10  13
ATOM     13  C   UNL     1      30.464  22.384  29.456  0.00  0.00    +0.000 C 
ATOM     14  C   UNL     1      29.867  23.558  30.181  0.00  0.00    +0.000 C 
ATOM     15  C   UNL     1      30.783  24.760  30.194  0.00  0.00    +0.000 C 
ATOM     16  C   UNL     1      32.172  24.405  30.668  0.00  0.00    +0.000 C 
ATOM     17  C   UNL     1      32.300  22.929  30.973  0.00  0.00    +0.000 C 
ATOM     18  C   UNL     1      31.917  22.181  29.718  0.00  0.00    +0.000 C 
ENDBRANCH  10  13
BRANCH   1  20
ATOM     19  O   UNL     1      25.608  23.193  21.113  0.00  0.00    +0.000 OA
ATOM     20  N   UNL     1      26.703  23.593  21.792  0.00  0.00    +0.000 NA
ENDBRANCH   1  20
TORSDOF 2
ENDMDL
MODEL 6
REMARK VINA RESULT:      -6.4     12.595     16.774
REMARK  Name = 
REMARK  2 active torsions:
REMARK  status: ('A' for Active; 'I' for Inactive)
REMARK    1  A    between atoms: N_2  and  C_3
REMARK    2  A    between atoms: C_12  and  C_13
REMARK                            x       y       z     vdW  Elec       q    Type
REMARK                         _______ _______ _______ _____ _____    ______ ____
ROOT
ATOM      1  C   UNL     1      28.866  25.066  21.456  0.00  0.00    +0.000 C 
ATOM      2  C   UNL     1      27.781  25.812  21.559  0.00  0.00    +0.000 C 
ATOM      3  C   UNL     1      27.134  25.643  22.880  0.00  0.00    +0.000 C 
ATOM      4  C   UNL     1      27.988  24.670  23.587  0.00  0.00    +0.000 A 
ATOM      5  C   UNL     1      29.012  24.339  22.725  0.00  0.00    +0.000 A 
ATOM      6  N   UNL     1      29.780  23.447  23.394  0.00  0.00    +0.000 NA
ATOM      7  C   UNL     1      29.268  23.222  24.628  0.00  0.00    +0.000 A 
ATOM      8  C   UNL     1      29.641  22.428  25.693  0.00  0.00    +0.000 A 
ATOM      9  C   UNL     1      28.909  22.395  26.862  0.00  0.00    +0.000 A 
ATOM     10  C   UNL     1      27.768  23.153  27.026  0.00  0.00    +0.000 A 
ATOM     11  C   UNL     1      27.395  23.946  25.962  0.00  0.00    +0.000 A 
ATOM     12  C   UNL     1      28.129  23.985  24.779  0.00  0.00    +0.000 A 
ENDROOT
BRANCH  10  13
ATOM     13  C   UNL     1      26.984  23.111  28.294  0.00  0.00    +0.000 C 
ATOM     14  C   UNL     1      27.005  24.498  28.875  0.00  0.00    +0.000 C 
ATOM     15  C   UNL     1      28.266  24.781  29.657  0.00  0.00    +0.000 C 
ATOM     16  C   UNL     1      28.555  23.701  30.673  0.00  0.00    +0.000 C 
ATOM     17  C   UNL     1      27.526  22.593  30.620  0.00  0.00    +0.000 C 
ATOM     18  C   UNL     1      27.519  22.061  29.207  0.00  0.00    +0.000 C 
ENDBRANCH  10  13
BRANCH   1  20
ATOM     19  O   UNL     1      29.971  26.059  19.600  0.00  0.00    +0.000 OA
ATOM     20  N   UNL     1      29.758  24.953  20.341  0.00  0.00    +0.000 NA
ENDBRANCH   1  20
TORSDOF 2
ENDMDL
MODEL 7
REMARK VINA RESULT:      -6.4     12.772     15.619
REMARK  Name = 
REMARK  2 active torsions:
REMARK  status: ('A' for Active; 'I' for Inactive)
REMARK    1  A    between atoms: N_2  and  C_3
REMARK    2  A    between atoms: C_12  and  C_13
REMARK                            x       y       z     vdW  Elec       q    Type
REMARK                         _______ _______ _______ _____ _____    ______ ____
ROOT
ATOM      1  C   UNL     1      27.427  23.525  22.942  0.00  0.00    +0.000 C 
ATOM      2  C   UNL     1      27.997  24.135  21.918  0.00  0.00    +0.000 C 
ATOM      3  C   UNL     1      29.400  24.498  22.219  0.00  0.00    +0.000 C 
ATOM      4  C   UNL     1      29.618  24.018  23.596  0.00  0.00    +0.000 A 
ATOM      5  C   UNL     1      28.435  23.443  24.009  0.00  0.00    +0.000 A 
ATOM      6  N   UNL     1      28.659  23.011  25.273  0.00  0.00    +0.000 NA
ATOM      7  C   UNL     1      29.929  23.298  25.647  0.00  0.00    +0.000 A 
ATOM      8  C   UNL     1      30.664  23.088  26.796  0.00  0.00    +0.000 A 
ATOM      9  C   UNL     1      31.976  23.499  26.901  0.00  0.00    +0.000 A 
ATOM     10  C   UNL     1      32.622  24.140  25.864  0.00  0.00    +0.000 A 
ATOM     11  C   UNL     1      31.889  24.350  24.715  0.00  0.00    +0.000 A 
ATOM     12  C   UNL     1      30.562  23.938  24.602  0.00  0.00    +0.000 A 
ENDROOT
BRANCH  10  13
ATOM     13  C   UNL     1      34.042  24.580  25.987  0.00  0.00    +0.000 C 
ATOM     14  C   UNL     1      34.076  25.685  27.006  0.00  0.00    +0.000 C 
ATOM     15  C   UNL     1      33.705  27.027  26.422  0.00  0.00    +0.000 C 
ATOM     16  C   UNL     1      34.496  27.338  25.173  0.00  0.00    +0.000 C 
ATOM     17  C   UNL     1      35.432  26.207  24.808  0.00  0.00    +0.000 C 
ATOM     18  C   UNL     1      34.589  24.964  24.654  0.00  0.00    +0.000 C 
ENDBRANCH  10  13
BRANCH   1  20
ATOM     19  O   UNL     1      25.401  22.860  21.893  0.00  0.00    +0.000 OA
ATOM     20  N   UNL     1      26.089  23.025  23.041  0.00  0.00    +0.000 NA
ENDBRANCH   1  20
TORSDOF 2
ENDMDL
MODEL 8
REMARK VINA RESULT:      -6.4     11.328     15.066
REMARK  Name = 
REMARK  2 active torsions:
REMARK  status: ('A' for Active; 'I' for Inactive)
REMARK    1  A    between atoms: N_2  and  C_3
REMARK    2  A    between atoms: C_12  and  C_13
REMARK                            x       y       z     vdW  Elec       q    Type
REMARK                         _______ _______ _______ _____ _____    ______ ____
ROOT
ATOM      1  C   UNL     1      29.798  26.977  19.797  0.00  0.00    +0.000 C 
ATOM      2  C   UNL     1      29.514  28.130  20.376  0.00  0.00    +0.000 C 
ATOM      3  C   UNL     1      29.028  27.932  21.760  0.00  0.00    +0.000 C 
ATOM      4  C   UNL     1      29.054  26.471  21.956  0.00  0.00    +0.000 A 
ATOM      5  C   UNL     1      29.514  25.920  20.779  0.00  0.00    +0.000 A 
ATOM      6  N   UNL     1      29.529  24.581  20.981  0.00  0.00    +0.000 NA
ATOM      7  C   UNL     1      29.097  24.294  22.233  0.00  0.00    +0.000 A 
ATOM      8  C   UNL     1      28.918  23.124  22.943  0.00  0.00    +0.000 A 
ATOM      9  C   UNL     1      28.450  23.130  24.241  0.00  0.00    +0.000 A 
ATOM     10  C   UNL     1      28.137  24.303  24.895  0.00  0.00    +0.000 A 
ATOM     11  C   UNL     1      28.316  25.472  24.186  0.00  0.00    +0.000 A 
ATOM     12  C   UNL     1      28.788  25.474  22.876  0.00  0.00    +0.000 A 
ENDROOT
BRANCH  10  13
ATOM     13  C   UNL     1      27.632  24.299  26.298  0.00  0.00    +0.000 C 
ATOM     14  C   UNL     1      28.653  25.015  27.139  0.00  0.00    +0.000 C 
ATOM     15  C   UNL     1      29.803  24.122  27.543  0.00  0.00    +0.000 C 
ATOM     16  C   UNL     1      29.324  22.827  28.155  0.00  0.00    +0.000 C 
ATOM     17  C   UNL     1      27.814  22.741  28.173  0.00  0.00    +0.000 C 
ATOM     18  C   UNL     1      27.343  22.907  26.748  0.00  0.00    +0.000 C 
ENDBRANCH  10  13
BRANCH   1  20
ATOM     19  O   UNL     1      31.534  27.186  18.187  0.00  0.00    +0.000 OA
ATOM     20  N   UNL     1      30.290  26.751  18.471  0.00  0.00    +0.000 NA
ENDBRANCH   1  20
TORSDOF 2
ENDMDL
MODEL 9
REMARK VINA RESULT:      -6.3     14.136     17.799
REMARK  Name = 
REMARK  2 active torsions:
REMARK  status: ('A' for Active; 'I' for Inactive)
REMARK    1  A    between atoms: N_2  and  C_3
REMARK    2  A    between atoms: C_12  and  C_13
REMARK                            x       y       z     vdW  Elec       q    Type
REMARK                         _______ _______ _______ _____ _____    ______ ____
ROOT
ATOM      1  C   UNL     1      27.135  23.168  23.784  0.00  0.00    +0.000 C 
ATOM      2  C   UNL     1      28.308  23.080  23.184  0.00  0.00    +0.000 C 
ATOM      3  C   UNL     1      29.405  22.923  24.166  0.00  0.00    +0.000 C 
ATOM      4  C   UNL     1      28.731  22.928  25.477  0.00  0.00    +0.000 A 
ATOM      5  C   UNL     1      27.382  23.074  25.230  0.00  0.00    +0.000 A 
ATOM      6  N   UNL     1      26.785  23.076  26.445  0.00  0.00    +0.000 NA
ATOM      7  C   UNL     1      27.713  22.937  27.422  0.00  0.00    +0.000 A 
ATOM      8  C   UNL     1      27.658  22.876  28.800  0.00  0.00    +0.000 A 
ATOM      9  C   UNL     1      28.796  22.726  29.564  0.00  0.00    +0.000 A 
ATOM     10  C   UNL     1      30.048  22.628  28.992  0.00  0.00    +0.000 A 
ATOM     11  C   UNL     1      30.104  22.688  27.616  0.00  0.00    +0.000 A 
ATOM     12  C   UNL     1      28.958  22.840  26.837  0.00  0.00    +0.000 A 
ENDROOT
BRANCH  10  13
ATOM     13  C   UNL     1      31.272  22.466  29.827  0.00  0.00    +0.000 C 
ATOM     14  C   UNL     1      31.746  23.845  30.193  0.00  0.00    +0.000 C 
ATOM     15  C   UNL     1      32.569  24.487  29.100  0.00  0.00    +0.000 C 
ATOM     16  C   UNL     1      33.678  23.579  28.622  0.00  0.00    +0.000 C 
ATOM     17  C   UNL     1      33.656  22.245  29.336  0.00  0.00    +0.000 C 
ATOM     18  C   UNL     1      32.290  21.643  29.112  0.00  0.00    +0.000 C 
ENDBRANCH  10  13
BRANCH   1  20
ATOM     19  O   UNL     1      25.726  23.022  21.875  0.00  0.00    +0.000 OA
ATOM     20  N   UNL     1      25.844  23.326  23.184  0.00  0.00    +0.000 NA
ENDBRANCH   1  20
TORSDOF 2
ENDMDL
MODEL 10
REMARK VINA RESULT:      -6.3     14.015     16.779
REMARK  Name = 
REMARK  2 active torsions:
REMARK  status: ('A' for Active; 'I' for Inactive)
REMARK    1  A    between atoms: N_2  and  C_3
REMARK    2  A    between atoms: C_12  and  C_13
REMARK                            x       y       z     vdW  Elec       q    Type
REMARK                         _______ _______ _______ _____ _____    ______ ____
ROOT
ATOM      1  C   UNL     1      29.234  22.534  30.568  0.00  0.00    +0.000 C 
ATOM      2  C   UNL     1      27.919  22.471  30.469  0.00  0.00    +0.000 C 
ATOM      3  C   UNL     1      27.479  22.565  29.059  0.00  0.00    +0.000 C 
ATOM      4  C   UNL     1      28.730  22.698  28.290  0.00  0.00    +0.000 A 
ATOM      5  C   UNL     1      29.762  22.677  29.204  0.00  0.00    +0.000 A 
ATOM      6  N   UNL     1      30.898  22.800  28.476  0.00  0.00    +0.000 NA
ATOM      7  C   UNL     1      30.601  22.894  27.158  0.00  0.00    +0.000 A 
ATOM      8  C   UNL     1      31.355  23.031  26.010  0.00  0.00    +0.000 A 
ATOM      9  C   UNL     1      30.768  23.104  24.764  0.00  0.00    +0.000 A 
ATOM     10  C   UNL     1      29.399  23.044  24.600  0.00  0.00    +0.000 A 
ATOM     11  C   UNL     1      28.646  22.907  25.747  0.00  0.00    +0.000 A 
ATOM     12  C   UNL     1      29.231  22.832  27.009  0.00  0.00    +0.000 A 
ENDROOT
BRANCH  10  13
ATOM     13  C   UNL     1      28.775  23.123  23.249  0.00  0.00    +0.000 C 
ATOM     14  C   UNL     1      29.529  24.166  22.472  0.00  0.00    +0.000 C 
ATOM     15  C   UNL     1      29.061  25.570  22.777  0.00  0.00    +0.000 C 
ATOM     16  C   UNL     1      27.561  25.703  22.659  0.00  0.00    +0.000 C 
ATOM     17  C   UNL     1      26.909  24.385  22.302  0.00  0.00    +0.000 C 
ATOM     18  C   UNL     1      27.312  23.388  23.361  0.00  0.00    +0.000 C 
ENDBRANCH  10  13
BRANCH   1  20
ATOM     19  O   UNL     1      30.292  21.262  32.275  0.00  0.00    +0.000 OA
ATOM     20  N   UNL     1      30.036  22.479  31.753  0.00  0.00    +0.000 NA
ENDBRANCH   1  20
TORSDOF 2
ENDMDL
