MODEL 1
REMARK VINA RESULT:      -7.0      0.000      0.000
REMARK  Name = 
REMARK  7 active torsions:
REMARK  status: ('A' for Active; 'I' for Inactive)
REMARK    1  A    between atoms: C_2  and  O_3
REMARK    2  A    between atoms: O_3  and  C_4
REMARK    3  A    between atoms: C_9  and  N_10
REMARK    4  A    between atoms: C_11  and  C_13
REMARK    5  A    between atoms: C_14  and  N_15
REMARK    6  A    between atoms: N_15  and  C_16
REMARK    7  A    between atoms: C_16  and  C_17
REMARK                            x       y       z     vdW  Elec       q    Type
REMARK                         _______ _______ _______ _____ _____    ______ ____
ROOT
ATOM      1  C   UNL     1      37.272   0.655  14.076  0.00  0.00    +0.000 A 
ATOM      2  C   UNL     1      37.637   0.562  12.760  0.00  0.00    +0.000 A 
ATOM      3  S   UNL     1      37.338   2.148  12.156  0.00  0.00    +0.000 S 
ATOM      4  C   UNL     1      36.764   2.864  13.588  0.00  0.00    +0.000 A 
ATOM      5  C   UNL     1      36.821   1.848  14.499  0.00  0.00    +0.000 A 
ATOM      6  C   UNL     1      36.385   2.081  15.937  0.00  0.00    +0.000 C 
ATOM      7  C   UNL     1      34.885   2.214  15.914  0.00  0.00    +0.000 C 
ATOM      8  C   UNL     1      34.429   3.297  14.959  0.00  0.00    +0.000 C 
ATOM      9  C   UNL     1      35.423   4.450  14.914  0.00  0.00    +0.000 C 
ATOM     10  C   UNL     1      36.330   4.284  13.693  0.00  0.00    +0.000 C 
ENDROOT
BRANCH   1  12
ATOM     11  N   UNL     1      38.464  -0.701  15.852  0.00  0.00    +0.000 NA
ATOM     12  C   UNL     1      37.383  -0.523  14.955  0.00  0.00    +0.000 C 
ATOM     13  O   UNL     1      36.512  -1.425  14.939  0.00  0.00    +0.000 OA
BRANCH  11  19
ATOM     14  C   UNL     1      38.035  -1.785  17.958  0.00  0.00    +0.000 A 
ATOM     15  C   UNL     1      38.052  -2.902  18.793  0.00  0.00    +0.000 A 
ATOM     16  C   UNL     1      38.534  -4.113  18.352  0.00  0.00    +0.000 A 
ATOM     17  C   UNL     1      39.002  -4.205  17.064  0.00  0.00    +0.000 A 
ATOM     18  C   UNL     1      38.976  -3.090  16.257  0.00  0.00    +0.000 A 
ATOM     19  C   UNL     1      38.501  -1.861  16.664  0.00  0.00    +0.000 A 
BRANCH  14  20
ATOM     20  O   UNL     1      37.549  -0.561  18.399  0.00  0.00    +0.000 OA
BRANCH  20  22
ATOM     21  C   UNL     1      35.161  -0.804  18.075  0.00  0.00    +0.000 C 
ATOM     22  C   UNL     1      36.292  -0.490  19.024  0.00  0.00    +0.000 C 
ENDBRANCH  20  22
ENDBRANCH  14  20
ENDBRANCH  11  19
ENDBRANCH   1  12
BRANCH   2  23
ATOM     23  N   UNL     1      38.150  -0.571  12.044  0.00  0.00    +0.000 NA
BRANCH  23  24
ATOM     24  C   UNL     1      39.472  -0.616  11.492  0.00  0.00    +0.000 C 
BRANCH  24  25
ATOM     25  C   UNL     1      40.403  -1.114  12.530  0.00  0.00    +0.000 A 
ATOM     26  C   UNL     1      41.092  -0.236  13.315  0.00  0.00    +0.000 A 
ATOM     27  C   UNL     1      41.974  -0.695  14.297  0.00  0.00    +0.000 A 
ATOM     28  C   UNL     1      42.092  -2.058  14.409  0.00  0.00    +0.000 A 
ATOM     29  N   UNL     1      41.405  -2.896  13.626  0.00  0.00    +0.000 NA
ATOM     30  C   UNL     1      40.546  -2.473  12.669  0.00  0.00    +0.000 A 
ENDBRANCH  24  25
ENDBRANCH  23  24
ENDBRANCH   2  23
TORSDOF 7
ENDMDL
MODEL 2
REMARK VINA RESULT:      -6.9      2.246      5.940
REMARK  Name = 
REMARK  7 active torsions:
REMARK  status: ('A' for Active; 'I' for Inactive)
REMARK    1  A    between atoms: C_2  and  O_3
REMARK    2  A    between atoms: O_3  and  C_4
REMARK    3  A    between atoms: C_9  and  N_10
REMARK    4  A    between atoms: C_11  and  C_13
REMARK    5  A    between atoms: C_14  and  N_15
REMARK    6  A    between atoms: N_15  and  C_16
REMARK    7  A    between atoms: C_16  and  C_17
REMARK                            x       y       z     vdW  Elec       q    Type
REMARK                         _______ _______ _______ _____ _____    ______ ____
ROOT
ATOM      1  C   UNL     1      39.417  -1.126  14.384  0.00  0.00    +0.000 A 
ATOM      2  C   UNL     1      39.773  -2.063  15.316  0.00  0.00    +0.000 A 
ATOM      3  S   UNL     1      41.256  -2.687  14.698  0.00  0.00    +0.000 S 
ATOM      4  C   UNL     1      41.366  -1.741  13.289  0.00  0.00    +0.000 A 
ATOM      5  C   UNL     1      40.243  -0.964  13.337  0.00  0.00    +0.000 A 
ATOM      6  C   UNL     1      39.960   0.044  12.235  0.00  0.00    +0.000 C 
ATOM      7  C   UNL     1      39.572  -0.751  11.015  0.00  0.00    +0.000 C 
ATOM      8  C   UNL     1      40.628  -1.771  10.648  0.00  0.00    +0.000 C 
ATOM      9  C   UNL     1      42.027  -1.259  10.965  0.00  0.00    +0.000 C 
ATOM     10  C   UNL     1      42.481  -1.835  12.308  0.00  0.00    +0.000 C 
ENDROOT
BRANCH   1  12
ATOM     11  N   UNL     1      38.145   0.899  15.218  0.00  0.00    +0.000 NA
ATOM     12  C   UNL     1      38.173  -0.353  14.556  0.00  0.00    +0.000 C 
ATOM     13  O   UNL     1      37.080  -0.783  14.120  0.00  0.00    +0.000 OA
BRANCH  11  19
ATOM     14  C   UNL     1      36.175   1.420  16.499  0.00  0.00    +0.000 A 
ATOM     15  C   UNL     1      34.953   2.073  16.668  0.00  0.00    +0.000 A 
ATOM     16  C   UNL     1      34.447   2.898  15.691  0.00  0.00    +0.000 A 
ATOM     17  C   UNL     1      35.168   3.070  14.535  0.00  0.00    +0.000 A 
ATOM     18  C   UNL     1      36.371   2.416  14.389  0.00  0.00    +0.000 A 
ATOM     19  C   UNL     1      36.911   1.582  15.345  0.00  0.00    +0.000 A 
BRANCH  14  20
ATOM     20  O   UNL     1      36.690   0.586  17.482  0.00  0.00    +0.000 OA
BRANCH  20  22
ATOM     21  C   UNL     1      36.461  -0.866  19.408  0.00  0.00    +0.000 C 
ATOM     22  C   UNL     1      35.944   0.331  18.646  0.00  0.00    +0.000 C 
ENDBRANCH  20  22
ENDBRANCH  14  20
ENDBRANCH  11  19
ENDBRANCH   1  12
BRANCH   2  23
ATOM     23  N   UNL     1      39.092  -2.440  16.521  0.00  0.00    +0.000 NA
BRANCH  23  24
ATOM     24  C   UNL     1      38.469  -3.718  16.702  0.00  0.00    +0.000 C 
BRANCH  24  25
ATOM     25  C   UNL     1      37.087  -3.651  16.172  0.00  0.00    +0.000 A 
ATOM     26  C   UNL     1      36.138  -2.914  16.817  0.00  0.00    +0.000 A 
ATOM     27  C   UNL     1      34.831  -2.845  16.326  0.00  0.00    +0.000 A 
ATOM     28  C   UNL     1      34.583  -3.554  15.177  0.00  0.00    +0.000 A 
ATOM     29  N   UNL     1      35.533  -4.268  14.565  0.00  0.00    +0.000 NA
ATOM     30  C   UNL     1      36.804  -4.349  15.023  0.00  0.00    +0.000 A 
ENDBRANCH  24  25
ENDBRANCH  23  24
ENDBRANCH   2  23
TORSDOF 7
ENDMDL
MODEL 3
REMARK VINA RESULT:      -6.9      1.936      4.848
REMARK  Name = 
REMARK  7 active torsions:
REMARK  status: ('A' for Active; 'I' for Inactive)
REMARK    1  A    between atoms: C_2  and  O_3
REMARK    2  A    between atoms: O_3  and  C_4
REMARK    3  A    between atoms: C_9  and  N_10
REMARK    4  A    between atoms: C_11  and  C_13
REMARK    5  A    between atoms: C_14  and  N_15
REMARK    6  A    between atoms: N_15  and  C_16
REMARK    7  A    between atoms: C_16  and  C_17
REMARK                            x       y       z     vdW  Elec       q    Type
REMARK                         _______ _______ _______ _____ _____    ______ ____
ROOT
ATOM      1  C   UNL     1      36.322   1.506  14.980  0.00  0.00    +0.000 A 
ATOM      2  C   UNL     1      35.386   1.334  15.964  0.00  0.00    +0.000 A 
ATOM      3  S   UNL     1      34.499   2.812  15.924  0.00  0.00    +0.000 S 
ATOM      4  C   UNL     1      35.345   3.586  14.669  0.00  0.00    +0.000 A 
ATOM      5  C   UNL     1      36.297   2.672  14.314  0.00  0.00    +0.000 A 
ATOM      6  C   UNL     1      37.283   2.986  13.200  0.00  0.00    +0.000 C 
ATOM      7  C   UNL     1      38.229   4.024  13.743  0.00  0.00    +0.000 C 
ATOM      8  C   UNL     1      37.493   5.241  14.261  0.00  0.00    +0.000 C 
ATOM      9  C   UNL     1      36.242   5.523  13.440  0.00  0.00    +0.000 C 
ATOM     10  C   UNL     1      35.024   4.949  14.166  0.00  0.00    +0.000 C 
ENDROOT
BRANCH   1  12
ATOM     11  N   UNL     1      38.617   0.461  15.207  0.00  0.00    +0.000 NA
ATOM     12  C   UNL     1      37.296   0.436  14.697  0.00  0.00    +0.000 C 
ATOM     13  O   UNL     1      36.987  -0.547  13.984  0.00  0.00    +0.000 OA
BRANCH  11  19
ATOM     14  C   UNL     1      40.360  -0.462  13.826  0.00  0.00    +0.000 A 
ATOM     15  C   UNL     1      41.244  -1.484  13.478  0.00  0.00    +0.000 A 
ATOM     16  C   UNL     1      41.280  -2.664  14.185  0.00  0.00    +0.000 A 
ATOM     17  C   UNL     1      40.426  -2.821  15.249  0.00  0.00    +0.000 A 
ATOM     18  C   UNL     1      39.562  -1.799  15.574  0.00  0.00    +0.000 A 
ATOM     19  C   UNL     1      39.496  -0.604  14.890  0.00  0.00    +0.000 A 
BRANCH  14  20
ATOM     20  O   UNL     1      40.320   0.730  13.116  0.00  0.00    +0.000 OA
BRANCH  20  22
ATOM     21  C   UNL     1      38.918   0.268  11.195  0.00  0.00    +0.000 C 
ATOM     22  C   UNL     1      40.267   0.708  11.711  0.00  0.00    +0.000 C 
ENDBRANCH  20  22
ENDBRANCH  14  20
ENDBRANCH  11  19
ENDBRANCH   1  12
BRANCH   2  23
ATOM     23  N   UNL     1      35.177   0.204  16.823  0.00  0.00    +0.000 NA
BRANCH  23  24
ATOM     24  C   UNL     1      35.799   0.068  18.106  0.00  0.00    +0.000 C 
BRANCH  24  25
ATOM     25  C   UNL     1      36.562  -1.201  18.132  0.00  0.00    +0.000 A 
ATOM     26  C   UNL     1      37.605  -1.360  18.997  0.00  0.00    +0.000 A 
ATOM     27  C   UNL     1      38.331  -2.553  19.029  0.00  0.00    +0.000 A 
ATOM     28  C   UNL     1      37.927  -3.527  18.149  0.00  0.00    +0.000 A 
ATOM     29  N   UNL     1      36.901  -3.344  17.312  0.00  0.00    +0.000 NA
ATOM     30  C   UNL     1      36.185  -2.197  17.264  0.00  0.00    +0.000 A 
ENDBRANCH  24  25
ENDBRANCH  23  24
ENDBRANCH   2  23
TORSDOF 7
ENDMDL
MODEL 4
REMARK VINA RESULT:      -6.9      2.191      6.793
REMARK  Name = 
REMARK  7 active torsions:
REMARK  status: ('A' for Active; 'I' for Inactive)
REMARK    1  A    between atoms: C_2  and  O_3
REMARK    2  A    between atoms: O_3  and  C_4
REMARK    3  A    between atoms: C_9  and  N_10
REMARK    4  A    between atoms: C_11  and  C_13
REMARK    5  A    between atoms: C_14  and  N_15
REMARK    6  A    between atoms: N_15  and  C_16
REMARK    7  A    between atoms: C_16  and  C_17
REMARK                            x       y       z     vdW  Elec       q    Type
REMARK                         _______ _______ _______ _____ _____    ______ ____
ROOT
ATOM      1  C   UNL     1      37.214  -0.755  16.325  0.00  0.00    +0.000 A 
ATOM      2  C   UNL     1      36.004  -0.313  16.788  0.00  0.00    +0.000 A 
ATOM      3  S   UNL     1      35.852  -1.110  18.309  0.00  0.00    +0.000 S 
ATOM      4  C   UNL     1      37.319  -1.969  18.297  0.00  0.00    +0.000 A 
ATOM      5  C   UNL     1      37.889  -1.612  17.108  0.00  0.00    +0.000 A 
ATOM      6  C   UNL     1      39.243  -2.176  16.707  0.00  0.00    +0.000 C 
ATOM      7  C   UNL     1      39.020  -3.626  16.366  0.00  0.00    +0.000 C 
ATOM      8  C   UNL     1      38.364  -4.378  17.505  0.00  0.00    +0.000 C 
ATOM      9  C   UNL     1      38.818  -3.843  18.857  0.00  0.00    +0.000 C 
ATOM     10  C   UNL     1      37.764  -2.872  19.393  0.00  0.00    +0.000 C 
ENDROOT
BRANCH   1  12
ATOM     11  N   UNL     1      37.363  -0.923  13.802  0.00  0.00    +0.000 NA
ATOM     12  C   UNL     1      37.715  -0.289  15.019  0.00  0.00    +0.000 C 
ATOM     13  O   UNL     1      38.483   0.698  14.936  0.00  0.00    +0.000 OA
BRANCH  11  19
ATOM     14  C   UNL     1      39.082  -0.916  12.117  0.00  0.00    +0.000 A 
ATOM     15  C   UNL     1      39.634  -0.448  10.924  0.00  0.00    +0.000 A 
ATOM     16  C   UNL     1      39.004   0.523  10.181  0.00  0.00    +0.000 A 
ATOM     17  C   UNL     1      37.811   1.029  10.636  0.00  0.00    +0.000 A 
ATOM     18  C   UNL     1      37.284   0.553  11.816  0.00  0.00    +0.000 A 
ATOM     19  C   UNL     1      37.886  -0.418  12.587  0.00  0.00    +0.000 A 
BRANCH  14  20
ATOM     20  O   UNL     1      39.715  -1.896  12.870  0.00  0.00    +0.000 OA
BRANCH  20  22
ATOM     21  C   UNL     1      41.463  -0.723  14.068  0.00  0.00    +0.000 C 
ATOM     22  C   UNL     1      41.100  -1.821  13.096  0.00  0.00    +0.000 C 
ENDBRANCH  20  22
ENDBRANCH  14  20
ENDBRANCH  11  19
ENDBRANCH   1  12
BRANCH   2  23
ATOM     23  N   UNL     1      35.080   0.598  16.174  0.00  0.00    +0.000 NA
BRANCH  23  24
ATOM     24  C   UNL     1      34.920   1.957  16.599  0.00  0.00    +0.000 C 
BRANCH  24  25
ATOM     25  C   UNL     1      35.834   2.812  15.807  0.00  0.00    +0.000 A 
ATOM     26  C   UNL     1      35.633   2.978  14.468  0.00  0.00    +0.000 A 
ATOM     27  C   UNL     1      36.490   3.782  13.711  0.00  0.00    +0.000 A 
ATOM     28  C   UNL     1      37.519   4.376  14.398  0.00  0.00    +0.000 A 
ATOM     29  N   UNL     1      37.693   4.196  15.711  0.00  0.00    +0.000 NA
ATOM     30  C   UNL     1      36.876   3.421  16.463  0.00  0.00    +0.000 A 
ENDBRANCH  24  25
ENDBRANCH  23  24
ENDBRANCH   2  23
TORSDOF 7
ENDMDL
MODEL 5
REMARK VINA RESULT:      -6.8      2.362      5.239
REMARK  Name = 
REMARK  7 active torsions:
REMARK  status: ('A' for Active; 'I' for Inactive)
REMARK    1  A    between atoms: C_2  and  O_3
REMARK    2  A    between atoms: O_3  and  C_4
REMARK    3  A    between atoms: C_9  and  N_10
REMARK    4  A    between atoms: C_11  and  C_13
REMARK    5  A    between atoms: C_14  and  N_15
REMARK    6  A    between atoms: N_15  and  C_16
REMARK    7  A    between atoms: C_16  and  C_17
REMARK                            x       y       z     vdW  Elec       q    Type
REMARK                         _______ _______ _______ _____ _____    ______ ____
ROOT
ATOM      1  C   UNL     1      36.992   0.582  15.603  0.00  0.00    +0.000 A 
ATOM      2  C   UNL     1      36.570   0.131  16.825  0.00  0.00    +0.000 A 
ATOM      3  S   UNL     1      35.227   1.153  17.177  0.00  0.00    +0.000 S 
ATOM      4  C   UNL     1      35.253   2.106  15.769  0.00  0.00    +0.000 A 
ATOM      5  C   UNL     1      36.309   1.603  15.062  0.00  0.00    +0.000 A 
ATOM      6  C   UNL     1      36.678   2.195  13.711  0.00  0.00    +0.000 C 
ATOM      7  C   UNL     1      37.278   3.549  13.984  0.00  0.00    +0.000 C 
ATOM      8  C   UNL     1      36.347   4.425  14.795  0.00  0.00    +0.000 C 
ATOM      9  C   UNL     1      34.889   4.154  14.448  0.00  0.00    +0.000 C 
ATOM     10  C   UNL     1      34.292   3.207  15.491  0.00  0.00    +0.000 C 
ENDROOT
BRANCH   1  12
ATOM     11  N   UNL     1      38.014  -1.157  14.072  0.00  0.00    +0.000 NA
ATOM     12  C   UNL     1      38.150  -0.052  14.947  0.00  0.00    +0.000 C 
ATOM     13  O   UNL     1      39.314   0.370  15.143  0.00  0.00    +0.000 OA
BRANCH  11  19
ATOM     14  C   UNL     1      39.490  -1.372  12.183  0.00  0.00    +0.000 A 
ATOM     15  C   UNL     1      40.623  -1.895  11.559  0.00  0.00    +0.000 A 
ATOM     16  C   UNL     1      41.460  -2.765  12.219  0.00  0.00    +0.000 A 
ATOM     17  C   UNL     1      41.160  -3.114  13.513  0.00  0.00    +0.000 A 
ATOM     18  C   UNL     1      40.036  -2.587  14.108  0.00  0.00    +0.000 A 
ATOM     19  C   UNL     1      39.174  -1.713  13.480  0.00  0.00    +0.000 A 
BRANCH  14  20
ATOM     20  O   UNL     1      38.642  -0.494  11.521  0.00  0.00    +0.000 OA
BRANCH  20  22
ATOM     21  C   UNL     1      39.774   1.626  11.829  0.00  0.00    +0.000 C 
ATOM     22  C   UNL     1      39.172   0.631  10.865  0.00  0.00    +0.000 C 
ENDBRANCH  20  22
ENDBRANCH  14  20
ENDBRANCH  11  19
ENDBRANCH   1  12
BRANCH   2  23
ATOM     23  N   UNL     1      37.100  -0.934  17.627  0.00  0.00    +0.000 NA
BRANCH  23  24
ATOM     24  C   UNL     1      36.325  -2.068  18.036  0.00  0.00    +0.000 C 
BRANCH  24  25
ATOM     25  C   UNL     1      36.062  -2.915  16.850  0.00  0.00    +0.000 A 
ATOM     26  C   UNL     1      34.834  -2.905  16.256  0.00  0.00    +0.000 A 
ATOM     27  C   UNL     1      34.575  -3.701  15.138  0.00  0.00    +0.000 A 
ATOM     28  C   UNL     1      35.619  -4.474  14.694  0.00  0.00    +0.000 A 
ATOM     29  N   UNL     1      36.813  -4.465  15.296  0.00  0.00    +0.000 NA
ATOM     30  C   UNL     1      37.085  -3.702  16.381  0.00  0.00    +0.000 A 
ENDBRANCH  24  25
ENDBRANCH  23  24
ENDBRANCH   2  23
TORSDOF 7
ENDMDL
MODEL 6
REMARK VINA RESULT:      -6.8      1.858      5.787
REMARK  Name = 
REMARK  7 active torsions:
REMARK  status: ('A' for Active; 'I' for Inactive)
REMARK    1  A    between atoms: C_2  and  O_3
REMARK    2  A    between atoms: O_3  and  C_4
REMARK    3  A    between atoms: C_9  and  N_10
REMARK    4  A    between atoms: C_11  and  C_13
REMARK    5  A    between atoms: C_14  and  N_15
REMARK    6  A    between atoms: N_15  and  C_16
REMARK    7  A    between atoms: C_16  and  C_17
REMARK                            x       y       z     vdW  Elec       q    Type
REMARK                         _______ _______ _______ _____ _____    ______ ____
ROOT
ATOM      1  C   UNL     1      39.113  -0.915  13.518  0.00  0.00    +0.000 A 
ATOM      2  C   UNL     1      38.640  -0.273  12.406  0.00  0.00    +0.000 A 
ATOM      3  S   UNL     1      39.630  -0.897  11.141  0.00  0.00    +0.000 S 
ATOM      4  C   UNL     1      40.601  -1.943  12.067  0.00  0.00    +0.000 A 
ATOM      5  C   UNL     1      40.128  -1.777  13.338  0.00  0.00    +0.000 A 
ATOM      6  C   UNL     1      40.743  -2.553  14.491  0.00  0.00    +0.000 C 
ATOM      7  C   UNL     1      42.105  -1.958  14.732  0.00  0.00    +0.000 C 
ATOM      8  C   UNL     1      42.952  -1.965  13.477  0.00  0.00    +0.000 C 
ATOM      9  C   UNL     1      42.656  -3.185  12.616  0.00  0.00    +0.000 C 
ATOM     10  C   UNL     1      41.685  -2.790  11.501  0.00  0.00    +0.000 C 
ENDROOT
BRANCH   1  12
ATOM     11  N   UNL     1      37.548  -1.502  15.420  0.00  0.00    +0.000 NA
ATOM     12  C   UNL     1      38.511  -0.644  14.836  0.00  0.00    +0.000 C 
ATOM     13  O   UNL     1      38.833   0.372  15.497  0.00  0.00    +0.000 OA
BRANCH  11  19
ATOM     14  C   UNL     1      37.613  -1.687  17.819  0.00  0.00    +0.000 A 
ATOM     15  C   UNL     1      37.121  -1.389  19.091  0.00  0.00    +0.000 A 
ATOM     16  C   UNL     1      36.024  -0.575  19.256  0.00  0.00    +0.000 A 
ATOM     17  C   UNL     1      35.416  -0.054  18.141  0.00  0.00    +0.000 A 
ATOM     18  C   UNL     1      35.918  -0.361  16.896  0.00  0.00    +0.000 A 
ATOM     19  C   UNL     1      37.014  -1.173  16.690  0.00  0.00    +0.000 A 
BRANCH  14  20
ATOM     20  O   UNL     1      38.719  -2.508  17.648  0.00  0.00    +0.000 OA
BRANCH  20  22
ATOM     21  C   UNL     1      38.104  -4.778  17.068  0.00  0.00    +0.000 C 
ATOM     22  C   UNL     1      38.681  -3.839  18.100  0.00  0.00    +0.000 C 
ENDBRANCH  20  22
ENDBRANCH  14  20
ENDBRANCH  11  19
ENDBRANCH   1  12
BRANCH   2  23
ATOM     23  N   UNL     1      37.576   0.684  12.301  0.00  0.00    +0.000 NA
BRANCH  23  24
ATOM     24  C   UNL     1      37.789   2.101  12.342  0.00  0.00    +0.000 C 
BRANCH  24  25
ATOM     25  C   UNL     1      36.769   2.709  13.227  0.00  0.00    +0.000 A 
ATOM     26  C   UNL     1      35.984   1.919  14.016  0.00  0.00    +0.000 A 
ATOM     27  C   UNL     1      35.019   2.483  14.854  0.00  0.00    +0.000 A 
ATOM     28  C   UNL     1      34.922   3.852  14.825  0.00  0.00    +0.000 A 
ATOM     29  N   UNL     1      35.704   4.601  14.042  0.00  0.00    +0.000 NA
ATOM     30  C   UNL     1      36.645   4.077  13.222  0.00  0.00    +0.000 A 
ENDBRANCH  24  25
ENDBRANCH  23  24
ENDBRANCH   2  23
TORSDOF 7
ENDMDL
MODEL 7
REMARK VINA RESULT:      -6.8      2.346      6.576
REMARK  Name = 
REMARK  7 active torsions:
REMARK  status: ('A' for Active; 'I' for Inactive)
REMARK    1  A    between atoms: C_2  and  O_3
REMARK    2  A    between atoms: O_3  and  C_4
REMARK    3  A    between atoms: C_9  and  N_10
REMARK    4  A    between atoms: C_11  and  C_13
REMARK    5  A    between atoms: C_14  and  N_15
REMARK    6  A    between atoms: N_15  and  C_16
REMARK    7  A    between atoms: C_16  and  C_17
REMARK                            x       y       z     vdW  Elec       q    Type
REMARK                         _______ _______ _______ _____ _____    ______ ____
ROOT
ATOM      1  C   UNL     1      39.554  -0.885  14.559  0.00  0.00    +0.000 A 
ATOM      2  C   UNL     1      39.180  -2.158  14.896  0.00  0.00    +0.000 A 
ATOM      3  S   UNL     1      40.679  -3.008  14.943  0.00  0.00    +0.000 S 
ATOM      4  C   UNL     1      41.716  -1.724  14.535  0.00  0.00    +0.000 A 
ATOM      5  C   UNL     1      40.866  -0.666  14.373  0.00  0.00    +0.000 A 
ATOM      6  C   UNL     1      41.410   0.703  13.995  0.00  0.00    +0.000 C 
ATOM      7  C   UNL     1      41.851   0.609  12.558  0.00  0.00    +0.000 C 
ATOM      8  C   UNL     1      42.841  -0.516  12.345  0.00  0.00    +0.000 C 
ATOM      9  C   UNL     1      43.737  -0.704  13.562  0.00  0.00    +0.000 C 
ATOM     10  C   UNL     1      43.193  -1.854  14.413  0.00  0.00    +0.000 C 
ENDROOT
BRANCH   1  12
ATOM     11  N   UNL     1      37.957   0.823  15.531  0.00  0.00    +0.000 NA
ATOM     12  C   UNL     1      38.533   0.168  14.415  0.00  0.00    +0.000 C 
ATOM     13  O   UNL     1      38.129   0.525  13.284  0.00  0.00    +0.000 OA
BRANCH  11  19
ATOM     14  C   UNL     1      37.346   3.148  15.414  0.00  0.00    +0.000 A 
ATOM     15  C   UNL     1      36.417   4.168  15.206  0.00  0.00    +0.000 A 
ATOM     16  C   UNL     1      35.108   3.883  14.894  0.00  0.00    +0.000 A 
ATOM     17  C   UNL     1      34.726   2.568  14.788  0.00  0.00    +0.000 A 
ATOM     18  C   UNL     1      35.660   1.578  14.998  0.00  0.00    +0.000 A 
ATOM     19  C   UNL     1      36.980   1.824  15.312  0.00  0.00    +0.000 A 
BRANCH  14  20
ATOM     20  O   UNL     1      38.669   3.430  15.730  0.00  0.00    +0.000 OA
BRANCH  20  22
ATOM     21  C   UNL     1      39.706   3.862  13.584  0.00  0.00    +0.000 C 
ATOM     22  C   UNL     1      39.386   4.370  14.969  0.00  0.00    +0.000 C 
ENDBRANCH  20  22
ENDBRANCH  14  20
ENDBRANCH  11  19
ENDBRANCH   1  12
BRANCH   2  23
ATOM     23  N   UNL     1      37.867  -2.673  15.157  0.00  0.00    +0.000 NA
BRANCH  23  24
ATOM     24  C   UNL     1      37.484  -3.245  16.414  0.00  0.00    +0.000 C 
BRANCH  24  25
ATOM     25  C   UNL     1      37.014  -2.159  17.305  0.00  0.00    +0.000 A 
ATOM     26  C   UNL     1      35.775  -1.614  17.131  0.00  0.00    +0.000 A 
ATOM     27  C   UNL     1      35.322  -0.589  17.965  0.00  0.00    +0.000 A 
ATOM     28  C   UNL     1      36.193  -0.182  18.946  0.00  0.00    +0.000 A 
ATOM     29  N   UNL     1      37.401  -0.734  19.093  0.00  0.00    +0.000 NA
ATOM     30  C   UNL     1      37.861  -1.727  18.296  0.00  0.00    +0.000 A 
ENDBRANCH  24  25
ENDBRANCH  23  24
ENDBRANCH   2  23
TORSDOF 7
ENDMDL
MODEL 8
REMARK VINA RESULT:      -6.7      2.742      5.718
REMARK  Name = 
REMARK  7 active torsions:
REMARK  status: ('A' for Active; 'I' for Inactive)
REMARK    1  A    between atoms: C_2  and  O_3
REMARK    2  A    between atoms: O_3  and  C_4
REMARK    3  A    between atoms: C_9  and  N_10
REMARK    4  A    between atoms: C_11  and  C_13
REMARK    5  A    between atoms: C_14  and  N_15
REMARK    6  A    between atoms: N_15  and  C_16
REMARK    7  A    between atoms: C_16  and  C_17
REMARK                            x       y       z     vdW  Elec       q    Type
REMARK                         _______ _______ _______ _____ _____    ______ ____
ROOT
ATOM      1  C   UNL     1      39.347   0.651  13.984  0.00  0.00    +0.000 A 
ATOM      2  C   UNL     1      39.492   2.010  13.905  0.00  0.00    +0.000 A 
ATOM      3  S   UNL     1      41.062   2.198  13.219  0.00  0.00    +0.000 S 
ATOM      4  C   UNL     1      41.472   0.555  13.060  0.00  0.00    +0.000 A 
ATOM      5  C   UNL     1      40.374  -0.096  13.546  0.00  0.00    +0.000 A 
ATOM      6  C   UNL     1      40.338  -1.616  13.580  0.00  0.00    +0.000 C 
ATOM      7  C   UNL     1      41.292  -2.045  14.665  0.00  0.00    +0.000 C 
ATOM      8  C   UNL     1      42.678  -1.476  14.451  0.00  0.00    +0.000 C 
ATOM      9  C   UNL     1      43.011  -1.366  12.969  0.00  0.00    +0.000 C 
ATOM     10  C   UNL     1      42.764   0.070  12.504  0.00  0.00    +0.000 C 
ENDROOT
BRANCH   1  12
ATOM     11  N   UNL     1      37.938  -0.185  15.914  0.00  0.00    +0.000 NA
ATOM     12  C   UNL     1      38.106   0.075  14.532  0.00  0.00    +0.000 C 
ATOM     13  O   UNL     1      37.142  -0.212  13.784  0.00  0.00    +0.000 OA
BRANCH  11  19
ATOM     14  C   UNL     1      35.719   0.103  16.803  0.00  0.00    +0.000 A 
ATOM     15  C   UNL     1      34.500  -0.401  17.256  0.00  0.00    +0.000 A 
ATOM     16  C   UNL     1      34.254  -1.755  17.279  0.00  0.00    +0.000 A 
ATOM     17  C   UNL     1      35.237  -2.610  16.845  0.00  0.00    +0.000 A 
ATOM     18  C   UNL     1      36.433  -2.091  16.403  0.00  0.00    +0.000 A 
ATOM     19  C   UNL     1      36.716  -0.742  16.365  0.00  0.00    +0.000 A 
BRANCH  14  20
ATOM     20  O   UNL     1      35.971   1.468  16.778  0.00  0.00    +0.000 OA
BRANCH  20  22
ATOM     21  C   UNL     1      35.066   2.472  14.768  0.00  0.00    +0.000 C 
ATOM     22  C   UNL     1      35.002   2.351  16.272  0.00  0.00    +0.000 C 
ENDBRANCH  20  22
ENDBRANCH  14  20
ENDBRANCH  11  19
ENDBRANCH   1  12
BRANCH   2  23
ATOM     23  N   UNL     1      38.569   3.039  14.289  0.00  0.00    +0.000 NA
BRANCH  23  24
ATOM     24  C   UNL     1      38.938   4.419  14.404  0.00  0.00    +0.000 C 
BRANCH  24  25
ATOM     25  C   UNL     1      39.084   4.753  15.840  0.00  0.00    +0.000 A 
ATOM     26  C   UNL     1      40.004   5.678  16.240  0.00  0.00    +0.000 A 
ATOM     27  C   UNL     1      40.151   5.999  17.592  0.00  0.00    +0.000 A 
ATOM     28  C   UNL     1      39.323   5.334  18.462  0.00  0.00    +0.000 A 
ATOM     29  N   UNL     1      38.430   4.432  18.042  0.00  0.00    +0.000 NA
ATOM     30  C   UNL     1      38.272   4.105  16.738  0.00  0.00    +0.000 A 
ENDBRANCH  24  25
ENDBRANCH  23  24
ENDBRANCH   2  23
TORSDOF 7
ENDMDL
MODEL 9
REMARK VINA RESULT:      -6.6      2.717      5.031
REMARK  Name = 
REMARK  7 active torsions:
REMARK  status: ('A' for Active; 'I' for Inactive)
REMARK    1  A    between atoms: C_2  and  O_3
REMARK    2  A    between atoms: O_3  and  C_4
REMARK    3  A    between atoms: C_9  and  N_10
REMARK    4  A    between atoms: C_11  and  C_13
REMARK    5  A    between atoms: C_14  and  N_15
REMARK    6  A    between atoms: N_15  and  C_16
REMARK    7  A    between atoms: C_16  and  C_17
REMARK                            x       y       z     vdW  Elec       q    Type
REMARK                         _______ _______ _______ _____ _____    ______ ____
ROOT
ATOM      1  C   UNL     1      37.462  -0.920  14.833  0.00  0.00    +0.000 A 
ATOM      2  C   UNL     1      38.089  -2.119  14.622  0.00  0.00    +0.000 A 
ATOM      3  S   UNL     1      37.036  -3.251  15.385  0.00  0.00    +0.000 S 
ATOM      4  C   UNL     1      35.849  -2.166  15.939  0.00  0.00    +0.000 A 
ATOM      5  C   UNL     1      36.305  -0.950  15.515  0.00  0.00    +0.000 A 
ATOM      6  C   UNL     1      35.513   0.313  15.814  0.00  0.00    +0.000 C 
ATOM      7  C   UNL     1      35.662   0.574  17.290  0.00  0.00    +0.000 C 
ATOM      8  C   UNL     1      35.237  -0.620  18.119  0.00  0.00    +0.000 C 
ATOM      9  C   UNL     1      34.085  -1.369  17.462  0.00  0.00    +0.000 C 
ATOM     10  C   UNL     1      34.639  -2.575  16.701  0.00  0.00    +0.000 C 
ENDROOT
BRANCH   1  12
ATOM     11  N   UNL     1      39.068   1.028  15.029  0.00  0.00    +0.000 NA
ATOM     12  C   UNL     1      38.064   0.324  14.320  0.00  0.00    +0.000 C 
ATOM     13  O   UNL     1      37.703   0.812  13.223  0.00  0.00    +0.000 OA
BRANCH  11  19
ATOM     14  C   UNL     1      39.251   3.428  15.030  0.00  0.00    +0.000 A 
ATOM     15  C   UNL     1      39.749   4.625  14.514  0.00  0.00    +0.000 A 
ATOM     16  C   UNL     1      40.600   4.634  13.434  0.00  0.00    +0.000 A 
ATOM     17  C   UNL     1      40.956   3.436  12.866  0.00  0.00    +0.000 A 
ATOM     18  C   UNL     1      40.452   2.267  13.391  0.00  0.00    +0.000 A 
ATOM     19  C   UNL     1      39.597   2.218  14.472  0.00  0.00    +0.000 A 
BRANCH  14  20
ATOM     20  O   UNL     1      38.391   3.415  16.121  0.00  0.00    +0.000 OA
BRANCH  20  22
ATOM     21  C   UNL     1      38.729   4.755  18.110  0.00  0.00    +0.000 C 
ATOM     22  C   UNL     1      38.057   4.618  16.765  0.00  0.00    +0.000 C 
ENDBRANCH  20  22
ENDBRANCH  14  20
ENDBRANCH  11  19
ENDBRANCH   1  12
BRANCH   2  23
ATOM     23  N   UNL     1      39.318  -2.385  13.932  0.00  0.00    +0.000 NA
BRANCH  23  24
ATOM     24  C   UNL     1      40.595  -2.401  14.582  0.00  0.00    +0.000 C 
BRANCH  24  25
ATOM     25  C   UNL     1      41.519  -1.519  13.833  0.00  0.00    +0.000 A 
ATOM     26  C   UNL     1      42.528  -0.869  14.482  0.00  0.00    +0.000 A 
ATOM     27  C   UNL     1      43.405  -0.034  13.785  0.00  0.00    +0.000 A 
ATOM     28  C   UNL     1      43.182   0.080  12.436  0.00  0.00    +0.000 A 
ATOM     29  N   UNL     1      42.185  -0.569  11.824  0.00  0.00    +0.000 NA
ATOM     30  C   UNL     1      41.324  -1.382  12.480  0.00  0.00    +0.000 A 
ENDBRANCH  24  25
ENDBRANCH  23  24
ENDBRANCH   2  23
TORSDOF 7
ENDMDL
MODEL 10
REMARK VINA RESULT:      -6.6      2.463      6.628
REMARK  Name = 
REMARK  7 active torsions:
REMARK  status: ('A' for Active; 'I' for Inactive)
REMARK    1  A    between atoms: C_2  and  O_3
REMARK    2  A    between atoms: O_3  and  C_4
REMARK    3  A    between atoms: C_9  and  N_10
REMARK    4  A    between atoms: C_11  and  C_13
REMARK    5  A    between atoms: C_14  and  N_15
REMARK    6  A    between atoms: N_15  and  C_16
REMARK    7  A    between atoms: C_16  and  C_17
REMARK                            x       y       z     vdW  Elec       q    Type
REMARK                         _______ _______ _______ _____ _____    ______ ____
ROOT
ATOM      1  C   UNL     1      39.092  -1.256  14.824  0.00  0.00    +0.000 A 
ATOM      2  C   UNL     1      39.287  -2.093  15.890  0.00  0.00    +0.000 A 
ATOM      3  S   UNL     1      40.721  -2.948  15.461  0.00  0.00    +0.000 S 
ATOM      4  C   UNL     1      41.015  -2.215  13.954  0.00  0.00    +0.000 A 
ATOM      5  C   UNL     1      39.988  -1.324  13.826  0.00  0.00    +0.000 A 
ATOM      6  C   UNL     1      39.883  -0.449  12.587  0.00  0.00    +0.000 C 
ATOM      7  C   UNL     1      39.474  -1.354  11.454  0.00  0.00    +0.000 C 
ATOM      8  C   UNL     1      40.425  -2.520  11.293  0.00  0.00    +0.000 C 
ATOM      9  C   UNL     1      41.854  -2.122  11.640  0.00  0.00    +0.000 C 
ATOM     10  C   UNL     1      42.164  -2.558  13.073  0.00  0.00    +0.000 C 
ENDROOT
BRANCH   1  12
ATOM     11  N   UNL     1      37.992   0.956  15.379  0.00  0.00    +0.000 NA
ATOM     12  C   UNL     1      37.937  -0.339  14.811  0.00  0.00    +0.000 C 
ATOM     13  O   UNL     1      36.849  -0.679  14.290  0.00  0.00    +0.000 OA
BRANCH  11  19
ATOM     14  C   UNL     1      36.754   2.747  14.352  0.00  0.00    +0.000 A 
ATOM     15  C   UNL     1      35.638   3.580  14.264  0.00  0.00    +0.000 A 
ATOM     16  C   UNL     1      34.591   3.461  15.148  0.00  0.00    +0.000 A 
ATOM     17  C   UNL     1      34.661   2.500  16.127  0.00  0.00    +0.000 A 
ATOM     18  C   UNL     1      35.772   1.690  16.195  0.00  0.00    +0.000 A 
ATOM     19  C   UNL     1      36.840   1.779  15.329  0.00  0.00    +0.000 A 
BRANCH  14  20
ATOM     20  O   UNL     1      37.814   2.863  13.462  0.00  0.00    +0.000 OA
BRANCH  20  22
ATOM     21  C   UNL     1      37.213   1.624  11.469  0.00  0.00    +0.000 C 
ATOM     22  C   UNL     1      37.563   2.959  12.083  0.00  0.00    +0.000 C 
ENDBRANCH  20  22
ENDBRANCH  14  20
ENDBRANCH  11  19
ENDBRANCH   1  12
BRANCH   2  23
ATOM     23  N   UNL     1      38.503  -2.231  17.084  0.00  0.00    +0.000 NA
BRANCH  23  24
ATOM     24  C   UNL     1      37.848  -3.451  17.454  0.00  0.00    +0.000 C 
BRANCH  24  25
ATOM     25  C   UNL     1      36.623  -3.599  16.635  0.00  0.00    +0.000 A 
ATOM     26  C   UNL     1      36.565  -4.539  15.648  0.00  0.00    +0.000 A 
ATOM     27  C   UNL     1      35.415  -4.687  14.869  0.00  0.00    +0.000 A 
ATOM     28  C   UNL     1      34.376  -3.840  15.163  0.00  0.00    +0.000 A 
ATOM     29  N   UNL     1      34.460  -2.927  16.136  0.00  0.00    +0.000 NA
ATOM     30  C   UNL     1      35.564  -2.766  16.902  0.00  0.00    +0.000 A 
ENDBRANCH  24  25
ENDBRANCH  23  24
ENDBRANCH   2  23
TORSDOF 7
ENDMDL
