MODEL 1
REMARK VINA RESULT:      -8.2      0.000      0.000
REMARK  Name = 
REMARK  7 active torsions:
REMARK  status: ('A' for Active; 'I' for Inactive)
REMARK    1  A    between atoms: C_2  and  O_3
REMARK    2  A    between atoms: O_3  and  C_4
REMARK    3  A    between atoms: C_7  and  C_8
REMARK    4  A    between atoms: C_10  and  C_11
REMARK    5  A    between atoms: N_13  and  C_14
REMARK    6  A    between atoms: C_14  and  C_15
REMARK    7  A    between atoms: C_20  and  O_21
REMARK                            x       y       z     vdW  Elec       q    Type
REMARK                         _______ _______ _______ _____ _____    ______ ____
ROOT
ATOM      1  C   UNL     1      38.914   5.540  16.956  0.00  0.00    +0.000 A 
ATOM      2  C   UNL     1      38.320   4.288  17.039  0.00  0.00    +0.000 A 
ATOM      3  C   UNL     1      37.345   3.863  16.171  0.00  0.00    +0.000 A 
ATOM      4  C   UNL     1      36.951   4.753  15.172  0.00  0.00    +0.000 A 
ATOM      5  C   UNL     1      35.982   4.346  14.274  0.00  0.00    +0.000 A 
ATOM      6  C   UNL     1      35.599   5.226  13.260  0.00  0.00    +0.000 A 
ATOM      7  C   UNL     1      36.188   6.478  13.169  0.00  0.00    +0.000 A 
ATOM      8  C   UNL     1      37.159   6.901  14.059  0.00  0.00    +0.000 A 
ATOM      9  C   UNL     1      37.529   6.001  15.072  0.00  0.00    +0.000 A 
ATOM     10  N   UNL     1      38.489   6.352  15.966  0.00  0.00    +0.000 NA
ENDROOT
BRANCH   1  14
ATOM     11  C   UNL     1      41.930   6.715  19.674  0.00  0.00    +0.000 A 
ATOM     12  C   UNL     1      40.675   6.418  20.136  0.00  0.00    +0.000 A 
ATOM     13  C   UNL     1      39.696   6.036  19.215  0.00  0.00    +0.000 A 
ATOM     14  C   UNL     1      39.936   5.949  17.888  0.00  0.00    +0.000 A 
ATOM     15  C   UNL     1      41.205   6.250  17.431  0.00  0.00    +0.000 A 
ATOM     16  C   UNL     1      42.238   6.641  18.295  0.00  0.00    +0.000 A 
BRANCH  11  17
ATOM     17  O   UNL     1      42.958   7.099  20.512  0.00  0.00    +0.000 OA
BRANCH  17  19
ATOM     18  C   UNL     1      44.287   5.385  21.649  0.00  0.00    +0.000 C 
ATOM     19  C   UNL     1      43.266   6.511  21.740  0.00  0.00    +0.000 C 
ENDBRANCH  17  19
ENDBRANCH  11  17
ENDBRANCH   1  14
BRANCH   3  20
ATOM     20  C   UNL     1      36.673   2.554  16.274  0.00  0.00    +0.000 C 
ATOM     21  O   UNL     1      35.518   2.563  16.841  0.00  0.00    +0.000 OA
ATOM     22  N   UNL     1      37.149   1.338  15.821  0.00  0.00    +0.000 NA
BRANCH  22  23
ATOM     23  C   UNL     1      36.564   0.061  15.889  0.00  0.00    +0.000 C 
BRANCH  23  24
ATOM     24  C   UNL     1      37.051  -0.820  16.961  0.00  0.00    +0.000 A 
ATOM     25  C   UNL     1      36.595  -0.708  18.238  0.00  0.00    +0.000 A 
ATOM     26  C   UNL     1      37.053  -1.496  19.307  0.00  0.00    +0.000 A 
ATOM     27  C   UNL     1      38.032  -2.454  19.048  0.00  0.00    +0.000 A 
ATOM     28  C   UNL     1      38.494  -2.575  17.771  0.00  0.00    +0.000 A 
ATOM     29  C   UNL     1      38.023  -1.782  16.729  0.00  0.00    +0.000 A 
BRANCH  29  30
ATOM     30  O   UNL     1      38.501  -1.920  15.439  0.00  0.00    +0.000 OA
ATOM     31  C   UNL     1      39.840  -1.464  15.177  0.00  0.00    +0.000 C 
ENDBRANCH  29  30
ENDBRANCH  23  24
ENDBRANCH  22  23
ENDBRANCH   3  20
TORSDOF 7
ENDMDL
MODEL 2
REMARK VINA RESULT:      -7.7      2.500      3.484
REMARK  Name = 
REMARK  7 active torsions:
REMARK  status: ('A' for Active; 'I' for Inactive)
REMARK    1  A    between atoms: C_2  and  O_3
REMARK    2  A    between atoms: O_3  and  C_4
REMARK    3  A    between atoms: C_7  and  C_8
REMARK    4  A    between atoms: C_10  and  C_11
REMARK    5  A    between atoms: N_13  and  C_14
REMARK    6  A    between atoms: C_14  and  C_15
REMARK    7  A    between atoms: C_20  and  O_21
REMARK                            x       y       z     vdW  Elec       q    Type
REMARK                         _______ _______ _______ _____ _____    ______ ____
ROOT
ATOM      1  C   UNL     1      37.803   4.138  16.341  0.00  0.00    +0.000 A 
ATOM      2  C   UNL     1      37.177   3.044  16.924  0.00  0.00    +0.000 A 
ATOM      3  C   UNL     1      36.744   1.959  16.203  0.00  0.00    +0.000 A 
ATOM      4  C   UNL     1      36.954   1.987  14.825  0.00  0.00    +0.000 A 
ATOM      5  C   UNL     1      36.542   0.900  14.076  0.00  0.00    +0.000 A 
ATOM      6  C   UNL     1      36.767   0.914  12.698  0.00  0.00    +0.000 A 
ATOM      7  C   UNL     1      37.394   2.001  12.108  0.00  0.00    +0.000 A 
ATOM      8  C   UNL     1      37.812   3.097  12.843  0.00  0.00    +0.000 A 
ATOM      9  C   UNL     1      37.574   3.063  14.227  0.00  0.00    +0.000 A 
ATOM     10  N   UNL     1      37.977   4.101  15.005  0.00  0.00    +0.000 NA
ENDROOT
BRANCH   1  14
ATOM     11  C   UNL     1      39.080   7.412  18.691  0.00  0.00    +0.000 A 
ATOM     12  C   UNL     1      38.477   7.636  17.482  0.00  0.00    +0.000 A 
ATOM     13  C   UNL     1      38.068   6.535  16.724  0.00  0.00    +0.000 A 
ATOM     14  C   UNL     1      38.244   5.260  17.135  0.00  0.00    +0.000 A 
ATOM     15  C   UNL     1      38.854   5.043  18.355  0.00  0.00    +0.000 A 
ATOM     16  C   UNL     1      39.290   6.097  19.171  0.00  0.00    +0.000 A 
BRANCH  11  17
ATOM     17  O   UNL     1      39.514   8.438  19.506  0.00  0.00    +0.000 OA
BRANCH  17  19
ATOM     18  C   UNL     1      38.599  10.186  20.958  0.00  0.00    +0.000 C 
ATOM     19  C   UNL     1      39.013   8.732  20.776  0.00  0.00    +0.000 C 
ENDBRANCH  17  19
ENDBRANCH  11  17
ENDBRANCH   1  14
BRANCH   3  20
ATOM     20  C   UNL     1      36.037   0.811  16.801  0.00  0.00    +0.000 C 
ATOM     21  O   UNL     1      34.755   0.911  16.853  0.00  0.00    +0.000 OA
ATOM     22  N   UNL     1      36.605  -0.348  17.295  0.00  0.00    +0.000 NA
BRANCH  22  23
ATOM     23  C   UNL     1      35.992  -1.473  17.876  0.00  0.00    +0.000 C 
BRANCH  23  24
ATOM     24  C   UNL     1      35.762  -2.619  16.983  0.00  0.00    +0.000 A 
ATOM     25  C   UNL     1      34.621  -2.736  16.253  0.00  0.00    +0.000 A 
ATOM     26  C   UNL     1      34.332  -3.826  15.416  0.00  0.00    +0.000 A 
ATOM     27  C   UNL     1      35.270  -4.853  15.323  0.00  0.00    +0.000 A 
ATOM     28  C   UNL     1      36.419  -4.744  16.050  0.00  0.00    +0.000 A 
ATOM     29  C   UNL     1      36.681  -3.652  16.872  0.00  0.00    +0.000 A 
BRANCH  29  30
ATOM     30  O   UNL     1      37.852  -3.558  17.600  0.00  0.00    +0.000 OA
ATOM     31  C   UNL     1      39.070  -3.331  16.868  0.00  0.00    +0.000 C 
ENDBRANCH  29  30
ENDBRANCH  23  24
ENDBRANCH  22  23
ENDBRANCH   3  20
TORSDOF 7
ENDMDL
MODEL 3
REMARK VINA RESULT:      -7.6      2.889      8.350
REMARK  Name = 
REMARK  7 active torsions:
REMARK  status: ('A' for Active; 'I' for Inactive)
REMARK    1  A    between atoms: C_2  and  O_3
REMARK    2  A    between atoms: O_3  and  C_4
REMARK    3  A    between atoms: C_7  and  C_8
REMARK    4  A    between atoms: C_10  and  C_11
REMARK    5  A    between atoms: N_13  and  C_14
REMARK    6  A    between atoms: C_14  and  C_15
REMARK    7  A    between atoms: C_20  and  O_21
REMARK                            x       y       z     vdW  Elec       q    Type
REMARK                         _______ _______ _______ _____ _____    ______ ____
ROOT
ATOM      1  C   UNL     1      38.977  -0.873  14.568  0.00  0.00    +0.000 A 
ATOM      2  C   UNL     1      38.993   0.512  14.668  0.00  0.00    +0.000 A 
ATOM      3  C   UNL     1      37.979   1.232  15.252  0.00  0.00    +0.000 A 
ATOM      4  C   UNL     1      36.897   0.511  15.754  0.00  0.00    +0.000 A 
ATOM      5  C   UNL     1      35.868   1.208  16.361  0.00  0.00    +0.000 A 
ATOM      6  C   UNL     1      34.791   0.490  16.883  0.00  0.00    +0.000 A 
ATOM      7  C   UNL     1      34.768  -0.894  16.789  0.00  0.00    +0.000 A 
ATOM      8  C   UNL     1      35.788  -1.607  16.185  0.00  0.00    +0.000 A 
ATOM      9  C   UNL     1      36.862  -0.865  15.664  0.00  0.00    +0.000 A 
ATOM     10  N   UNL     1      37.902  -1.508  15.075  0.00  0.00    +0.000 NA
ENDROOT
BRANCH   1  14
ATOM     11  C   UNL     1      42.176  -2.951  12.746  0.00  0.00    +0.000 A 
ATOM     12  C   UNL     1      40.892  -3.165  12.317  0.00  0.00    +0.000 A 
ATOM     13  C   UNL     1      39.854  -2.467  12.939  0.00  0.00    +0.000 A 
ATOM     14  C   UNL     1      40.064  -1.592  13.947  0.00  0.00    +0.000 A 
ATOM     15  C   UNL     1      41.361  -1.382  14.374  0.00  0.00    +0.000 A 
ATOM     16  C   UNL     1      42.454  -2.046  13.797  0.00  0.00    +0.000 A 
BRANCH  11  17
ATOM     17  O   UNL     1      43.262  -3.594  12.188  0.00  0.00    +0.000 OA
BRANCH  17  19
ATOM     18  C   UNL     1      45.564  -2.811  11.895  0.00  0.00    +0.000 C 
ATOM     19  C   UNL     1      44.556  -3.606  12.714  0.00  0.00    +0.000 C 
ENDBRANCH  17  19
ENDBRANCH  11  17
ENDBRANCH   1  14
BRANCH   3  20
ATOM     20  C   UNL     1      37.960   2.704  15.325  0.00  0.00    +0.000 C 
ATOM     21  O   UNL     1      37.670   3.314  14.230  0.00  0.00    +0.000 OA
ATOM     22  N   UNL     1      38.211   3.484  16.439  0.00  0.00    +0.000 NA
BRANCH  22  23
ATOM     23  C   UNL     1      38.210   4.883  16.576  0.00  0.00    +0.000 C 
BRANCH  23  24
ATOM     24  C   UNL     1      39.292   5.455  17.392  0.00  0.00    +0.000 A 
ATOM     25  C   UNL     1      39.172   5.590  18.740  0.00  0.00    +0.000 A 
ATOM     26  C   UNL     1      40.157   6.164  19.562  0.00  0.00    +0.000 A 
ATOM     27  C   UNL     1      41.329   6.623  18.965  0.00  0.00    +0.000 A 
ATOM     28  C   UNL     1      41.460   6.490  17.613  0.00  0.00    +0.000 A 
ATOM     29  C   UNL     1      40.469   5.917  16.821  0.00  0.00    +0.000 A 
BRANCH  29  30
ATOM     30  O   UNL     1      40.619   5.788  15.453  0.00  0.00    +0.000 OA
ATOM     31  C   UNL     1      41.866   6.219  14.881  0.00  0.00    +0.000 C 
ENDBRANCH  29  30
ENDBRANCH  23  24
ENDBRANCH  22  23
ENDBRANCH   3  20
TORSDOF 7
ENDMDL
MODEL 4
REMARK VINA RESULT:      -7.6      3.617      9.981
REMARK  Name = 
REMARK  7 active torsions:
REMARK  status: ('A' for Active; 'I' for Inactive)
REMARK    1  A    between atoms: C_2  and  O_3
REMARK    2  A    between atoms: O_3  and  C_4
REMARK    3  A    between atoms: C_7  and  C_8
REMARK    4  A    between atoms: C_10  and  C_11
REMARK    5  A    between atoms: N_13  and  C_14
REMARK    6  A    between atoms: C_14  and  C_15
REMARK    7  A    between atoms: C_20  and  O_21
REMARK                            x       y       z     vdW  Elec       q    Type
REMARK                         _______ _______ _______ _____ _____    ______ ____
ROOT
ATOM      1  C   UNL     1      36.954  -2.825  15.116  0.00  0.00    +0.000 A 
ATOM      2  C   UNL     1      36.536  -1.505  15.216  0.00  0.00    +0.000 A 
ATOM      3  C   UNL     1      37.388  -0.437  15.072  0.00  0.00    +0.000 A 
ATOM      4  C   UNL     1      38.728  -0.724  14.817  0.00  0.00    +0.000 A 
ATOM      5  C   UNL     1      39.605   0.331  14.651  0.00  0.00    +0.000 A 
ATOM      6  C   UNL     1      40.945   0.050  14.376  0.00  0.00    +0.000 A 
ATOM      7  C   UNL     1      41.371  -1.265  14.272  0.00  0.00    +0.000 A 
ATOM      8  C   UNL     1      40.506  -2.334  14.435  0.00  0.00    +0.000 A 
ATOM      9  C   UNL     1      39.163  -2.028  14.713  0.00  0.00    +0.000 A 
ATOM     10  N   UNL     1      38.263  -3.033  14.866  0.00  0.00    +0.000 NA
ENDROOT
BRANCH   1  14
ATOM     11  C   UNL     1      34.261  -6.052  15.570  0.00  0.00    +0.000 A 
ATOM     12  C   UNL     1      33.911  -4.976  14.796  0.00  0.00    +0.000 A 
ATOM     13  C   UNL     1      34.819  -3.922  14.667  0.00  0.00    +0.000 A 
ATOM     14  C   UNL     1      36.027  -3.919  15.273  0.00  0.00    +0.000 A 
ATOM     15  C   UNL     1      36.371  -5.008  16.052  0.00  0.00    +0.000 A 
ATOM     16  C   UNL     1      35.513  -6.102  16.229  0.00  0.00    +0.000 A 
BRANCH  11  17
ATOM     17  O   UNL     1      33.428  -7.137  15.753  0.00  0.00    +0.000 OA
BRANCH  17  19
ATOM     18  C   UNL     1      34.115  -8.262  13.688  0.00  0.00    +0.000 C 
ATOM     19  C   UNL     1      33.058  -8.051  14.764  0.00  0.00    +0.000 C 
ENDBRANCH  17  19
ENDBRANCH  11  17
ENDBRANCH   1  14
BRANCH   3  20
ATOM     20  C   UNL     1      36.968   0.968  15.221  0.00  0.00    +0.000 C 
ATOM     21  O   UNL     1      36.416   1.499  14.187  0.00  0.00    +0.000 OA
ATOM     22  N   UNL     1      37.097   1.758  16.349  0.00  0.00    +0.000 NA
BRANCH  22  23
ATOM     23  C   UNL     1      36.721   3.097  16.556  0.00  0.00    +0.000 C 
BRANCH  23  24
ATOM     24  C   UNL     1      37.810   4.036  16.867  0.00  0.00    +0.000 A 
ATOM     25  C   UNL     1      38.163   4.318  18.149  0.00  0.00    +0.000 A 
ATOM     26  C   UNL     1      39.168   5.233  18.503  0.00  0.00    +0.000 A 
ATOM     27  C   UNL     1      39.848   5.895  17.482  0.00  0.00    +0.000 A 
ATOM     28  C   UNL     1      39.502   5.617  16.192  0.00  0.00    +0.000 A 
ATOM     29  C   UNL     1      38.502   4.704  15.868  0.00  0.00    +0.000 A 
BRANCH  29  30
ATOM     30  O   UNL     1      38.167   4.433  14.555  0.00  0.00    +0.000 OA
ATOM     31  C   UNL     1      39.190   3.875  13.712  0.00  0.00    +0.000 C 
ENDBRANCH  29  30
ENDBRANCH  23  24
ENDBRANCH  22  23
ENDBRANCH   3  20
TORSDOF 7
ENDMDL
MODEL 5
REMARK VINA RESULT:      -7.4      2.913      8.449
REMARK  Name = 
REMARK  7 active torsions:
REMARK  status: ('A' for Active; 'I' for Inactive)
REMARK    1  A    between atoms: C_2  and  O_3
REMARK    2  A    between atoms: O_3  and  C_4
REMARK    3  A    between atoms: C_7  and  C_8
REMARK    4  A    between atoms: C_10  and  C_11
REMARK    5  A    between atoms: N_13  and  C_14
REMARK    6  A    between atoms: C_14  and  C_15
REMARK    7  A    between atoms: C_20  and  O_21
REMARK                            x       y       z     vdW  Elec       q    Type
REMARK                         _______ _______ _______ _____ _____    ______ ____
ROOT
ATOM      1  C   UNL     1      39.085  -0.051  14.737  0.00  0.00    +0.000 A 
ATOM      2  C   UNL     1      39.090   1.337  14.779  0.00  0.00    +0.000 A 
ATOM      3  C   UNL     1      38.053   2.074  15.295  0.00  0.00    +0.000 A 
ATOM      4  C   UNL     1      36.956   1.368  15.789  0.00  0.00    +0.000 A 
ATOM      5  C   UNL     1      35.904   2.084  16.329  0.00  0.00    +0.000 A 
ATOM      6  C   UNL     1      34.812   1.382  16.842  0.00  0.00    +0.000 A 
ATOM      7  C   UNL     1      34.799  -0.004  16.806  0.00  0.00    +0.000 A 
ATOM      8  C   UNL     1      35.844  -0.736  16.270  0.00  0.00    +0.000 A 
ATOM      9  C   UNL     1      36.931  -0.010  15.757  0.00  0.00    +0.000 A 
ATOM     10  N   UNL     1      37.995  -0.671  15.232  0.00  0.00    +0.000 NA
ENDROOT
BRANCH   1  14
ATOM     11  C   UNL     1      42.345  -2.189  13.102  0.00  0.00    +0.000 A 
ATOM     12  C   UNL     1      41.150  -2.825  13.314  0.00  0.00    +0.000 A 
ATOM     13  C   UNL     1      40.091  -2.095  13.860  0.00  0.00    +0.000 A 
ATOM     14  C   UNL     1      40.196  -0.789  14.187  0.00  0.00    +0.000 A 
ATOM     15  C   UNL     1      41.404  -0.154  13.970  0.00  0.00    +0.000 A 
ATOM     16  C   UNL     1      42.512  -0.821  13.427  0.00  0.00    +0.000 A 
BRANCH  11  17
ATOM     17  O   UNL     1      43.443  -2.830  12.567  0.00  0.00    +0.000 OA
BRANCH  17  19
ATOM     18  C   UNL     1      43.080  -2.631  10.153  0.00  0.00    +0.000 C 
ATOM     19  C   UNL     1      43.475  -3.498  11.342  0.00  0.00    +0.000 C 
ENDBRANCH  17  19
ENDBRANCH  11  17
ENDBRANCH   1  14
BRANCH   3  20
ATOM     20  C   UNL     1      38.024   3.548  15.305  0.00  0.00    +0.000 C 
ATOM     21  O   UNL     1      37.592   4.105  14.228  0.00  0.00    +0.000 OA
ATOM     22  N   UNL     1      38.400   4.379  16.344  0.00  0.00    +0.000 NA
BRANCH  22  23
ATOM     23  C   UNL     1      38.398   5.783  16.418  0.00  0.00    +0.000 C 
BRANCH  23  24
ATOM     24  C   UNL     1      38.787   6.365  17.711  0.00  0.00    +0.000 A 
ATOM     25  C   UNL     1      39.704   5.766  18.516  0.00  0.00    +0.000 A 
ATOM     26  C   UNL     1      40.083   6.257  19.776  0.00  0.00    +0.000 A 
ATOM     27  C   UNL     1      39.488   7.431  20.234  0.00  0.00    +0.000 A 
ATOM     28  C   UNL     1      38.568   8.042  19.432  0.00  0.00    +0.000 A 
ATOM     29  C   UNL     1      38.210   7.534  18.187  0.00  0.00    +0.000 A 
BRANCH  29  30
ATOM     30  O   UNL     1      37.278   8.168  17.387  0.00  0.00    +0.000 OA
ATOM     31  C   UNL     1      36.910   9.513  17.738  0.00  0.00    +0.000 C 
ENDBRANCH  29  30
ENDBRANCH  23  24
ENDBRANCH  22  23
ENDBRANCH   3  20
TORSDOF 7
ENDMDL
MODEL 6
REMARK VINA RESULT:      -7.3      3.154      6.308
REMARK  Name = 
REMARK  7 active torsions:
REMARK  status: ('A' for Active; 'I' for Inactive)
REMARK    1  A    between atoms: C_2  and  O_3
REMARK    2  A    between atoms: O_3  and  C_4
REMARK    3  A    between atoms: C_7  and  C_8
REMARK    4  A    between atoms: C_10  and  C_11
REMARK    5  A    between atoms: N_13  and  C_14
REMARK    6  A    between atoms: C_14  and  C_15
REMARK    7  A    between atoms: C_20  and  O_21
REMARK                            x       y       z     vdW  Elec       q    Type
REMARK                         _______ _______ _______ _____ _____    ______ ____
ROOT
ATOM      1  C   UNL     1      38.553   5.068  16.838  0.00  0.00    +0.000 A 
ATOM      2  C   UNL     1      38.223   5.651  15.623  0.00  0.00    +0.000 A 
ATOM      3  C   UNL     1      37.262   5.142  14.784  0.00  0.00    +0.000 A 
ATOM      4  C   UNL     1      36.607   3.983  15.199  0.00  0.00    +0.000 A 
ATOM      5  C   UNL     1      35.624   3.456  14.382  0.00  0.00    +0.000 A 
ATOM      6  C   UNL     1      34.952   2.306  14.801  0.00  0.00    +0.000 A 
ATOM      7  C   UNL     1      35.274   1.718  16.015  0.00  0.00    +0.000 A 
ATOM      8  C   UNL     1      36.255   2.232  16.845  0.00  0.00    +0.000 A 
ATOM      9  C   UNL     1      36.920   3.388  16.403  0.00  0.00    +0.000 A 
ATOM     10  N   UNL     1      37.881   3.950  17.180  0.00  0.00    +0.000 NA
ENDROOT
BRANCH   1  14
ATOM     11  C   UNL     1      41.552   6.710  19.324  0.00  0.00    +0.000 A 
ATOM     12  C   UNL     1      40.355   6.320  19.866  0.00  0.00    +0.000 A 
ATOM     13  C   UNL     1      39.381   5.784  19.021  0.00  0.00    +0.000 A 
ATOM     14  C   UNL     1      39.569   5.636  17.691  0.00  0.00    +0.000 A 
ATOM     15  C   UNL     1      40.778   6.032  17.152  0.00  0.00    +0.000 A 
ATOM     16  C   UNL     1      41.804   6.578  17.938  0.00  0.00    +0.000 A 
BRANCH  11  17
ATOM     17  O   UNL     1      42.571   7.248  20.083  0.00  0.00    +0.000 OA
BRANCH  17  19
ATOM     18  C   UNL     1      43.674   5.639  21.565  0.00  0.00    +0.000 C 
ATOM     19  C   UNL     1      43.773   6.610  20.395  0.00  0.00    +0.000 C 
ENDBRANCH  17  19
ENDBRANCH  11  17
ENDBRANCH   1  14
BRANCH   3  20
ATOM     20  C   UNL     1      36.933   5.724  13.470  0.00  0.00    +0.000 C 
ATOM     21  O   UNL     1      35.959   6.565  13.460  0.00  0.00    +0.000 OA
ATOM     22  N   UNL     1      37.563   5.466  12.266  0.00  0.00    +0.000 NA
BRANCH  22  23
ATOM     23  C   UNL     1      37.299   5.983  10.985  0.00  0.00    +0.000 C 
BRANCH  23  24
ATOM     24  C   UNL     1      36.763   5.032  10.000  0.00  0.00    +0.000 A 
ATOM     25  C   UNL     1      37.089   3.712  10.032  0.00  0.00    +0.000 A 
ATOM     26  C   UNL     1      36.636   2.769   9.094  0.00  0.00    +0.000 A 
ATOM     27  C   UNL     1      35.801   3.206   8.068  0.00  0.00    +0.000 A 
ATOM     28  C   UNL     1      35.466   4.528   8.029  0.00  0.00    +0.000 A 
ATOM     29  C   UNL     1      35.927   5.443   8.971  0.00  0.00    +0.000 A 
BRANCH  29  30
ATOM     30  O   UNL     1      35.576   6.778   8.917  0.00  0.00    +0.000 OA
ATOM     31  C   UNL     1      34.184   7.089   8.734  0.00  0.00    +0.000 C 
ENDBRANCH  29  30
ENDBRANCH  23  24
ENDBRANCH  22  23
ENDBRANCH   3  20
TORSDOF 7
ENDMDL
MODEL 7
REMARK VINA RESULT:      -7.2      2.820      5.287
REMARK  Name = 
REMARK  7 active torsions:
REMARK  status: ('A' for Active; 'I' for Inactive)
REMARK    1  A    between atoms: C_2  and  O_3
REMARK    2  A    between atoms: O_3  and  C_4
REMARK    3  A    between atoms: C_7  and  C_8
REMARK    4  A    between atoms: C_10  and  C_11
REMARK    5  A    between atoms: N_13  and  C_14
REMARK    6  A    between atoms: C_14  and  C_15
REMARK    7  A    between atoms: C_20  and  O_21
REMARK                            x       y       z     vdW  Elec       q    Type
REMARK                         _______ _______ _______ _____ _____    ______ ____
ROOT
ATOM      1  C   UNL     1      41.669   6.816  19.926  0.00  0.00    +0.000 A 
ATOM      2  C   UNL     1      40.977   6.000  19.041  0.00  0.00    +0.000 A 
ATOM      3  C   UNL     1      39.675   6.230  18.672  0.00  0.00    +0.000 A 
ATOM      4  C   UNL     1      39.043   7.340  19.232  0.00  0.00    +0.000 A 
ATOM      5  C   UNL     1      37.736   7.606  18.867  0.00  0.00    +0.000 A 
ATOM      6  C   UNL     1      37.105   8.727  19.410  0.00  0.00    +0.000 A 
ATOM      7  C   UNL     1      37.789   9.548  20.293  0.00  0.00    +0.000 A 
ATOM      8  C   UNL     1      39.097   9.297  20.670  0.00  0.00    +0.000 A 
ATOM      9  C   UNL     1      39.712   8.163  20.113  0.00  0.00    +0.000 A 
ATOM     10  N   UNL     1      41.000   7.873  20.430  0.00  0.00    +0.000 NA
ENDROOT
BRANCH   1  14
ATOM     11  C   UNL     1      45.675   6.019  21.015  0.00  0.00    +0.000 A 
ATOM     12  C   UNL     1      45.405   6.678  19.844  0.00  0.00    +0.000 A 
ATOM     13  C   UNL     1      44.072   6.924  19.508  0.00  0.00    +0.000 A 
ATOM     14  C   UNL     1      43.038   6.539  20.288  0.00  0.00    +0.000 A 
ATOM     15  C   UNL     1      43.319   5.876  21.466  0.00  0.00    +0.000 A 
ATOM     16  C   UNL     1      44.631   5.592  21.871  0.00  0.00    +0.000 A 
BRANCH  11  17
ATOM     17  O   UNL     1      46.961   5.734  21.428  0.00  0.00    +0.000 OA
BRANCH  17  19
ATOM     18  C   UNL     1      47.397   3.429  20.725  0.00  0.00    +0.000 C 
ATOM     19  C   UNL     1      47.425   4.479  21.827  0.00  0.00    +0.000 C 
ENDBRANCH  17  19
ENDBRANCH  11  17
ENDBRANCH   1  14
BRANCH   3  20
ATOM     20  C   UNL     1      38.913   5.348  17.769  0.00  0.00    +0.000 C 
ATOM     21  O   UNL     1      38.501   4.244  18.285  0.00  0.00    +0.000 OA
ATOM     22  N   UNL     1      38.595   5.590  16.445  0.00  0.00    +0.000 NA
BRANCH  22  23
ATOM     23  C   UNL     1      37.878   4.795  15.534  0.00  0.00    +0.000 C 
BRANCH  23  24
ATOM     24  C   UNL     1      38.629   3.705  14.893  0.00  0.00    +0.000 A 
ATOM     25  C   UNL     1      39.648   3.953  14.028  0.00  0.00    +0.000 A 
ATOM     26  C   UNL     1      40.372   2.952  13.359  0.00  0.00    +0.000 A 
ATOM     27  C   UNL     1      40.031   1.622  13.595  0.00  0.00    +0.000 A 
ATOM     28  C   UNL     1      39.011   1.362  14.463  0.00  0.00    +0.000 A 
ATOM     29  C   UNL     1      38.309   2.373  15.113  0.00  0.00    +0.000 A 
BRANCH  29  30
ATOM     30  O   UNL     1      37.280   2.091  15.992  0.00  0.00    +0.000 OA
ATOM     31  C   UNL     1      36.094   1.486  15.449  0.00  0.00    +0.000 C 
ENDBRANCH  29  30
ENDBRANCH  23  24
ENDBRANCH  22  23
ENDBRANCH   3  20
TORSDOF 7
ENDMDL
MODEL 8
REMARK VINA RESULT:      -7.2     22.650     25.535
REMARK  Name = 
REMARK  7 active torsions:
REMARK  status: ('A' for Active; 'I' for Inactive)
REMARK    1  A    between atoms: C_2  and  O_3
REMARK    2  A    between atoms: O_3  and  C_4
REMARK    3  A    between atoms: C_7  and  C_8
REMARK    4  A    between atoms: C_10  and  C_11
REMARK    5  A    between atoms: N_13  and  C_14
REMARK    6  A    between atoms: C_14  and  C_15
REMARK    7  A    between atoms: C_20  and  O_21
REMARK                            x       y       z     vdW  Elec       q    Type
REMARK                         _______ _______ _______ _____ _____    ______ ____
ROOT
ATOM      1  C   UNL     1      15.609  -1.869   6.158  0.00  0.00    +0.000 A 
ATOM      2  C   UNL     1      16.115  -3.162   6.166  0.00  0.00    +0.000 A 
ATOM      3  C   UNL     1      15.618  -4.156   6.973  0.00  0.00    +0.000 A 
ATOM      4  C   UNL     1      14.559  -3.820   7.815  0.00  0.00    +0.000 A 
ATOM      5  C   UNL     1      14.029  -4.805   8.627  0.00  0.00    +0.000 A 
ATOM      6  C   UNL     1      12.955  -4.479   9.459  0.00  0.00    +0.000 A 
ATOM      7  C   UNL     1      12.442  -3.191   9.456  0.00  0.00    +0.000 A 
ATOM      8  C   UNL     1      12.961  -2.193   8.650  0.00  0.00    +0.000 A 
ATOM      9  C   UNL     1      14.042  -2.542   7.823  0.00  0.00    +0.000 A 
ATOM     10  N   UNL     1      14.584  -1.612   6.996  0.00  0.00    +0.000 NA
ENDROOT
BRANCH   1  14
ATOM     11  C   UNL     1      17.232   1.124   3.653  0.00  0.00    +0.000 A 
ATOM     12  C   UNL     1      15.930   0.729   3.488  0.00  0.00    +0.000 A 
ATOM     13  C   UNL     1      15.421  -0.265   4.327  0.00  0.00    +0.000 A 
ATOM     14  C   UNL     1      16.159  -0.853   5.294  0.00  0.00    +0.000 A 
ATOM     15  C   UNL     1      17.470  -0.449   5.455  0.00  0.00    +0.000 A 
ATOM     16  C   UNL     1      18.051   0.542   4.650  0.00  0.00    +0.000 A 
BRANCH  11  17
ATOM     17  O   UNL     1      17.817   2.099   2.871  0.00  0.00    +0.000 OA
BRANCH  17  19
ATOM     18  C   UNL     1      19.865   1.544   1.646  0.00  0.00    +0.000 C 
ATOM     19  C   UNL     1      18.383   1.896   1.611  0.00  0.00    +0.000 C 
ENDBRANCH  17  19
ENDBRANCH  11  17
ENDBRANCH   1  14
BRANCH   3  20
ATOM     20  C   UNL     1      16.175  -5.520   7.025  0.00  0.00    +0.000 C 
ATOM     21  O   UNL     1      15.804  -6.311   6.079  0.00  0.00    +0.000 OA
ATOM     22  N   UNL     1      17.050  -6.025   7.969  0.00  0.00    +0.000 NA
BRANCH  22  23
ATOM     23  C   UNL     1      17.614  -7.308   8.076  0.00  0.00    +0.000 C 
BRANCH  23  24
ATOM     24  C   UNL     1      18.843  -7.412   8.879  0.00  0.00    +0.000 A 
ATOM     25  C   UNL     1      19.019  -6.677  10.009  0.00  0.00    +0.000 A 
ATOM     26  C   UNL     1      20.186  -6.708  10.791  0.00  0.00    +0.000 A 
ATOM     27  C   UNL     1      21.228  -7.542  10.389  0.00  0.00    +0.000 A 
ATOM     28  C   UNL     1      21.060  -8.284   9.257  0.00  0.00    +0.000 A 
ATOM     29  C   UNL     1      19.893  -8.236   8.500  0.00  0.00    +0.000 A 
BRANCH  29  30
ATOM     30  O   UNL     1      19.739  -8.997   7.357  0.00  0.00    +0.000 OA
ATOM     31  C   UNL     1      20.918  -9.273   6.582  0.00  0.00    +0.000 C 
ENDBRANCH  29  30
ENDBRANCH  23  24
ENDBRANCH  22  23
ENDBRANCH   3  20
TORSDOF 7
ENDMDL
MODEL 9
REMARK VINA RESULT:      -7.1      3.042      5.030
REMARK  Name = 
REMARK  7 active torsions:
REMARK  status: ('A' for Active; 'I' for Inactive)
REMARK    1  A    between atoms: C_2  and  O_3
REMARK    2  A    between atoms: O_3  and  C_4
REMARK    3  A    between atoms: C_7  and  C_8
REMARK    4  A    between atoms: C_10  and  C_11
REMARK    5  A    between atoms: N_13  and  C_14
REMARK    6  A    between atoms: C_14  and  C_15
REMARK    7  A    between atoms: C_20  and  O_21
REMARK                            x       y       z     vdW  Elec       q    Type
REMARK                         _______ _______ _______ _____ _____    ______ ____
ROOT
ATOM      1  C   UNL     1      37.817   3.635  16.654  0.00  0.00    +0.000 A 
ATOM      2  C   UNL     1      38.318   3.203  15.433  0.00  0.00    +0.000 A 
ATOM      3  C   UNL     1      37.922   2.033  14.833  0.00  0.00    +0.000 A 
ATOM      4  C   UNL     1      36.974   1.263  15.507  0.00  0.00    +0.000 A 
ATOM      5  C   UNL     1      36.545   0.088  14.919  0.00  0.00    +0.000 A 
ATOM      6  C   UNL     1      35.582  -0.677  15.580  0.00  0.00    +0.000 A 
ATOM      7  C   UNL     1      35.074  -0.252  16.799  0.00  0.00    +0.000 A 
ATOM      8  C   UNL     1      35.493   0.922  17.401  0.00  0.00    +0.000 A 
ATOM      9  C   UNL     1      36.464   1.675  16.720  0.00  0.00    +0.000 A 
ATOM     10  N   UNL     1      36.902   2.845  17.251  0.00  0.00    +0.000 NA
ENDROOT
BRANCH   1  14
ATOM     11  C   UNL     1      39.129   7.267  18.373  0.00  0.00    +0.000 A 
ATOM     12  C   UNL     1      39.276   6.093  19.065  0.00  0.00    +0.000 A 
ATOM     13  C   UNL     1      38.829   4.909  18.474  0.00  0.00    +0.000 A 
ATOM     14  C   UNL     1      38.259   4.872  17.250  0.00  0.00    +0.000 A 
ATOM     15  C   UNL     1      38.115   6.060  16.559  0.00  0.00    +0.000 A 
ATOM     16  C   UNL     1      38.538   7.289  17.087  0.00  0.00    +0.000 A 
BRANCH  11  17
ATOM     17  O   UNL     1      39.542   8.483  18.879  0.00  0.00    +0.000 OA
BRANCH  17  19
ATOM     18  C   UNL     1      37.789   9.143  20.457  0.00  0.00    +0.000 C 
ATOM     19  C   UNL     1      39.272   8.962  20.162  0.00  0.00    +0.000 C 
ENDBRANCH  17  19
ENDBRANCH  11  17
ENDBRANCH   1  14
BRANCH   3  20
ATOM     20  C   UNL     1      38.478   1.538  13.561  0.00  0.00    +0.000 C 
ATOM     21  O   UNL     1      37.846   1.897  12.499  0.00  0.00    +0.000 OA
ATOM     22  N   UNL     1      39.600   0.747  13.396  0.00  0.00    +0.000 NA
BRANCH  22  23
ATOM     23  C   UNL     1      40.180   0.243  12.219  0.00  0.00    +0.000 C 
BRANCH  23  24
ATOM     24  C   UNL     1      41.030  -0.948  12.373  0.00  0.00    +0.000 A 
ATOM     25  C   UNL     1      42.380  -0.849  12.493  0.00  0.00    +0.000 A 
ATOM     26  C   UNL     1      43.242  -1.953  12.604  0.00  0.00    +0.000 A 
ATOM     27  C   UNL     1      42.683  -3.230  12.592  0.00  0.00    +0.000 A 
ATOM     28  C   UNL     1      41.328  -3.340  12.474  0.00  0.00    +0.000 A 
ATOM     29  C   UNL     1      40.496  -2.229  12.366  0.00  0.00    +0.000 A 
BRANCH  29  30
ATOM     30  O   UNL     1      39.125  -2.358  12.250  0.00  0.00    +0.000 OA
ATOM     31  C   UNL     1      38.408  -2.856  13.394  0.00  0.00    +0.000 C 
ENDBRANCH  29  30
ENDBRANCH  23  24
ENDBRANCH  22  23
ENDBRANCH   3  20
TORSDOF 7
ENDMDL
MODEL 10
REMARK VINA RESULT:      -7.1      4.675     10.312
REMARK  Name = 
REMARK  7 active torsions:
REMARK  status: ('A' for Active; 'I' for Inactive)
REMARK    1  A    between atoms: C_2  and  O_3
REMARK    2  A    between atoms: O_3  and  C_4
REMARK    3  A    between atoms: C_7  and  C_8
REMARK    4  A    between atoms: C_10  and  C_11
REMARK    5  A    between atoms: N_13  and  C_14
REMARK    6  A    between atoms: C_14  and  C_15
REMARK    7  A    between atoms: C_20  and  O_21
REMARK                            x       y       z     vdW  Elec       q    Type
REMARK                         _______ _______ _______ _____ _____    ______ ____
ROOT
ATOM      1  C   UNL     1      42.723   6.967  20.291  0.00  0.00    +0.000 A 
ATOM      2  C   UNL     1      43.104   6.148  21.344  0.00  0.00    +0.000 A 
ATOM      3  C   UNL     1      44.095   6.484  22.234  0.00  0.00    +0.000 A 
ATOM      4  C   UNL     1      44.730   7.710  22.042  0.00  0.00    +0.000 A 
ATOM      5  C   UNL     1      45.721   8.082  22.932  0.00  0.00    +0.000 A 
ATOM      6  C   UNL     1      46.347   9.318  22.757  0.00  0.00    +0.000 A 
ATOM      7  C   UNL     1      45.970  10.144  21.709  0.00  0.00    +0.000 A 
ATOM      8  C   UNL     1      44.981   9.788  20.809  0.00  0.00    +0.000 A 
ATOM      9  C   UNL     1      44.366   8.540  21.003  0.00  0.00    +0.000 A 
ATOM     10  N   UNL     1      43.376   8.140  20.164  0.00  0.00    +0.000 NA
ENDROOT
BRANCH   1  14
ATOM     11  C   UNL     1      39.662   5.850  17.598  0.00  0.00    +0.000 A 
ATOM     12  C   UNL     1      39.404   5.890  18.943  0.00  0.00    +0.000 A 
ATOM     13  C   UNL     1      40.436   6.259  19.810  0.00  0.00    +0.000 A 
ATOM     14  C   UNL     1      41.676   6.577  19.378  0.00  0.00    +0.000 A 
ATOM     15  C   UNL     1      41.927   6.534  18.020  0.00  0.00    +0.000 A 
ATOM     16  C   UNL     1      40.943   6.172  17.088  0.00  0.00    +0.000 A 
BRANCH  11  17
ATOM     17  O   UNL     1      38.704   5.498  16.668  0.00  0.00    +0.000 OA
BRANCH  17  19
ATOM     18  C   UNL     1      38.954   3.554  15.200  0.00  0.00    +0.000 C 
ATOM     19  C   UNL     1      38.273   4.197  16.400  0.00  0.00    +0.000 C 
ENDBRANCH  17  19
ENDBRANCH  11  17
ENDBRANCH   1  14
BRANCH   3  20
ATOM     20  C   UNL     1      44.543   5.604  23.329  0.00  0.00    +0.000 C 
ATOM     21  O   UNL     1      45.398   4.700  23.004  0.00  0.00    +0.000 OA
ATOM     22  N   UNL     1      44.148   5.659  24.653  0.00  0.00    +0.000 NA
BRANCH  22  23
ATOM     23  C   UNL     1      44.532   4.855  25.740  0.00  0.00    +0.000 C 
BRANCH  23  24
ATOM     24  C   UNL     1      43.541   4.699  26.814  0.00  0.00    +0.000 A 
ATOM     25  C   UNL     1      42.549   5.609  27.007  0.00  0.00    +0.000 A 
ATOM     26  C   UNL     1      41.600   5.530  28.040  0.00  0.00    +0.000 A 
ATOM     27  C   UNL     1      41.673   4.454  28.922  0.00  0.00    +0.000 A 
ATOM     28  C   UNL     1      42.663   3.533  28.736  0.00  0.00    +0.000 A 
ATOM     29  C   UNL     1      43.591   3.635  27.704  0.00  0.00    +0.000 A 
BRANCH  29  30
ATOM     30  O   UNL     1      44.586   2.692  27.528  0.00  0.00    +0.000 OA
ATOM     31  C   UNL     1      44.727   1.682  28.543  0.00  0.00    +0.000 C 
ENDBRANCH  29  30
ENDBRANCH  23  24
ENDBRANCH  22  23
ENDBRANCH   3  20
TORSDOF 7
ENDMDL
