MODEL 1
REMARK VINA RESULT:      -6.1      0.000      0.000
REMARK  Name = 
REMARK  3 active torsions:
REMARK  status: ('A' for Active; 'I' for Inactive)
REMARK    1  A    between atoms: O_2  and  C_3
REMARK    2  A    between atoms: C_6  and  C_7
REMARK    3  A    between atoms: C_8  and  C_9
REMARK                            x       y       z     vdW  Elec       q    Type
REMARK                         _______ _______ _______ _____ _____    ______ ____
ROOT
ATOM      1  C   UNL     1      28.643  23.114  23.683  0.00  0.00    +0.000 C 
ATOM      2  C   UNL     1      27.191  23.408  24.158  0.00  0.00    +0.000 C 
ATOM      3  C   UNL     1      26.877  23.856  25.317  0.00  0.00    +0.000 C 
ATOM      4  N   UNL     1      25.475  24.072  25.587  0.00  0.00    +0.000 NA
ATOM      5  O   UNL     1      27.787  24.147  26.325  0.00  0.00    +0.000 OA
ATOM      6  C   UNL     1      29.105  23.925  26.016  0.00  0.00    +0.000 C 
ATOM      7  C   UNL     1      29.524  23.486  24.904  0.00  0.00    +0.000 C 
ATOM      8  C   UNL     1      30.991  23.264  24.630  0.00  0.00    +0.000 C 
ATOM      9  C   UNL     1      31.860  23.231  25.823  0.00  0.00    +0.000 C 
ATOM     10  C   UNL     1      31.065  23.058  27.077  0.00  0.00    +0.000 C 
ATOM     11  C   UNL     1      30.093  24.246  27.126  0.00  0.00    +0.000 C 
ENDROOT
BRANCH   1  15
ATOM     12  C   UNL     1      29.272  26.750  21.356  0.00  0.00    +0.000 A 
ATOM     13  C   UNL     1      28.963  26.797  22.700  0.00  0.00    +0.000 A 
ATOM     14  C   UNL     1      28.766  25.655  23.445  0.00  0.00    +0.000 A 
ATOM     15  C   UNL     1      28.876  24.464  22.856  0.00  0.00    +0.000 A 
ATOM     16  C   UNL     1      29.178  24.359  21.537  0.00  0.00    +0.000 A 
ATOM     17  C   UNL     1      29.375  25.497  20.793  0.00  0.00    +0.000 A 
BRANCH  12  19
ATOM     18  C   UNL     1      30.053  27.780  19.322  0.00  0.00    +0.000 C 
ATOM     19  O   UNL     1      29.471  27.914  20.606  0.00  0.00    +0.000 OA
ENDBRANCH  12  19
ENDBRANCH   1  15
BRANCH   2  20
ATOM     20  C   UNL     1      26.196  23.131  23.168  0.00  0.00    +0.000 C 
ATOM     21  N   UNL     1      25.390  22.907  22.338  0.00  0.00    +0.000 NA
ENDBRANCH   2  20
TORSDOF 3
ENDMDL
MODEL 2
REMARK VINA RESULT:      -6.1     21.421     24.031
REMARK  Name = 
REMARK  3 active torsions:
REMARK  status: ('A' for Active; 'I' for Inactive)
REMARK    1  A    between atoms: O_2  and  C_3
REMARK    2  A    between atoms: C_6  and  C_7
REMARK    3  A    between atoms: C_8  and  C_9
REMARK                            x       y       z     vdW  Elec       q    Type
REMARK                         _______ _______ _______ _____ _____    ______ ____
ROOT
ATOM      1  C   UNL     1      18.433  10.815  38.467  0.00  0.00    +0.000 C 
ATOM      2  C   UNL     1      17.576  10.462  37.219  0.00  0.00    +0.000 C 
ATOM      3  C   UNL     1      18.036   9.958  36.135  0.00  0.00    +0.000 C 
ATOM      4  N   UNL     1      17.092   9.692  35.073  0.00  0.00    +0.000 NA
ATOM      5  O   UNL     1      19.372   9.650  35.910  0.00  0.00    +0.000 OA
ATOM      6  C   UNL     1      20.224   9.920  36.950  0.00  0.00    +0.000 C 
ATOM      7  C   UNL     1      19.876  10.417  38.062  0.00  0.00    +0.000 C 
ATOM      8  C   UNL     1      20.868  10.691  39.166  0.00  0.00    +0.000 C 
ATOM      9  C   UNL     1      22.286  10.697  38.754  0.00  0.00    +0.000 C 
ATOM     10  C   UNL     1      22.427  10.796  37.269  0.00  0.00    +0.000 C 
ATOM     11  C   UNL     1      21.684   9.580  36.695  0.00  0.00    +0.000 C 
ENDROOT
BRANCH   1  15
ATOM     12  C   UNL     1      17.466   7.288  40.845  0.00  0.00    +0.000 A 
ATOM     13  C   UNL     1      18.458   7.263  39.886  0.00  0.00    +0.000 A 
ATOM     14  C   UNL     1      18.773   8.372  39.133  0.00  0.00    +0.000 A 
ATOM     15  C   UNL     1      18.105   9.508  39.330  0.00  0.00    +0.000 A 
ATOM     16  C   UNL     1      17.119   9.589  40.260  0.00  0.00    +0.000 A 
ATOM     17  C   UNL     1      16.804   8.484  41.012  0.00  0.00    +0.000 A 
BRANCH  12  19
ATOM     18  C   UNL     1      18.152   5.169  41.766  0.00  0.00    +0.000 C 
ATOM     19  O   UNL     1      17.151   6.157  41.607  0.00  0.00    +0.000 OA
ENDBRANCH  12  19
ENDBRANCH   1  15
BRANCH   2  20
ATOM     20  C   UNL     1      16.183  10.753  37.377  0.00  0.00    +0.000 C 
ATOM     21  N   UNL     1      15.042  11.011  37.512  0.00  0.00    +0.000 NA
ENDBRANCH   2  20
TORSDOF 3
ENDMDL
MODEL 3
REMARK VINA RESULT:      -6.1     13.892     16.606
REMARK  Name = 
REMARK  3 active torsions:
REMARK  status: ('A' for Active; 'I' for Inactive)
REMARK    1  A    between atoms: O_2  and  C_3
REMARK    2  A    between atoms: C_6  and  C_7
REMARK    3  A    between atoms: C_8  and  C_9
REMARK                            x       y       z     vdW  Elec       q    Type
REMARK                         _______ _______ _______ _____ _____    ______ ____
ROOT
ATOM      1  C   UNL     1      32.351  22.029   8.677  0.00  0.00    +0.000 C 
ATOM      2  C   UNL     1      33.519  21.004   8.636  0.00  0.00    +0.000 C 
ATOM      3  C   UNL     1      33.690  20.056   9.480  0.00  0.00    +0.000 C 
ATOM      4  N   UNL     1      34.833  19.193   9.287  0.00  0.00    +0.000 NA
ATOM      5  O   UNL     1      32.856  19.800  10.561  0.00  0.00    +0.000 OA
ATOM      6  C   UNL     1      31.786  20.647  10.697  0.00  0.00    +0.000 C 
ATOM      7  C   UNL     1      31.524  21.613   9.922  0.00  0.00    +0.000 C 
ATOM      8  C   UNL     1      30.327  22.509  10.129  0.00  0.00    +0.000 C 
ATOM      9  C   UNL     1      29.704  22.431  11.465  0.00  0.00    +0.000 C 
ATOM     10  C   UNL     1      30.602  21.759  12.453  0.00  0.00    +0.000 C 
ATOM     11  C   UNL     1      30.880  20.359  11.884  0.00  0.00    +0.000 C 
ENDROOT
BRANCH   1  15
ATOM     12  C   UNL     1      29.829  20.191   5.629  0.00  0.00    +0.000 A 
ATOM     13  C   UNL     1      30.082  19.564   6.832  0.00  0.00    +0.000 A 
ATOM     14  C   UNL     1      30.874  20.137   7.802  0.00  0.00    +0.000 A 
ATOM     15  C   UNL     1      31.416  21.335   7.580  0.00  0.00    +0.000 A 
ATOM     16  C   UNL     1      31.200  21.997   6.414  0.00  0.00    +0.000 A 
ATOM     17  C   UNL     1      30.411  21.426   5.446  0.00  0.00    +0.000 A 
BRANCH  12  19
ATOM     18  C   UNL     1      29.005  18.189   4.570  0.00  0.00    +0.000 C 
ATOM     19  O   UNL     1      29.024  19.603   4.647  0.00  0.00    +0.000 OA
ENDBRANCH  12  19
ENDBRANCH   1  15
BRANCH   2  20
ATOM     20  C   UNL     1      34.422  21.206   7.543  0.00  0.00    +0.000 C 
ATOM     21  N   UNL     1      35.151  21.381   6.635  0.00  0.00    +0.000 NA
ENDBRANCH   2  20
TORSDOF 3
ENDMDL
MODEL 4
REMARK VINA RESULT:      -6.1      2.983      3.957
REMARK  Name = 
REMARK  3 active torsions:
REMARK  status: ('A' for Active; 'I' for Inactive)
REMARK    1  A    between atoms: O_2  and  C_3
REMARK    2  A    between atoms: C_6  and  C_7
REMARK    3  A    between atoms: C_8  and  C_9
REMARK                            x       y       z     vdW  Elec       q    Type
REMARK                         _______ _______ _______ _____ _____    ______ ____
ROOT
ATOM      1  C   UNL     1      27.193  22.602  25.971  0.00  0.00    +0.000 C 
ATOM      2  C   UNL     1      26.255  23.576  25.205  0.00  0.00    +0.000 C 
ATOM      3  C   UNL     1      25.576  24.517  25.749  0.00  0.00    +0.000 C 
ATOM      4  N   UNL     1      24.755  25.330  24.881  0.00  0.00    +0.000 NA
ATOM      5  O   UNL     1      25.576  24.808  27.107  0.00  0.00    +0.000 OA
ATOM      6  C   UNL     1      26.373  24.008  27.884  0.00  0.00    +0.000 C 
ATOM      7  C   UNL     1      27.083  23.053  27.451  0.00  0.00    +0.000 C 
ATOM      8  C   UNL     1      27.939  22.209  28.363  0.00  0.00    +0.000 C 
ATOM      9  C   UNL     1      27.623  22.314  29.802  0.00  0.00    +0.000 C 
ATOM     10  C   UNL     1      26.288  22.948  30.027  0.00  0.00    +0.000 C 
ATOM     11  C   UNL     1      26.365  24.334  29.370  0.00  0.00    +0.000 C 
ENDROOT
BRANCH   1  15
ATOM     12  C   UNL     1      30.991  24.535  25.037  0.00  0.00    +0.000 A 
ATOM     13  C   UNL     1      29.942  25.236  25.598  0.00  0.00    +0.000 A 
ATOM     14  C   UNL     1      28.741  24.633  25.901  0.00  0.00    +0.000 A 
ATOM     15  C   UNL     1      28.578  23.335  25.646  0.00  0.00    +0.000 A 
ATOM     16  C   UNL     1      29.576  22.598  25.093  0.00  0.00    +0.000 A 
ATOM     17  C   UNL     1      30.774  23.197  24.792  0.00  0.00    +0.000 A 
BRANCH  12  19
ATOM     18  C   UNL     1      33.390  24.385  24.868  0.00  0.00    +0.000 C 
ATOM     19  O   UNL     1      32.209  25.153  24.732  0.00  0.00    +0.000 OA
ENDBRANCH  12  19
ENDBRANCH   1  15
BRANCH   2  20
ATOM     20  C   UNL     1      26.205  23.336  23.794  0.00  0.00    +0.000 C 
ATOM     21  N   UNL     1      26.177  23.123  22.636  0.00  0.00    +0.000 NA
ENDBRANCH   2  20
TORSDOF 3
ENDMDL
MODEL 5
REMARK VINA RESULT:      -6.1     20.518     22.813
REMARK  Name = 
REMARK  3 active torsions:
REMARK  status: ('A' for Active; 'I' for Inactive)
REMARK    1  A    between atoms: O_2  and  C_3
REMARK    2  A    between atoms: C_6  and  C_7
REMARK    3  A    between atoms: C_8  and  C_9
REMARK                            x       y       z     vdW  Elec       q    Type
REMARK                         _______ _______ _______ _____ _____    ______ ____
ROOT
ATOM      1  C   UNL     1      18.353   9.201  37.565  0.00  0.00    +0.000 C 
ATOM      2  C   UNL     1      17.327  10.130  36.856  0.00  0.00    +0.000 C 
ATOM      3  C   UNL     1      16.323  10.683  37.429  0.00  0.00    +0.000 C 
ATOM      4  N   UNL     1      15.472  11.519  36.614  0.00  0.00    +0.000 NA
ATOM      5  O   UNL     1      15.999  10.535  38.771  0.00  0.00    +0.000 OA
ATOM      6  C   UNL     1      16.840   9.732  39.499  0.00  0.00    +0.000 C 
ATOM      7  C   UNL     1      17.858   9.140  39.034  0.00  0.00    +0.000 C 
ATOM      8  C   UNL     1      18.743   8.269  39.891  0.00  0.00    +0.000 C 
ATOM      9  C   UNL     1      18.160   7.854  41.183  0.00  0.00    +0.000 C 
ATOM     10  C   UNL     1      16.682   8.075  41.215  0.00  0.00    +0.000 C 
ATOM     11  C   UNL     1      16.476   9.576  40.967  0.00  0.00    +0.000 C 
ENDROOT
BRANCH   1  15
ATOM     12  C   UNL     1      21.545  12.120  38.131  0.00  0.00    +0.000 A 
ATOM     13  C   UNL     1      20.253  12.373  38.546  0.00  0.00    +0.000 A 
ATOM     14  C   UNL     1      19.239  11.456  38.376  0.00  0.00    +0.000 A 
ATOM     15  C   UNL     1      19.505  10.288  37.792  0.00  0.00    +0.000 A 
ATOM     16  C   UNL     1      20.759   9.986  37.365  0.00  0.00    +0.000 A 
ATOM     17  C   UNL     1      21.771  10.899  37.534  0.00  0.00    +0.000 A 
BRANCH  12  19
ATOM     18  C   UNL     1      23.906  12.605  38.166  0.00  0.00    +0.000 C 
ATOM     19  O   UNL     1      22.571  13.055  38.308  0.00  0.00    +0.000 OA
ENDBRANCH  12  19
ENDBRANCH   1  15
BRANCH   2  20
ATOM     20  C   UNL     1      17.598  10.330  35.464  0.00  0.00    +0.000 C 
ATOM     21  N   UNL     1      17.821  10.475  34.317  0.00  0.00    +0.000 NA
ENDBRANCH   2  20
TORSDOF 3
ENDMDL
MODEL 6
REMARK VINA RESULT:      -6.0      2.979      5.818
REMARK  Name = 
REMARK  3 active torsions:
REMARK  status: ('A' for Active; 'I' for Inactive)
REMARK    1  A    between atoms: O_2  and  C_3
REMARK    2  A    between atoms: C_6  and  C_7
REMARK    3  A    between atoms: C_8  and  C_9
REMARK                            x       y       z     vdW  Elec       q    Type
REMARK                         _______ _______ _______ _____ _____    ______ ____
ROOT
ATOM      1  C   UNL     1      27.920  25.107  25.718  0.00  0.00    +0.000 C 
ATOM      2  C   UNL     1      26.861  24.498  24.756  0.00  0.00    +0.000 C 
ATOM      3  C   UNL     1      27.062  23.491  23.990  0.00  0.00    +0.000 C 
ATOM      4  N   UNL     1      25.962  23.057  23.160  0.00  0.00    +0.000 NA
ATOM      5  O   UNL     1      28.259  22.791  23.902  0.00  0.00    +0.000 OA
ATOM      6  C   UNL     1      29.270  23.243  24.711  0.00  0.00    +0.000 C 
ATOM      7  C   UNL     1      29.178  24.227  25.505  0.00  0.00    +0.000 C 
ATOM      8  C   UNL     1      30.332  24.673  26.368  0.00  0.00    +0.000 C 
ATOM      9  C   UNL     1      31.656  24.149  25.975  0.00  0.00    +0.000 C 
ATOM     10  C   UNL     1      31.634  23.584  24.591  0.00  0.00    +0.000 C 
ATOM     11  C   UNL     1      30.576  22.471  24.608  0.00  0.00    +0.000 C 
ENDROOT
BRANCH   1  15
ATOM     12  C   UNL     1      26.496  23.260  29.404  0.00  0.00    +0.000 A 
ATOM     13  C   UNL     1      27.204  22.541  28.463  0.00  0.00    +0.000 A 
ATOM     14  C   UNL     1      27.661  23.116  27.298  0.00  0.00    +0.000 A 
ATOM     15  C   UNL     1      27.416  24.405  27.065  0.00  0.00    +0.000 A 
ATOM     16  C   UNL     1      26.724  25.160  27.957  0.00  0.00    +0.000 A 
ATOM     17  C   UNL     1      26.268  24.588  29.119  0.00  0.00    +0.000 A 
BRANCH  12  19
ATOM     18  C   UNL     1      26.111  21.260  30.693  0.00  0.00    +0.000 C 
ATOM     19  O   UNL     1      26.034  22.670  30.586  0.00  0.00    +0.000 OA
ENDBRANCH  12  19
ENDBRANCH   1  15
BRANCH   2  20
ATOM     20  C   UNL     1      25.597  25.170  24.792  0.00  0.00    +0.000 C 
ATOM     21  N   UNL     1      24.556  25.718  24.842  0.00  0.00    +0.000 NA
ENDBRANCH   2  20
TORSDOF 3
ENDMDL
MODEL 7
REMARK VINA RESULT:      -5.8      3.533      6.844
REMARK  Name = 
REMARK  3 active torsions:
REMARK  status: ('A' for Active; 'I' for Inactive)
REMARK    1  A    between atoms: O_2  and  C_3
REMARK    2  A    between atoms: C_6  and  C_7
REMARK    3  A    between atoms: C_8  and  C_9
REMARK                            x       y       z     vdW  Elec       q    Type
REMARK                         _______ _______ _______ _____ _____    ______ ____
ROOT
ATOM      1  C   UNL     1      28.362  22.435  26.579  0.00  0.00    +0.000 C 
ATOM      2  C   UNL     1      29.723  23.165  26.758  0.00  0.00    +0.000 C 
ATOM      3  C   UNL     1      30.068  24.232  26.139  0.00  0.00    +0.000 C 
ATOM      4  N   UNL     1      31.374  24.776  26.431  0.00  0.00    +0.000 NA
ATOM      5  O   UNL     1      29.276  24.899  25.213  0.00  0.00    +0.000 OA
ATOM      6  C   UNL     1      28.047  24.342  24.974  0.00  0.00    +0.000 C 
ATOM      7  C   UNL     1      27.607  23.292  25.529  0.00  0.00    +0.000 C 
ATOM      8  C   UNL     1      26.241  22.730  25.220  0.00  0.00    +0.000 C 
ATOM      9  C   UNL     1      25.609  23.247  23.989  0.00  0.00    +0.000 C 
ATOM     10  C   UNL     1      26.601  23.939  23.112  0.00  0.00    +0.000 C 
ATOM     11  C   UNL     1      27.188  25.079  23.958  0.00  0.00    +0.000 C 
ENDROOT
BRANCH   1  15
ATOM     12  C   UNL     1      26.380  23.964  30.151  0.00  0.00    +0.000 A 
ATOM     13  C   UNL     1      26.774  24.803  29.129  0.00  0.00    +0.000 A 
ATOM     14  C   UNL     1      27.397  24.330  27.996  0.00  0.00    +0.000 A 
ATOM     15  C   UNL     1      27.630  23.023  27.875  0.00  0.00    +0.000 A 
ATOM     16  C   UNL     1      27.263  22.152  28.850  0.00  0.00    +0.000 A 
ATOM     17  C   UNL     1      26.642  22.623  29.980  0.00  0.00    +0.000 A 
BRANCH  12  19
ATOM     18  C   UNL     1      25.281  25.788  31.280  0.00  0.00    +0.000 C 
ATOM     19  O   UNL     1      25.747  24.452  31.300  0.00  0.00    +0.000 OA
ENDBRANCH  12  19
ENDBRANCH   1  15
BRANCH   2  20
ATOM     20  C   UNL     1      30.594  22.533  27.702  0.00  0.00    +0.000 C 
ATOM     21  N   UNL     1      31.327  22.023  28.471  0.00  0.00    +0.000 NA
ENDBRANCH   2  20
TORSDOF 3
ENDMDL
MODEL 8
REMARK VINA RESULT:      -5.8      2.676      4.152
REMARK  Name = 
REMARK  3 active torsions:
REMARK  status: ('A' for Active; 'I' for Inactive)
REMARK    1  A    between atoms: O_2  and  C_3
REMARK    2  A    between atoms: C_6  and  C_7
REMARK    3  A    between atoms: C_8  and  C_9
REMARK                            x       y       z     vdW  Elec       q    Type
REMARK                         _______ _______ _______ _____ _____    ______ ____
ROOT
ATOM      1  C   UNL     1      29.066  23.501  23.995  0.00  0.00    +0.000 C 
ATOM      2  C   UNL     1      28.584  24.650  23.064  0.00  0.00    +0.000 C 
ATOM      3  C   UNL     1      27.761  25.571  23.405  0.00  0.00    +0.000 C 
ATOM      4  N   UNL     1      27.424  26.562  22.409  0.00  0.00    +0.000 NA
ATOM      5  O   UNL     1      27.173  25.681  24.659  0.00  0.00    +0.000 OA
ATOM      6  C   UNL     1      27.528  24.716  25.566  0.00  0.00    +0.000 C 
ATOM      7  C   UNL     1      28.331  23.765  25.335  0.00  0.00    +0.000 C 
ATOM      8  C   UNL     1      28.679  22.734  26.381  0.00  0.00    +0.000 C 
ATOM      9  C   UNL     1      27.768  22.679  27.542  0.00  0.00    +0.000 C 
ATOM     10  C   UNL     1      26.487  23.399  27.269  0.00  0.00    +0.000 C 
ATOM     11  C   UNL     1      26.880  24.846  26.936  0.00  0.00    +0.000 C 
ENDROOT
BRANCH   1  15
ATOM     12  C   UNL     1      32.858  25.310  25.171  0.00  0.00    +0.000 A 
ATOM     13  C   UNL     1      32.778  23.987  24.783  0.00  0.00    +0.000 A 
ATOM     14  C   UNL     1      31.586  23.408  24.406  0.00  0.00    +0.000 A 
ATOM     15  C   UNL     1      30.472  24.140  24.414  0.00  0.00    +0.000 A 
ATOM     16  C   UNL     1      30.493  25.446  24.786  0.00  0.00    +0.000 A 
ATOM     17  C   UNL     1      31.681  26.025  25.162  0.00  0.00    +0.000 A 
BRANCH  12  19
ATOM     18  C   UNL     1      35.171  25.762  24.669  0.00  0.00    +0.000 C 
ATOM     19  O   UNL     1      34.072  25.892  25.552  0.00  0.00    +0.000 OA
ENDBRANCH  12  19
ENDBRANCH   1  15
BRANCH   2  20
ATOM     20  C   UNL     1      29.150  24.601  21.750  0.00  0.00    +0.000 C 
ATOM     21  N   UNL     1      29.625  24.578  20.673  0.00  0.00    +0.000 NA
ENDBRANCH   2  20
TORSDOF 3
ENDMDL
MODEL 9
REMARK VINA RESULT:      -5.8      3.971      5.736
REMARK  Name = 
REMARK  3 active torsions:
REMARK  status: ('A' for Active; 'I' for Inactive)
REMARK    1  A    between atoms: O_2  and  C_3
REMARK    2  A    between atoms: C_6  and  C_7
REMARK    3  A    between atoms: C_8  and  C_9
REMARK                            x       y       z     vdW  Elec       q    Type
REMARK                         _______ _______ _______ _____ _____    ______ ____
ROOT
ATOM      1  C   UNL     1      27.353  22.551  27.453  0.00  0.00    +0.000 C 
ATOM      2  C   UNL     1      27.885  22.510  28.914  0.00  0.00    +0.000 C 
ATOM      3  C   UNL     1      29.101  22.723  29.256  0.00  0.00    +0.000 C 
ATOM      4  N   UNL     1      29.418  22.645  30.663  0.00  0.00    +0.000 NA
ATOM      5  O   UNL     1      30.130  23.022  28.372  0.00  0.00    +0.000 OA
ATOM      6  C   UNL     1      29.775  23.085  27.049  0.00  0.00    +0.000 C 
ATOM      7  C   UNL     1      28.605  22.893  26.603  0.00  0.00    +0.000 C 
ATOM      8  C   UNL     1      28.282  22.977  25.132  0.00  0.00    +0.000 C 
ATOM      9  C   UNL     1      29.447  22.927  24.225  0.00  0.00    +0.000 C 
ATOM     10  C   UNL     1      30.670  22.435  24.929  0.00  0.00    +0.000 C 
ATOM     11  C   UNL     1      30.908  23.412  26.089  0.00  0.00    +0.000 C 
ENDROOT
BRANCH   1  15
ATOM     12  C   UNL     1      25.588  26.539  27.552  0.00  0.00    +0.000 A 
ATOM     13  C   UNL     1      26.919  26.331  27.852  0.00  0.00    +0.000 A 
ATOM     14  C   UNL     1      27.487  25.077  27.819  0.00  0.00    +0.000 A 
ATOM     15  C   UNL     1      26.734  24.027  27.490  0.00  0.00    +0.000 A 
ATOM     16  C   UNL     1      25.419  24.174  27.187  0.00  0.00    +0.000 A 
ATOM     17  C   UNL     1      24.852  25.424  27.218  0.00  0.00    +0.000 A 
BRANCH  12  19
ATOM     18  C   UNL     1      23.904  28.019  28.437  0.00  0.00    +0.000 C 
ATOM     19  O   UNL     1      25.017  27.817  27.586  0.00  0.00    +0.000 OA
ENDBRANCH  12  19
ENDBRANCH   1  15
BRANCH   2  20
ATOM     20  C   UNL     1      26.876  22.208  29.884  0.00  0.00    +0.000 C 
ATOM     21  N   UNL     1      26.033  21.958  30.667  0.00  0.00    +0.000 NA
ENDBRANCH   2  20
TORSDOF 3
ENDMDL
MODEL 10
REMARK VINA RESULT:      -5.6      1.695      2.289
REMARK  Name = 
REMARK  3 active torsions:
REMARK  status: ('A' for Active; 'I' for Inactive)
REMARK    1  A    between atoms: O_2  and  C_3
REMARK    2  A    between atoms: C_6  and  C_7
REMARK    3  A    between atoms: C_8  and  C_9
REMARK                            x       y       z     vdW  Elec       q    Type
REMARK                         _______ _______ _______ _____ _____    ______ ____
ROOT
ATOM      1  C   UNL     1      27.579  23.755  25.656  0.00  0.00    +0.000 C 
ATOM      2  C   UNL     1      26.995  25.144  26.037  0.00  0.00    +0.000 C 
ATOM      3  C   UNL     1      27.565  25.989  26.814  0.00  0.00    +0.000 C 
ATOM      4  N   UNL     1      26.877  27.236  27.057  0.00  0.00    +0.000 NA
ATOM      5  O   UNL     1      28.791  25.790  27.435  0.00  0.00    +0.000 OA
ATOM      6  C   UNL     1      29.402  24.592  27.169  0.00  0.00    +0.000 C 
ATOM      7  C   UNL     1      28.929  23.688  26.418  0.00  0.00    +0.000 C 
ATOM      8  C   UNL     1      29.655  22.389  26.167  0.00  0.00    +0.000 C 
ATOM      9  C   UNL     1      30.741  22.079  27.118  0.00  0.00    +0.000 C 
ATOM     10  C   UNL     1      30.659  22.930  28.344  0.00  0.00    +0.000 C 
ATOM     11  C   UNL     1      30.744  24.383  27.853  0.00  0.00    +0.000 C 
ENDROOT
BRANCH   1  15
ATOM     12  C   UNL     1      29.160  24.803  21.728  0.00  0.00    +0.000 A 
ATOM     13  C   UNL     1      29.490  25.527  22.855  0.00  0.00    +0.000 A 
ATOM     14  C   UNL     1      28.999  25.202  24.101  0.00  0.00    +0.000 A 
ATOM     15  C   UNL     1      28.180  24.158  24.229  0.00  0.00    +0.000 A 
ATOM     16  C   UNL     1      27.823  23.411  23.153  0.00  0.00    +0.000 A 
ATOM     17  C   UNL     1      28.312  23.734  21.910  0.00  0.00    +0.000 A 
BRANCH  12  19
ATOM     18  C   UNL     1      29.674  26.507  20.103  0.00  0.00    +0.000 C 
ATOM     19  O   UNL     1      29.662  25.139  20.465  0.00  0.00    +0.000 OA
ENDBRANCH  12  19
ENDBRANCH   1  15
BRANCH   2  20
ATOM     20  C   UNL     1      25.727  25.420  25.432  0.00  0.00    +0.000 C 
ATOM     21  N   UNL     1      24.694  25.648  24.915  0.00  0.00    +0.000 NA
ENDBRANCH   2  20
TORSDOF 3
ENDMDL
