MODEL 1
REMARK VINA RESULT:      -5.9      0.000      0.000
REMARK  Name = 
REMARK  10 active torsions:
REMARK  status: ('A' for Active; 'I' for Inactive)
REMARK    1  A    between atoms: C_2  and  C_3
REMARK    2  A    between atoms: C_8  and  N_9
REMARK    3  A    between atoms: C_10  and  C_12
REMARK    4  A    between atoms: C_12  and  O_13
REMARK    5  A    between atoms: O_13  and  C_14
REMARK    6  A    between atoms: C_14  and  C_16
REMARK    7  A    between atoms: C_16  and  C_17
REMARK    8  A    between atoms: C_17  and  C_18
REMARK    9  A    between atoms: C_18  and  O_19
REMARK   10  A    between atoms: O_19  and  C_20
REMARK                            x       y       z     vdW  Elec       q    Type
REMARK                         _______ _______ _______ _____ _____    ______ ____
ROOT
ATOM      1  C   UNL     1      37.592  -1.766  19.377  0.00  0.00    +0.000 C 
ATOM      2  O   UNL     1      36.874  -2.050  20.348  0.00  0.00    +0.000 OA
ENDROOT
BRANCH   1   3
ATOM      3  O   UNL     1      37.495  -0.467  18.849  0.00  0.00    +0.000 OA
BRANCH   3   4
ATOM      4  C   UNL     1      36.207  -0.008  18.477  0.00  0.00    +0.000 C 
BRANCH   4   6
ATOM      5  N   UNL     1      37.385   0.425  16.263  0.00  0.00    +0.000 NA
ATOM      6  C   UNL     1      36.169   0.241  17.016  0.00  0.00    +0.000 C 
ATOM      7  O   UNL     1      35.102   0.312  16.337  0.00  0.00    +0.000 OA
BRANCH   5  13
ATOM      8  C   UNL     1      37.513   1.966  14.440  0.00  0.00    +0.000 A 
ATOM      9  C   UNL     1      37.473   2.327  13.087  0.00  0.00    +0.000 A 
ATOM     10  C   UNL     1      37.239   1.351  12.158  0.00  0.00    +0.000 A 
ATOM     11  C   UNL     1      37.050   0.054  12.561  0.00  0.00    +0.000 A 
ATOM     12  C   UNL     1      37.092  -0.297  13.914  0.00  0.00    +0.000 A 
ATOM     13  C   UNL     1      37.326   0.668  14.865  0.00  0.00    +0.000 A 
BRANCH   8  15
ATOM     14  C   UNL     1      39.069   3.749  15.048  0.00  0.00    +0.000 C 
ATOM     15  C   UNL     1      37.771   3.040  15.440  0.00  0.00    +0.000 C 
ENDBRANCH   8  15
ENDBRANCH   5  13
ENDBRANCH   4   6
ENDBRANCH   3   4
ENDBRANCH   1   3
BRANCH   1  16
ATOM     16  C   UNL     1      38.556  -2.739  18.744  0.00  0.00    +0.000 C 
BRANCH  16  17
ATOM     17  C   UNL     1      38.447  -2.784  17.273  0.00  0.00    +0.000 C 
BRANCH  17  18
ATOM     18  C   UNL     1      39.385  -3.636  16.553  0.00  0.00    +0.000 C 
BRANCH  18  19
ATOM     19  O   UNL     1      40.301  -3.157  15.703  0.00  0.00    +0.000 OA
BRANCH  19  20
ATOM     20  C   UNL     1      40.360  -2.393  14.600  0.00  0.00    +0.000 A 
ATOM     21  C   UNL     1      40.093  -2.907  13.357  0.00  0.00    +0.000 A 
ATOM     22  C   UNL     1      40.159  -2.117  12.241  0.00  0.00    +0.000 A 
ATOM     23  C   UNL     1      40.494  -0.765  12.291  0.00  0.00    +0.000 A 
ATOM     24  C   UNL     1      40.547   0.001  11.146  0.00  0.00    +0.000 A 
ATOM     25  C   UNL     1      40.884   1.337  11.277  0.00  0.00    +0.000 A 
ATOM     26  C   UNL     1      41.161   1.892  12.524  0.00  0.00    +0.000 A 
ATOM     27  C   UNL     1      41.096   1.091  13.633  0.00  0.00    +0.000 A 
ATOM     28  C   UNL     1      40.759  -0.264  13.547  0.00  0.00    +0.000 A 
ATOM     29  C   UNL     1      40.701  -1.034  14.674  0.00  0.00    +0.000 A 
ENDBRANCH  19  20
ENDBRANCH  18  19
ENDBRANCH  17  18
ENDBRANCH  16  17
ENDBRANCH   1  16
TORSDOF 10
ENDMDL
MODEL 2
REMARK VINA RESULT:      -5.8      3.579      6.904
REMARK  Name = 
REMARK  10 active torsions:
REMARK  status: ('A' for Active; 'I' for Inactive)
REMARK    1  A    between atoms: C_2  and  C_3
REMARK    2  A    between atoms: C_8  and  N_9
REMARK    3  A    between atoms: C_10  and  C_12
REMARK    4  A    between atoms: C_12  and  O_13
REMARK    5  A    between atoms: O_13  and  C_14
REMARK    6  A    between atoms: C_14  and  C_16
REMARK    7  A    between atoms: C_16  and  C_17
REMARK    8  A    between atoms: C_17  and  C_18
REMARK    9  A    between atoms: C_18  and  O_19
REMARK   10  A    between atoms: O_19  and  C_20
REMARK                            x       y       z     vdW  Elec       q    Type
REMARK                         _______ _______ _______ _____ _____    ______ ____
ROOT
ATOM      1  C   UNL     1      35.247   1.997  15.812  0.00  0.00    +0.000 C 
ATOM      2  O   UNL     1      35.134   1.884  14.582  0.00  0.00    +0.000 OA
ENDROOT
BRANCH   1   3
ATOM      3  O   UNL     1      34.448   1.171  16.621  0.00  0.00    +0.000 OA
BRANCH   3   4
ATOM      4  C   UNL     1      35.108   0.349  17.568  0.00  0.00    +0.000 C 
BRANCH   4   6
ATOM      5  N   UNL     1      37.484  -0.434  17.103  0.00  0.00    +0.000 NA
ATOM      6  C   UNL     1      36.065  -0.544  16.873  0.00  0.00    +0.000 C 
ATOM      7  O   UNL     1      35.723  -1.444  16.049  0.00  0.00    +0.000 OA
BRANCH   5  13
ATOM      8  C   UNL     1      38.970  -0.818  15.270  0.00  0.00    +0.000 A 
ATOM      9  C   UNL     1      39.870  -1.579  14.513  0.00  0.00    +0.000 A 
ATOM     10  C   UNL     1      40.174  -2.844  14.937  0.00  0.00    +0.000 A 
ATOM     11  C   UNL     1      39.602  -3.337  16.081  0.00  0.00    +0.000 A 
ATOM     12  C   UNL     1      38.704  -2.570  16.831  0.00  0.00    +0.000 A 
ATOM     13  C   UNL     1      38.384  -1.297  16.422  0.00  0.00    +0.000 A 
BRANCH   8  15
ATOM     14  C   UNL     1      37.996   0.441  13.417  0.00  0.00    +0.000 C 
ATOM     15  C   UNL     1      38.650   0.557  14.796  0.00  0.00    +0.000 C 
ENDBRANCH   8  15
ENDBRANCH   5  13
ENDBRANCH   4   6
ENDBRANCH   3   4
ENDBRANCH   1   3
BRANCH   1  16
ATOM     16  C   UNL     1      36.194   2.968  16.472  0.00  0.00    +0.000 C 
BRANCH  16  17
ATOM     17  C   UNL     1      36.761   3.952  15.530  0.00  0.00    +0.000 C 
BRANCH  17  18
ATOM     18  C   UNL     1      38.194   4.211  15.605  0.00  0.00    +0.000 C 
BRANCH  18  19
ATOM     19  O   UNL     1      38.706   5.322  16.147  0.00  0.00    +0.000 OA
BRANCH  19  20
ATOM     20  C   UNL     1      39.487   5.680  17.179  0.00  0.00    +0.000 A 
ATOM     21  C   UNL     1      39.004   5.727  18.461  0.00  0.00    +0.000 A 
ATOM     22  C   UNL     1      39.811   6.096  19.504  0.00  0.00    +0.000 A 
ATOM     23  C   UNL     1      41.151   6.441  19.336  0.00  0.00    +0.000 A 
ATOM     24  C   UNL     1      41.935   6.804  20.410  0.00  0.00    +0.000 A 
ATOM     25  C   UNL     1      43.257   7.130  20.164  0.00  0.00    +0.000 A 
ATOM     26  C   UNL     1      43.782   7.093  18.874  0.00  0.00    +0.000 A 
ATOM     27  C   UNL     1      42.963   6.726  17.839  0.00  0.00    +0.000 A 
ATOM     28  C   UNL     1      41.622   6.389  18.042  0.00  0.00    +0.000 A 
ATOM     29  C   UNL     1      40.834   6.025  16.986  0.00  0.00    +0.000 A 
ENDBRANCH  19  20
ENDBRANCH  18  19
ENDBRANCH  17  18
ENDBRANCH  16  17
ENDBRANCH   1  16
TORSDOF 10
ENDMDL
MODEL 3
REMARK VINA RESULT:      -5.4      3.801      7.348
REMARK  Name = 
REMARK  10 active torsions:
REMARK  status: ('A' for Active; 'I' for Inactive)
REMARK    1  A    between atoms: C_2  and  C_3
REMARK    2  A    between atoms: C_8  and  N_9
REMARK    3  A    between atoms: C_10  and  C_12
REMARK    4  A    between atoms: C_12  and  O_13
REMARK    5  A    between atoms: O_13  and  C_14
REMARK    6  A    between atoms: C_14  and  C_16
REMARK    7  A    between atoms: C_16  and  C_17
REMARK    8  A    between atoms: C_17  and  C_18
REMARK    9  A    between atoms: C_18  and  O_19
REMARK   10  A    between atoms: O_19  and  C_20
REMARK                            x       y       z     vdW  Elec       q    Type
REMARK                         _______ _______ _______ _____ _____    ______ ____
ROOT
ATOM      1  C   UNL     1      35.690   1.274  15.810  0.00  0.00    +0.000 C 
ATOM      2  O   UNL     1      35.589   1.568  14.610  0.00  0.00    +0.000 OA
ENDROOT
BRANCH   1   3
ATOM      3  O   UNL     1      35.147   0.048  16.231  0.00  0.00    +0.000 OA
BRANCH   3   4
ATOM      4  C   UNL     1      36.014  -0.857  16.894  0.00  0.00    +0.000 C 
BRANCH   4   6
ATOM      5  N   UNL     1      38.489  -0.986  16.317  0.00  0.00    +0.000 NA
ATOM      6  C   UNL     1      37.112  -1.254  15.982  0.00  0.00    +0.000 C 
ATOM      7  O   UNL     1      36.936  -1.840  14.872  0.00  0.00    +0.000 OA
BRANCH   5  13
ATOM      8  C   UNL     1      40.009  -0.409  14.565  0.00  0.00    +0.000 A 
ATOM      9  C   UNL     1      41.027  -0.672  13.639  0.00  0.00    +0.000 A 
ATOM     10  C   UNL     1      41.559  -1.932  13.594  0.00  0.00    +0.000 A 
ATOM     11  C   UNL     1      41.092  -2.901  14.444  0.00  0.00    +0.000 A 
ATOM     12  C   UNL     1      40.075  -2.630  15.364  0.00  0.00    +0.000 A 
ATOM     13  C   UNL     1      39.526  -1.370  15.427  0.00  0.00    +0.000 A 
BRANCH   8  15
ATOM     14  C   UNL     1      38.869   1.281  13.219  0.00  0.00    +0.000 C 
ATOM     15  C   UNL     1      39.442   0.968  14.602  0.00  0.00    +0.000 C 
ENDBRANCH   8  15
ENDBRANCH   5  13
ENDBRANCH   4   6
ENDBRANCH   3   4
ENDBRANCH   1   3
BRANCH   1  16
ATOM     16  C   UNL     1      36.362   2.161  16.829  0.00  0.00    +0.000 C 
BRANCH  16  17
ATOM     17  C   UNL     1      36.495   3.560  16.377  0.00  0.00    +0.000 C 
BRANCH  17  18
ATOM     18  C   UNL     1      37.745   3.946  15.736  0.00  0.00    +0.000 C 
BRANCH  18  19
ATOM     19  O   UNL     1      38.652   4.736  16.323  0.00  0.00    +0.000 OA
BRANCH  19  20
ATOM     20  C   UNL     1      38.744   5.572  17.370  0.00  0.00    +0.000 A 
ATOM     21  C   UNL     1      39.567   5.300  18.433  0.00  0.00    +0.000 A 
ATOM     22  C   UNL     1      39.649   6.161  19.495  0.00  0.00    +0.000 A 
ATOM     23  C   UNL     1      38.919   7.345  19.567  0.00  0.00    +0.000 A 
ATOM     24  C   UNL     1      39.030   8.189  20.651  0.00  0.00    +0.000 A 
ATOM     25  C   UNL     1      38.275   9.349  20.647  0.00  0.00    +0.000 A 
ATOM     26  C   UNL     1      37.429   9.656  19.584  0.00  0.00    +0.000 A 
ATOM     27  C   UNL     1      37.352   8.786  18.530  0.00  0.00    +0.000 A 
ATOM     28  C   UNL     1      38.097   7.603  18.491  0.00  0.00    +0.000 A 
ATOM     29  C   UNL     1      37.998   6.759  17.421  0.00  0.00    +0.000 A 
ENDBRANCH  19  20
ENDBRANCH  18  19
ENDBRANCH  17  18
ENDBRANCH  16  17
ENDBRANCH   1  16
TORSDOF 10
ENDMDL
MODEL 4
REMARK VINA RESULT:      -5.3      3.833      7.347
REMARK  Name = 
REMARK  10 active torsions:
REMARK  status: ('A' for Active; 'I' for Inactive)
REMARK    1  A    between atoms: C_2  and  C_3
REMARK    2  A    between atoms: C_8  and  N_9
REMARK    3  A    between atoms: C_10  and  C_12
REMARK    4  A    between atoms: C_12  and  O_13
REMARK    5  A    between atoms: O_13  and  C_14
REMARK    6  A    between atoms: C_14  and  C_16
REMARK    7  A    between atoms: C_16  and  C_17
REMARK    8  A    between atoms: C_17  and  C_18
REMARK    9  A    between atoms: C_18  and  O_19
REMARK   10  A    between atoms: O_19  and  C_20
REMARK                            x       y       z     vdW  Elec       q    Type
REMARK                         _______ _______ _______ _____ _____    ______ ____
ROOT
ATOM      1  C   UNL     1      38.643   2.985  12.617  0.00  0.00    +0.000 C 
ATOM      2  O   UNL     1      39.680   3.665  12.584  0.00  0.00    +0.000 OA
ENDROOT
BRANCH   1   3
ATOM      3  O   UNL     1      38.766   1.595  12.452  0.00  0.00    +0.000 OA
BRANCH   3   4
ATOM      4  C   UNL     1      39.153   0.835  13.584  0.00  0.00    +0.000 C 
BRANCH   4   6
ATOM      5  N   UNL     1      37.834   0.061  15.618  0.00  0.00    +0.000 NA
ATOM      6  C   UNL     1      37.960   0.196  14.188  0.00  0.00    +0.000 C 
ATOM      7  O   UNL     1      36.989  -0.268  13.519  0.00  0.00    +0.000 OA
BRANCH   5  13
ATOM      8  C   UNL     1      35.732   0.263  16.739  0.00  0.00    +0.000 A 
ATOM      9  C   UNL     1      34.561  -0.236  17.324  0.00  0.00    +0.000 A 
ATOM     10  C   UNL     1      34.360  -1.589  17.332  0.00  0.00    +0.000 A 
ATOM     11  C   UNL     1      35.295  -2.422  16.775  0.00  0.00    +0.000 A 
ATOM     12  C   UNL     1      36.462  -1.916  16.195  0.00  0.00    +0.000 A 
ATOM     13  C   UNL     1      36.685  -0.559  16.176  0.00  0.00    +0.000 A 
BRANCH   8  15
ATOM     14  C   UNL     1      35.035   2.338  15.657  0.00  0.00    +0.000 C 
ATOM     15  C   UNL     1      35.936   1.738  16.737  0.00  0.00    +0.000 C 
ENDBRANCH   8  15
ENDBRANCH   5  13
ENDBRANCH   4   6
ENDBRANCH   3   4
ENDBRANCH   1   3
BRANCH   1  16
ATOM     16  C   UNL     1      37.270   3.575  12.826  0.00  0.00    +0.000 C 
BRANCH  16  17
ATOM     17  C   UNL     1      37.307   4.922  13.429  0.00  0.00    +0.000 C 
BRANCH  17  18
ATOM     18  C   UNL     1      37.524   5.011  14.868  0.00  0.00    +0.000 C 
BRANCH  18  19
ATOM     19  O   UNL     1      38.740   5.111  15.417  0.00  0.00    +0.000 OA
BRANCH  19  20
ATOM     20  C   UNL     1      39.299   5.445  16.591  0.00  0.00    +0.000 A 
ATOM     21  C   UNL     1      38.594   5.374  17.766  0.00  0.00    +0.000 A 
ATOM     22  C   UNL     1      39.176   5.719  18.956  0.00  0.00    +0.000 A 
ATOM     23  C   UNL     1      40.496   6.156  19.053  0.00  0.00    +0.000 A 
ATOM     24  C   UNL     1      41.049   6.492  20.270  0.00  0.00    +0.000 A 
ATOM     25  C   UNL     1      42.368   6.913  20.286  0.00  0.00    +0.000 A 
ATOM     26  C   UNL     1      43.113   6.996  19.112  0.00  0.00    +0.000 A 
ATOM     27  C   UNL     1      42.519   6.652  17.927  0.00  0.00    +0.000 A 
ATOM     28  C   UNL     1      41.190   6.221  17.865  0.00  0.00    +0.000 A 
ATOM     29  C   UNL     1      40.629   5.883  16.665  0.00  0.00    +0.000 A 
ENDBRANCH  19  20
ENDBRANCH  18  19
ENDBRANCH  17  18
ENDBRANCH  16  17
ENDBRANCH   1  16
TORSDOF 10
ENDMDL
MODEL 5
REMARK VINA RESULT:      -5.3      4.336      7.583
REMARK  Name = 
REMARK  10 active torsions:
REMARK  status: ('A' for Active; 'I' for Inactive)
REMARK    1  A    between atoms: C_2  and  C_3
REMARK    2  A    between atoms: C_8  and  N_9
REMARK    3  A    between atoms: C_10  and  C_12
REMARK    4  A    between atoms: C_12  and  O_13
REMARK    5  A    between atoms: O_13  and  C_14
REMARK    6  A    between atoms: C_14  and  C_16
REMARK    7  A    between atoms: C_16  and  C_17
REMARK    8  A    between atoms: C_17  and  C_18
REMARK    9  A    between atoms: C_18  and  O_19
REMARK   10  A    between atoms: O_19  and  C_20
REMARK                            x       y       z     vdW  Elec       q    Type
REMARK                         _______ _______ _______ _____ _____    ______ ____
ROOT
ATOM      1  C   UNL     1      36.962   2.262  16.141  0.00  0.00    +0.000 C 
ATOM      2  O   UNL     1      37.645   1.534  15.406  0.00  0.00    +0.000 OA
ENDROOT
BRANCH   1   3
ATOM      3  O   UNL     1      36.284   1.657  17.213  0.00  0.00    +0.000 OA
BRANCH   3   4
ATOM      4  C   UNL     1      35.009   1.098  16.948  0.00  0.00    +0.000 C 
BRANCH   4   6
ATOM      5  N   UNL     1      35.612  -1.107  15.829  0.00  0.00    +0.000 NA
ATOM      6  C   UNL     1      35.098  -0.381  16.965  0.00  0.00    +0.000 C 
ATOM      7  O   UNL     1      34.742  -1.102  17.944  0.00  0.00    +0.000 OA
BRANCH   5  13
ATOM      8  C   UNL     1      36.872  -3.088  16.276  0.00  0.00    +0.000 A 
ATOM      9  C   UNL     1      37.062  -4.474  16.346  0.00  0.00    +0.000 A 
ATOM     10  C   UNL     1      36.025  -5.294  15.992  0.00  0.00    +0.000 A 
ATOM     11  C   UNL     1      34.835  -4.752  15.581  0.00  0.00    +0.000 A 
ATOM     12  C   UNL     1      34.655  -3.367  15.514  0.00  0.00    +0.000 A 
ATOM     13  C   UNL     1      35.684  -2.524  15.864  0.00  0.00    +0.000 A 
BRANCH   8  15
ATOM     14  C   UNL     1      39.308  -2.981  16.421  0.00  0.00    +0.000 C 
ATOM     15  C   UNL     1      38.010  -2.209  16.665  0.00  0.00    +0.000 C 
ENDBRANCH   8  15
ENDBRANCH   5  13
ENDBRANCH   4   6
ENDBRANCH   3   4
ENDBRANCH   1   3
BRANCH   1  16
ATOM     16  C   UNL     1      36.829   3.751  15.943  0.00  0.00    +0.000 C 
BRANCH  16  17
ATOM     17  C   UNL     1      38.106   4.403  15.591  0.00  0.00    +0.000 C 
BRANCH  17  18
ATOM     18  C   UNL     1      38.306   5.778  16.033  0.00  0.00    +0.000 C 
BRANCH  18  19
ATOM     19  O   UNL     1      39.496   6.255  16.414  0.00  0.00    +0.000 OA
BRANCH  19  20
ATOM     20  C   UNL     1      40.263   6.308  17.515  0.00  0.00    +0.000 A 
ATOM     21  C   UNL     1      39.736   6.105  18.765  0.00  0.00    +0.000 A 
ATOM     22  C   UNL     1      40.530   6.163  19.879  0.00  0.00    +0.000 A 
ATOM     23  C   UNL     1      41.897   6.427  19.820  0.00  0.00    +0.000 A 
ATOM     24  C   UNL     1      42.666   6.474  20.964  0.00  0.00    +0.000 A 
ATOM     25  C   UNL     1      44.017   6.737  20.823  0.00  0.00    +0.000 A 
ATOM     26  C   UNL     1      44.585   6.948  19.569  0.00  0.00    +0.000 A 
ATOM     27  C   UNL     1      43.781   6.891  18.462  0.00  0.00    +0.000 A 
ATOM     28  C   UNL     1      42.411   6.628  18.557  0.00  0.00    +0.000 A 
ATOM     29  C   UNL     1      41.638   6.575  17.431  0.00  0.00    +0.000 A 
ENDBRANCH  19  20
ENDBRANCH  18  19
ENDBRANCH  17  18
ENDBRANCH  16  17
ENDBRANCH   1  16
TORSDOF 10
ENDMDL
MODEL 6
REMARK VINA RESULT:      -5.2      3.497      7.472
REMARK  Name = 
REMARK  10 active torsions:
REMARK  status: ('A' for Active; 'I' for Inactive)
REMARK    1  A    between atoms: C_2  and  C_3
REMARK    2  A    between atoms: C_8  and  N_9
REMARK    3  A    between atoms: C_10  and  C_12
REMARK    4  A    between atoms: C_12  and  O_13
REMARK    5  A    between atoms: O_13  and  C_14
REMARK    6  A    between atoms: C_14  and  C_16
REMARK    7  A    between atoms: C_16  and  C_17
REMARK    8  A    between atoms: C_17  and  C_18
REMARK    9  A    between atoms: C_18  and  O_19
REMARK   10  A    between atoms: O_19  and  C_20
REMARK                            x       y       z     vdW  Elec       q    Type
REMARK                         _______ _______ _______ _____ _____    ______ ____
ROOT
ATOM      1  C   UNL     1      35.554   3.692  14.291  0.00  0.00    +0.000 C 
ATOM      2  O   UNL     1      34.890   4.676  14.649  0.00  0.00    +0.000 OA
ENDROOT
BRANCH   1   3
ATOM      3  O   UNL     1      35.190   2.435  14.805  0.00  0.00    +0.000 OA
BRANCH   3   4
ATOM      4  C   UNL     1      34.807   2.373  16.168  0.00  0.00    +0.000 C 
BRANCH   4   6
ATOM      5  N   UNL     1      35.589   0.056  16.873  0.00  0.00    +0.000 NA
ATOM      6  C   UNL     1      35.739   1.490  16.909  0.00  0.00    +0.000 C 
ATOM      7  O   UNL     1      36.707   1.910  17.610  0.00  0.00    +0.000 OA
BRANCH   5  13
ATOM      8  C   UNL     1      37.502  -1.377  16.882  0.00  0.00    +0.000 A 
ATOM      9  C   UNL     1      38.446  -2.219  17.485  0.00  0.00    +0.000 A 
ATOM     10  C   UNL     1      38.355  -2.442  18.832  0.00  0.00    +0.000 A 
ATOM     11  C   UNL     1      37.356  -1.848  19.557  0.00  0.00    +0.000 A 
ATOM     12  C   UNL     1      36.417  -1.010  18.947  0.00  0.00    +0.000 A 
ATOM     13  C   UNL     1      36.489  -0.771  17.594  0.00  0.00    +0.000 A 
BRANCH   8  15
ATOM     14  C   UNL     1      38.995  -0.544  15.137  0.00  0.00    +0.000 C 
ATOM     15  C   UNL     1      37.615  -1.143  15.415  0.00  0.00    +0.000 C 
ENDBRANCH   8  15
ENDBRANCH   5  13
ENDBRANCH   4   6
ENDBRANCH   3   4
ENDBRANCH   1   3
BRANCH   1  16
ATOM     16  C   UNL     1      36.720   3.779  13.337  0.00  0.00    +0.000 C 
BRANCH  16  17
ATOM     17  C   UNL     1      37.153   5.166  13.081  0.00  0.00    +0.000 C 
BRANCH  17  18
ATOM     18  C   UNL     1      38.529   5.515  13.412  0.00  0.00    +0.000 C 
BRANCH  18  19
ATOM     19  O   UNL     1      38.850   6.354  14.404  0.00  0.00    +0.000 OA
BRANCH  19  20
ATOM     20  C   UNL     1      39.644   6.388  15.486  0.00  0.00    +0.000 A 
ATOM     21  C   UNL     1      41.008   6.306  15.377  0.00  0.00    +0.000 A 
ATOM     22  C   UNL     1      41.805   6.340  16.491  0.00  0.00    +0.000 A 
ATOM     23  C   UNL     1      41.295   6.460  17.782  0.00  0.00    +0.000 A 
ATOM     24  C   UNL     1      42.128   6.494  18.879  0.00  0.00    +0.000 A 
ATOM     25  C   UNL     1      41.547   6.619  20.129  0.00  0.00    +0.000 A 
ATOM     26  C   UNL     1      40.164   6.705  20.276  0.00  0.00    +0.000 A 
ATOM     27  C   UNL     1      39.378   6.666  19.156  0.00  0.00    +0.000 A 
ATOM     28  C   UNL     1      39.922   6.542  17.874  0.00  0.00    +0.000 A 
ATOM     29  C   UNL     1      39.108   6.508  16.777  0.00  0.00    +0.000 A 
ENDBRANCH  19  20
ENDBRANCH  18  19
ENDBRANCH  17  18
ENDBRANCH  16  17
ENDBRANCH   1  16
TORSDOF 10
ENDMDL
MODEL 7
REMARK VINA RESULT:      -5.2      8.134     10.863
REMARK  Name = 
REMARK  10 active torsions:
REMARK  status: ('A' for Active; 'I' for Inactive)
REMARK    1  A    between atoms: C_2  and  C_3
REMARK    2  A    between atoms: C_8  and  N_9
REMARK    3  A    between atoms: C_10  and  C_12
REMARK    4  A    between atoms: C_12  and  O_13
REMARK    5  A    between atoms: O_13  and  C_14
REMARK    6  A    between atoms: C_14  and  C_16
REMARK    7  A    between atoms: C_16  and  C_17
REMARK    8  A    between atoms: C_17  and  C_18
REMARK    9  A    between atoms: C_18  and  O_19
REMARK   10  A    between atoms: O_19  and  C_20
REMARK                            x       y       z     vdW  Elec       q    Type
REMARK                         _______ _______ _______ _____ _____    ______ ____
ROOT
ATOM      1  C   UNL     1      43.464  11.201  21.289  0.00  0.00    +0.000 C 
ATOM      2  O   UNL     1      44.638  11.550  21.484  0.00  0.00    +0.000 OA
ENDROOT
BRANCH   1   3
ATOM      3  O   UNL     1      42.604  12.119  20.663  0.00  0.00    +0.000 OA
BRANCH   3   4
ATOM      4  C   UNL     1      42.570  12.120  19.246  0.00  0.00    +0.000 C 
BRANCH   4   6
ATOM      5  N   UNL     1      41.084  10.131  18.689  0.00  0.00    +0.000 NA
ATOM      6  C   UNL     1      41.282  11.557  18.777  0.00  0.00    +0.000 C 
ATOM      7  O   UNL     1      40.287  12.258  18.427  0.00  0.00    +0.000 OA
BRANCH   5  13
ATOM      8  C   UNL     1      38.931   9.220  19.188  0.00  0.00    +0.000 A 
ATOM      9  C   UNL     1      37.677   8.689  18.856  0.00  0.00    +0.000 A 
ATOM     10  C   UNL     1      37.353   8.558  17.533  0.00  0.00    +0.000 A 
ATOM     11  C   UNL     1      38.247   8.944  16.569  0.00  0.00    +0.000 A 
ATOM     12  C   UNL     1      39.496   9.472  16.909  0.00  0.00    +0.000 A 
ATOM     13  C   UNL     1      39.844   9.612  18.232  0.00  0.00    +0.000 A 
BRANCH   8  15
ATOM     14  C   UNL     1      38.592  10.624  21.158  0.00  0.00    +0.000 C 
ATOM     15  C   UNL     1      39.269   9.357  20.632  0.00  0.00    +0.000 C 
ENDBRANCH   8  15
ENDBRANCH   5  13
ENDBRANCH   4   6
ENDBRANCH   3   4
ENDBRANCH   1   3
BRANCH   1  16
ATOM     16  C   UNL     1      42.923   9.850  21.687  0.00  0.00    +0.000 C 
BRANCH  16  17
ATOM     17  C   UNL     1      43.979   8.899  22.082  0.00  0.00    +0.000 C 
BRANCH  17  18
ATOM     18  C   UNL     1      43.847   7.518  21.634  0.00  0.00    +0.000 C 
BRANCH  18  19
ATOM     19  O   UNL     1      42.702   7.011  21.162  0.00  0.00    +0.000 OA
BRANCH  19  20
ATOM     20  C   UNL     1      42.128   6.727  19.982  0.00  0.00    +0.000 A 
ATOM     21  C   UNL     1      42.768   6.977  18.796  0.00  0.00    +0.000 A 
ATOM     22  C   UNL     1      42.170   6.684  17.599  0.00  0.00    +0.000 A 
ATOM     23  C   UNL     1      40.897   6.124  17.508  0.00  0.00    +0.000 A 
ATOM     24  C   UNL     1      40.328   5.839  16.286  0.00  0.00    +0.000 A 
ATOM     25  C   UNL     1      39.062   5.280  16.277  0.00  0.00    +0.000 A 
ATOM     26  C   UNL     1      38.383   5.013  17.463  0.00  0.00    +0.000 A 
ATOM     27  C   UNL     1      38.990   5.314  18.653  0.00  0.00    +0.000 A 
ATOM     28  C   UNL     1      40.267   5.879  18.709  0.00  0.00    +0.000 A 
ATOM     29  C   UNL     1      40.845   6.164  19.915  0.00  0.00    +0.000 A 
ENDBRANCH  19  20
ENDBRANCH  18  19
ENDBRANCH  17  18
ENDBRANCH  16  17
ENDBRANCH   1  16
TORSDOF 10
ENDMDL
MODEL 8
REMARK VINA RESULT:      -5.2     29.811     32.659
REMARK  Name = 
REMARK  10 active torsions:
REMARK  status: ('A' for Active; 'I' for Inactive)
REMARK    1  A    between atoms: C_2  and  C_3
REMARK    2  A    between atoms: C_8  and  N_9
REMARK    3  A    between atoms: C_10  and  C_12
REMARK    4  A    between atoms: C_12  and  O_13
REMARK    5  A    between atoms: O_13  and  C_14
REMARK    6  A    between atoms: C_14  and  C_16
REMARK    7  A    between atoms: C_16  and  C_17
REMARK    8  A    between atoms: C_17  and  C_18
REMARK    9  A    between atoms: C_18  and  O_19
REMARK   10  A    between atoms: O_19  and  C_20
REMARK                            x       y       z     vdW  Elec       q    Type
REMARK                         _______ _______ _______ _____ _____    ______ ____
ROOT
ATOM      1  C   UNL     1       9.519   7.317   7.201  0.00  0.00    +0.000 C 
ATOM      2  O   UNL     1       9.678   7.835   6.086  0.00  0.00    +0.000 OA
ENDROOT
BRANCH   1   3
ATOM      3  O   UNL     1      10.602   6.613   7.755  0.00  0.00    +0.000 OA
BRANCH   3   4
ATOM      4  C   UNL     1      10.561   5.197   7.695  0.00  0.00    +0.000 C 
BRANCH   4   6
ATOM      5  N   UNL     1       8.988   4.169   9.411  0.00  0.00    +0.000 NA
ATOM      6  C   UNL     1      10.299   4.647   9.045  0.00  0.00    +0.000 C 
ATOM      7  O   UNL     1      11.175   4.557   9.957  0.00  0.00    +0.000 OA
BRANCH   5  13
ATOM      8  C   UNL     1       8.754   2.280  10.856  0.00  0.00    +0.000 A 
ATOM      9  C   UNL     1       8.532   1.655  12.090  0.00  0.00    +0.000 A 
ATOM     10  C   UNL     1       8.312   2.439  13.189  0.00  0.00    +0.000 A 
ATOM     11  C   UNL     1       8.312   3.804  13.066  0.00  0.00    +0.000 A 
ATOM     12  C   UNL     1       8.534   4.420  11.830  0.00  0.00    +0.000 A 
ATOM     13  C   UNL     1       8.757   3.651  10.712  0.00  0.00    +0.000 A 
BRANCH   8  15
ATOM     14  C   UNL     1      10.424   0.876   9.756  0.00  0.00    +0.000 C 
ATOM     15  C   UNL     1       8.993   1.413   9.669  0.00  0.00    +0.000 C 
ENDBRANCH   8  15
ENDBRANCH   5  13
ENDBRANCH   4   6
ENDBRANCH   3   4
ENDBRANCH   1   3
BRANCH   1  16
ATOM     16  C   UNL     1       8.233   7.408   7.985  0.00  0.00    +0.000 C 
BRANCH  16  17
ATOM     17  C   UNL     1       7.104   6.728   7.320  0.00  0.00    +0.000 C 
BRANCH  17  18
ATOM     18  C   UNL     1       5.778   6.896   7.902  0.00  0.00    +0.000 C 
BRANCH  18  19
ATOM     19  O   UNL     1       5.159   5.934   8.596  0.00  0.00    +0.000 OA
BRANCH  19  20
ATOM     20  C   UNL     1       5.052   5.505   9.863  0.00  0.00    +0.000 A 
ATOM     21  C   UNL     1       4.981   6.384  10.913  0.00  0.00    +0.000 A 
ATOM     22  C   UNL     1       4.874   5.933  12.202  0.00  0.00    +0.000 A 
ATOM     23  C   UNL     1       4.831   4.578  12.527  0.00  0.00    +0.000 A 
ATOM     24  C   UNL     1       4.720   4.161  13.836  0.00  0.00    +0.000 A 
ATOM     25  C   UNL     1       4.679   2.799  14.078  0.00  0.00    +0.000 A 
ATOM     26  C   UNL     1       4.749   1.878  13.036  0.00  0.00    +0.000 A 
ATOM     27  C   UNL     1       4.860   2.341  11.752  0.00  0.00    +0.000 A 
ATOM     28  C   UNL     1       4.904   3.708  11.461  0.00  0.00    +0.000 A 
ATOM     29  C   UNL     1       5.012   4.136  10.167  0.00  0.00    +0.000 A 
ENDBRANCH  19  20
ENDBRANCH  18  19
ENDBRANCH  17  18
ENDBRANCH  16  17
ENDBRANCH   1  16
TORSDOF 10
ENDMDL
MODEL 9
REMARK VINA RESULT:      -5.1      3.536      7.498
REMARK  Name = 
REMARK  10 active torsions:
REMARK  status: ('A' for Active; 'I' for Inactive)
REMARK    1  A    between atoms: C_2  and  C_3
REMARK    2  A    between atoms: C_8  and  N_9
REMARK    3  A    between atoms: C_10  and  C_12
REMARK    4  A    between atoms: C_12  and  O_13
REMARK    5  A    between atoms: O_13  and  C_14
REMARK    6  A    between atoms: C_14  and  C_16
REMARK    7  A    between atoms: C_16  and  C_17
REMARK    8  A    between atoms: C_17  and  C_18
REMARK    9  A    between atoms: C_18  and  O_19
REMARK   10  A    between atoms: O_19  and  C_20
REMARK                            x       y       z     vdW  Elec       q    Type
REMARK                         _______ _______ _______ _____ _____    ______ ____
ROOT
ATOM      1  C   UNL     1      37.445   3.891  11.295  0.00  0.00    +0.000 C 
ATOM      2  O   UNL     1      36.936   3.396  10.279  0.00  0.00    +0.000 OA
ENDROOT
BRANCH   1   3
ATOM      3  O   UNL     1      38.554   3.235  11.858  0.00  0.00    +0.000 OA
BRANCH   3   4
ATOM      4  C   UNL     1      38.436   1.843  12.097  0.00  0.00    +0.000 C 
BRANCH   4   6
ATOM      5  N   UNL     1      36.630   0.857  13.595  0.00  0.00    +0.000 NA
ATOM      6  C   UNL     1      37.848   1.614  13.438  0.00  0.00    +0.000 C 
ATOM      7  O   UNL     1      38.349   2.052  14.516  0.00  0.00    +0.000 OA
BRANCH   5  13
ATOM      8  C   UNL     1      36.301  -0.568  15.485  0.00  0.00    +0.000 A 
ATOM      9  C   UNL     1      35.804  -0.884  16.757  0.00  0.00    +0.000 A 
ATOM     10  C   UNL     1      35.075   0.061  17.426  0.00  0.00    +0.000 A 
ATOM     11  C   UNL     1      34.846   1.283  16.848  0.00  0.00    +0.000 A 
ATOM     12  C   UNL     1      35.345   1.590  15.579  0.00  0.00    +0.000 A 
ATOM     13  C   UNL     1      36.081   0.655  14.888  0.00  0.00    +0.000 A 
BRANCH   8  15
ATOM     14  C   UNL     1      38.290  -1.977  15.650  0.00  0.00    +0.000 C 
ATOM     15  C   UNL     1      37.094  -1.606  14.770  0.00  0.00    +0.000 C 
ENDBRANCH   8  15
ENDBRANCH   5  13
ENDBRANCH   4   6
ENDBRANCH   3   4
ENDBRANCH   1   3
BRANCH   1  16
ATOM     16  C   UNL     1      36.938   5.153  11.948  0.00  0.00    +0.000 C 
BRANCH  16  17
ATOM     17  C   UNL     1      36.052   4.891  13.099  0.00  0.00    +0.000 C 
BRANCH  17  18
ATOM     18  C   UNL     1      36.365   5.557  14.357  0.00  0.00    +0.000 C 
BRANCH  18  19
ATOM     19  O   UNL     1      37.215   5.051  15.258  0.00  0.00    +0.000 OA
BRANCH  19  20
ATOM     20  C   UNL     1      38.358   5.389  15.875  0.00  0.00    +0.000 A 
ATOM     21  C   UNL     1      39.513   5.617  15.171  0.00  0.00    +0.000 A 
ATOM     22  C   UNL     1      40.672   5.959  15.815  0.00  0.00    +0.000 A 
ATOM     23  C   UNL     1      40.756   6.097  17.199  0.00  0.00    +0.000 A 
ATOM     24  C   UNL     1      41.940   6.447  17.812  0.00  0.00    +0.000 A 
ATOM     25  C   UNL     1      41.943   6.568  19.190  0.00  0.00    +0.000 A 
ATOM     26  C   UNL     1      40.788   6.344  19.937  0.00  0.00    +0.000 A 
ATOM     27  C   UNL     1      39.636   5.998  19.283  0.00  0.00    +0.000 A 
ATOM     28  C   UNL     1      39.588   5.865  17.892  0.00  0.00    +0.000 A 
ATOM     29  C   UNL     1      38.419   5.521  17.271  0.00  0.00    +0.000 A 
ENDBRANCH  19  20
ENDBRANCH  18  19
ENDBRANCH  17  18
ENDBRANCH  16  17
ENDBRANCH   1  16
TORSDOF 10
ENDMDL
MODEL 10
REMARK VINA RESULT:      -5.1      4.372      7.531
REMARK  Name = 
REMARK  10 active torsions:
REMARK  status: ('A' for Active; 'I' for Inactive)
REMARK    1  A    between atoms: C_2  and  C_3
REMARK    2  A    between atoms: C_8  and  N_9
REMARK    3  A    between atoms: C_10  and  C_12
REMARK    4  A    between atoms: C_12  and  O_13
REMARK    5  A    between atoms: O_13  and  C_14
REMARK    6  A    between atoms: C_14  and  C_16
REMARK    7  A    between atoms: C_16  and  C_17
REMARK    8  A    between atoms: C_17  and  C_18
REMARK    9  A    between atoms: C_18  and  O_19
REMARK   10  A    between atoms: O_19  and  C_20
REMARK                            x       y       z     vdW  Elec       q    Type
REMARK                         _______ _______ _______ _____ _____    ______ ____
ROOT
ATOM      1  C   UNL     1      38.881   4.362  14.673  0.00  0.00    +0.000 C 
ATOM      2  O   UNL     1      40.027   4.693  14.333  0.00  0.00    +0.000 OA
ENDROOT
BRANCH   1   3
ATOM      3  O   UNL     1      38.324   3.220  14.073  0.00  0.00    +0.000 OA
BRANCH   3   4
ATOM      4  C   UNL     1      38.871   1.962  14.431  0.00  0.00    +0.000 C 
BRANCH   4   6
ATOM      5  N   UNL     1      37.807   0.028  15.697  0.00  0.00    +0.000 NA
ATOM      6  C   UNL     1      37.780   0.976  14.610  0.00  0.00    +0.000 C 
ATOM      7  O   UNL     1      36.771   0.888  13.848  0.00  0.00    +0.000 OA
BRANCH   5  13
ATOM      8  C   UNL     1      35.833  -0.677  16.845  0.00  0.00    +0.000 A 
ATOM      9  C   UNL     1      34.755  -1.538  17.090  0.00  0.00    +0.000 A 
ATOM     10  C   UNL     1      34.616  -2.650  16.306  0.00  0.00    +0.000 A 
ATOM     11  C   UNL     1      35.522  -2.900  15.308  0.00  0.00    +0.000 A 
ATOM     12  C   UNL     1      36.595  -2.036  15.071  0.00  0.00    +0.000 A 
ATOM     13  C   UNL     1      36.754  -0.912  15.847  0.00  0.00    +0.000 A 
BRANCH   8  15
ATOM     14  C   UNL     1      35.841   0.088  19.165  0.00  0.00    +0.000 C 
ATOM     15  C   UNL     1      35.970   0.530  17.706  0.00  0.00    +0.000 C 
ENDBRANCH   8  15
ENDBRANCH   5  13
ENDBRANCH   4   6
ENDBRANCH   3   4
ENDBRANCH   1   3
BRANCH   1  16
ATOM     16  C   UNL     1      38.066   5.121  15.692  0.00  0.00    +0.000 C 
BRANCH  16  17
ATOM     17  C   UNL     1      37.626   4.278  16.821  0.00  0.00    +0.000 C 
BRANCH  17  18
ATOM     18  C   UNL     1      38.206   4.549  18.131  0.00  0.00    +0.000 C 
BRANCH  18  19
ATOM     19  O   UNL     1      38.892   5.664  18.409  0.00  0.00    +0.000 OA
BRANCH  19  20
ATOM     20  C   UNL     1      40.150   6.037  18.689  0.00  0.00    +0.000 A 
ATOM     21  C   UNL     1      40.553   6.287  19.976  0.00  0.00    +0.000 A 
ATOM     22  C   UNL     1      41.840   6.669  20.247  0.00  0.00    +0.000 A 
ATOM     23  C   UNL     1      42.807   6.825  19.256  0.00  0.00    +0.000 A 
ATOM     24  C   UNL     1      44.094   7.208  19.568  0.00  0.00    +0.000 A 
ATOM     25  C   UNL     1      44.999   7.337  18.528  0.00  0.00    +0.000 A 
ATOM     26  C   UNL     1      44.624   7.091  17.210  0.00  0.00    +0.000 A 
ATOM     27  C   UNL     1      43.333   6.714  16.950  0.00  0.00    +0.000 A 
ATOM     28  C   UNL     1      42.386   6.570  17.969  0.00  0.00    +0.000 A 
ATOM     29  C   UNL     1      41.107   6.189  17.675  0.00  0.00    +0.000 A 
ENDBRANCH  19  20
ENDBRANCH  18  19
ENDBRANCH  17  18
ENDBRANCH  16  17
ENDBRANCH   1  16
TORSDOF 10
ENDMDL
