MODEL 1
REMARK VINA RESULT:      -8.4      0.000      0.000
REMARK  Name = 
REMARK  2 active torsions:
REMARK  status: ('A' for Active; 'I' for Inactive)
REMARK    1  A    between atoms: C_5  and  C_6
REMARK    2  A    between atoms: C_6  and  N_7
REMARK                            x       y       z     vdW  Elec       q    Type
REMARK                         _______ _______ _______ _____ _____    ______ ____
ROOT
ATOM      1  N   UNL     1      15.014  12.540  35.547  0.00  0.00    +0.000 NA
ATOM      2  C   UNL     1      15.774  11.589  34.789  0.00  0.00    +0.000 A 
ATOM      3  N   UNL     1      16.503  10.702  35.475  0.00  0.00    +0.000 NA
ATOM      4  C   UNL     1      17.258   9.766  34.907  0.00  0.00    +0.000 A 
ATOM      5  N   UNL     1      17.279   9.718  33.560  0.00  0.00    +0.000 NA
ATOM      6  C   UNL     1      16.543  10.610  32.829  0.00  0.00    +0.000 A 
ATOM      7  S   UNL     1      16.330  10.846  31.148  0.00  0.00    +0.000 S 
ATOM      8  C   UNL     1      15.259  12.163  31.181  0.00  0.00    +0.000 A 
ATOM      9  C   UNL     1      15.090  12.392  32.510  0.00  0.00    +0.000 A 
ATOM     10  C   UNL     1      15.759  11.585  33.380  0.00  0.00    +0.000 A 
ATOM     11  C   UNL     1      14.130  13.574  32.588  0.00  0.00    +0.000 C 
ATOM     12  C   UNL     1      13.396  13.577  31.287  0.00  0.00    +0.000 C 
ATOM     13  C   UNL     1      14.472  13.116  30.335  0.00  0.00    +0.000 C 
ENDROOT
BRANCH   1  14
ATOM     14  C   UNL     1      15.009  12.563  36.968  0.00  0.00    +0.000 C 
BRANCH  14  19
ATOM     15  C   UNL     1      11.480  11.392  37.321  0.00  0.00    +0.000 A 
ATOM     16  C   UNL     1      11.628  10.554  38.399  0.00  0.00    +0.000 A 
ATOM     17  N   UNL     1      12.805  10.358  39.002  0.00  0.00    +0.000 NA
ATOM     18  C   UNL     1      13.881  11.008  38.534  0.00  0.00    +0.000 A 
ATOM     19  C   UNL     1      13.793  11.859  37.460  0.00  0.00    +0.000 A 
ATOM     20  C   UNL     1      12.578  12.055  36.844  0.00  0.00    +0.000 A 
ENDBRANCH  14  19
ENDBRANCH   1  14
TORSDOF 2
ENDMDL
MODEL 2
REMARK VINA RESULT:      -7.6      2.552      4.600
REMARK  Name = 
REMARK  2 active torsions:
REMARK  status: ('A' for Active; 'I' for Inactive)
REMARK    1  A    between atoms: C_5  and  C_6
REMARK    2  A    between atoms: C_6  and  N_7
REMARK                            x       y       z     vdW  Elec       q    Type
REMARK                         _______ _______ _______ _____ _____    ______ ____
ROOT
ATOM      1  N   UNL     1      16.142  10.794  34.694  0.00  0.00    +0.000 NA
ATOM      2  C   UNL     1      15.851  11.196  33.349  0.00  0.00    +0.000 A 
ATOM      3  N   UNL     1      16.412  10.487  32.364  0.00  0.00    +0.000 NA
ATOM      4  C   UNL     1      16.236  10.746  31.071  0.00  0.00    +0.000 A 
ATOM      5  N   UNL     1      15.441  11.786  30.749  0.00  0.00    +0.000 NA
ATOM      6  C   UNL     1      14.851  12.531  31.733  0.00  0.00    +0.000 A 
ATOM      7  S   UNL     1      13.809  13.887  31.704  0.00  0.00    +0.000 S 
ATOM      8  C   UNL     1      13.601  14.119  33.373  0.00  0.00    +0.000 A 
ATOM      9  C   UNL     1      14.353  13.129  33.920  0.00  0.00    +0.000 A 
ATOM     10  C   UNL     1      15.012  12.293  33.070  0.00  0.00    +0.000 A 
ATOM     11  C   UNL     1      14.196  13.301  35.427  0.00  0.00    +0.000 C 
ATOM     12  C   UNL     1      12.916  14.050  35.611  0.00  0.00    +0.000 C 
ATOM     13  C   UNL     1      12.931  14.966  34.412  0.00  0.00    +0.000 C 
ENDROOT
BRANCH   1  14
ATOM     14  C   UNL     1      16.981   9.689  35.003  0.00  0.00    +0.000 C 
BRANCH  14  19
ATOM     15  C   UNL     1      20.085   9.879  37.070  0.00  0.00    +0.000 A 
ATOM     16  C   UNL     1      19.734  10.907  37.910  0.00  0.00    +0.000 A 
ATOM     17  N   UNL     1      18.553  11.529  37.833  0.00  0.00    +0.000 NA
ATOM     18  C   UNL     1      17.679  11.129  36.897  0.00  0.00    +0.000 A 
ATOM     19  C   UNL     1      17.975  10.106  36.030  0.00  0.00    +0.000 A 
ATOM     20  C   UNL     1      19.193   9.471  36.116  0.00  0.00    +0.000 A 
ENDBRANCH  14  19
ENDBRANCH   1  14
TORSDOF 2
ENDMDL
MODEL 3
REMARK VINA RESULT:      -7.4      2.579      6.270
REMARK  Name = 
REMARK  2 active torsions:
REMARK  status: ('A' for Active; 'I' for Inactive)
REMARK    1  A    between atoms: C_5  and  C_6
REMARK    2  A    between atoms: C_6  and  N_7
REMARK                            x       y       z     vdW  Elec       q    Type
REMARK                         _______ _______ _______ _____ _____    ______ ____
ROOT
ATOM      1  N   UNL     1      14.478  13.093  35.421  0.00  0.00    +0.000 NA
ATOM      2  C   UNL     1      13.849  12.335  36.464  0.00  0.00    +0.000 A 
ATOM      3  N   UNL     1      12.514  12.375  36.529  0.00  0.00    +0.000 NA
ATOM      4  C   UNL     1      11.797  11.727  37.442  0.00  0.00    +0.000 A 
ATOM      5  N   UNL     1      12.468  10.989  38.350  0.00  0.00    +0.000 NA
ATOM      6  C   UNL     1      13.835  10.927  38.310  0.00  0.00    +0.000 A 
ATOM      7  S   UNL     1      14.994  10.116  39.271  0.00  0.00    +0.000 S 
ATOM      8  C   UNL     1      16.413  10.619  38.486  0.00  0.00    +0.000 A 
ATOM      9  C   UNL     1      15.950  11.413  37.486  0.00  0.00    +0.000 A 
ATOM     10  C   UNL     1      14.601  11.581  37.386  0.00  0.00    +0.000 A 
ATOM     11  C   UNL     1      17.197  11.891  36.751  0.00  0.00    +0.000 C 
ATOM     12  C   UNL     1      18.254  10.882  37.064  0.00  0.00    +0.000 C 
ATOM     13  C   UNL     1      17.908  10.517  38.487  0.00  0.00    +0.000 C 
ENDROOT
BRANCH   1  14
ATOM     14  C   UNL     1      13.743  13.859  34.476  0.00  0.00    +0.000 C 
BRANCH  14  19
ATOM     15  C   UNL     1      14.034  13.700  30.756  0.00  0.00    +0.000 A 
ATOM     16  C   UNL     1      14.828  12.586  30.640  0.00  0.00    +0.000 A 
ATOM     17  N   UNL     1      15.263  11.898  31.700  0.00  0.00    +0.000 NA
ATOM     18  C   UNL     1      14.909  12.316  32.925  0.00  0.00    +0.000 A 
ATOM     19  C   UNL     1      14.117  13.423  33.102  0.00  0.00    +0.000 A 
ATOM     20  C   UNL     1      13.672  14.126  32.006  0.00  0.00    +0.000 A 
ENDBRANCH  14  19
ENDBRANCH   1  14
TORSDOF 2
ENDMDL
MODEL 4
REMARK VINA RESULT:      -6.9      3.143      6.684
REMARK  Name = 
REMARK  2 active torsions:
REMARK  status: ('A' for Active; 'I' for Inactive)
REMARK    1  A    between atoms: C_5  and  C_6
REMARK    2  A    between atoms: C_6  and  N_7
REMARK                            x       y       z     vdW  Elec       q    Type
REMARK                         _______ _______ _______ _____ _____    ______ ____
ROOT
ATOM      1  N   UNL     1      15.728  11.798  36.079  0.00  0.00    +0.000 NA
ATOM      2  C   UNL     1      15.228  11.266  37.313  0.00  0.00    +0.000 A 
ATOM      3  N   UNL     1      13.917  11.391  37.546  0.00  0.00    +0.000 NA
ATOM      4  C   UNL     1      13.315  10.950  38.647  0.00  0.00    +0.000 A 
ATOM      5  N   UNL     1      14.083  10.341  39.574  0.00  0.00    +0.000 NA
ATOM      6  C   UNL     1      15.428  10.197  39.364  0.00  0.00    +0.000 A 
ATOM      7  S   UNL     1      16.684   9.498  40.291  0.00  0.00    +0.000 S 
ATOM      8  C   UNL     1      17.994   9.779  39.248  0.00  0.00    +0.000 A 
ATOM      9  C   UNL     1      17.420  10.416  38.194  0.00  0.00    +0.000 A 
ATOM     10  C   UNL     1      16.077  10.639  38.246  0.00  0.00    +0.000 A 
ATOM     11  C   UNL     1      18.566  10.690  37.227  0.00  0.00    +0.000 C 
ATOM     12  C   UNL     1      19.624   9.691  37.570  0.00  0.00    +0.000 C 
ATOM     13  C   UNL     1      19.470   9.595  39.068  0.00  0.00    +0.000 C 
ENDROOT
BRANCH   1  14
ATOM     14  C   UNL     1      14.892  12.431  35.119  0.00  0.00    +0.000 C 
BRANCH  14  19
ATOM     15  C   UNL     1      16.467  10.482  32.350  0.00  0.00    +0.000 A 
ATOM     16  C   UNL     1      15.849  11.075  31.277  0.00  0.00    +0.000 A 
ATOM     17  N   UNL     1      14.959  12.063  31.415  0.00  0.00    +0.000 NA
ATOM     18  C   UNL     1      14.660  12.489  32.652  0.00  0.00    +0.000 A 
ATOM     19  C   UNL     1      15.247  11.933  33.761  0.00  0.00    +0.000 A 
ATOM     20  C   UNL     1      16.163  10.917  33.612  0.00  0.00    +0.000 A 
ENDBRANCH  14  19
ENDBRANCH   1  14
TORSDOF 2
ENDMDL
MODEL 5
REMARK VINA RESULT:      -6.6      3.392      4.950
REMARK  Name = 
REMARK  2 active torsions:
REMARK  status: ('A' for Active; 'I' for Inactive)
REMARK    1  A    between atoms: C_5  and  C_6
REMARK    2  A    between atoms: C_6  and  N_7
REMARK                            x       y       z     vdW  Elec       q    Type
REMARK                         _______ _______ _______ _____ _____    ______ ____
ROOT
ATOM      1  N   UNL     1      17.130   9.914  38.299  0.00  0.00    +0.000 NA
ATOM      2  C   UNL     1      17.209  10.165  36.889  0.00  0.00    +0.000 A 
ATOM      3  N   UNL     1      18.276   9.685  36.241  0.00  0.00    +0.000 NA
ATOM      4  C   UNL     1      18.484   9.844  34.937  0.00  0.00    +0.000 A 
ATOM      5  N   UNL     1      17.557  10.531  34.239  0.00  0.00    +0.000 NA
ATOM      6  C   UNL     1      16.454  11.035  34.873  0.00  0.00    +0.000 A 
ATOM      7  S   UNL     1      15.105  11.934  34.329  0.00  0.00    +0.000 S 
ATOM      8  C   UNL     1      14.268  12.105  35.796  0.00  0.00    +0.000 A 
ATOM      9  C   UNL     1      15.063  11.454  36.684  0.00  0.00    +0.000 A 
ATOM     10  C   UNL     1      16.210  10.890  36.211  0.00  0.00    +0.000 A 
ATOM     11  C   UNL     1      14.347  11.582  38.024  0.00  0.00    +0.000 C 
ATOM     12  C   UNL     1      12.913  11.834  37.686  0.00  0.00    +0.000 C 
ATOM     13  C   UNL     1      13.043  12.677  36.441  0.00  0.00    +0.000 C 
ENDROOT
BRANCH   1  14
ATOM     14  C   UNL     1      18.122   9.182  39.007  0.00  0.00    +0.000 C 
BRANCH  14  19
ATOM     15  C   UNL     1      15.930   8.697  41.991  0.00  0.00    +0.000 A 
ATOM     16  C   UNL     1      16.461   7.525  42.472  0.00  0.00    +0.000 A 
ATOM     17  N   UNL     1      17.481   6.899  41.877  0.00  0.00    +0.000 NA
ATOM     18  C   UNL     1      18.005   7.440  40.767  0.00  0.00    +0.000 A 
ATOM     19  C   UNL     1      17.516   8.610  40.241  0.00  0.00    +0.000 A 
ATOM     20  C   UNL     1      16.465   9.249  40.859  0.00  0.00    +0.000 A 
ENDBRANCH  14  19
ENDBRANCH   1  14
TORSDOF 2
ENDMDL
MODEL 6
REMARK VINA RESULT:      -6.4     20.509     23.357
REMARK  Name = 
REMARK  2 active torsions:
REMARK  status: ('A' for Active; 'I' for Inactive)
REMARK    1  A    between atoms: C_5  and  C_6
REMARK    2  A    between atoms: C_6  and  N_7
REMARK                            x       y       z     vdW  Elec       q    Type
REMARK                         _______ _______ _______ _____ _____    ______ ____
ROOT
ATOM      1  N   UNL     1      21.505  -7.325  25.198  0.00  0.00    +0.000 NA
ATOM      2  C   UNL     1      20.297  -6.846  25.805  0.00  0.00    +0.000 A 
ATOM      3  N   UNL     1      20.027  -5.542  25.683  0.00  0.00    +0.000 NA
ATOM      4  C   UNL     1      18.948  -4.958  26.197  0.00  0.00    +0.000 A 
ATOM      5  N   UNL     1      18.084  -5.737  26.876  0.00  0.00    +0.000 NA
ATOM      6  C   UNL     1      18.331  -7.076  27.018  0.00  0.00    +0.000 A 
ATOM      7  S   UNL     1      17.483  -8.343  27.794  0.00  0.00    +0.000 S 
ATOM      8  C   UNL     1      18.531  -9.635  27.451  0.00  0.00    +0.000 A 
ATOM      9  C   UNL     1      19.525  -9.047  26.736  0.00  0.00    +0.000 A 
ATOM     10  C   UNL     1      19.429  -7.708  26.504  0.00  0.00    +0.000 A 
ATOM     11  C   UNL     1      20.494 -10.176  26.406  0.00  0.00    +0.000 C 
ATOM     12  C   UNL     1      19.689 -11.432  26.497  0.00  0.00    +0.000 C 
ATOM     13  C   UNL     1      18.754 -11.105  27.635  0.00  0.00    +0.000 C 
ENDROOT
BRANCH   1  14
ATOM     14  C   UNL     1      22.395  -6.479  24.483  0.00  0.00    +0.000 C 
BRANCH  14  19
ATOM     15  C   UNL     1      25.874  -7.307  23.407  0.00  0.00    +0.000 A 
ATOM     16  C   UNL     1      25.854  -8.665  23.607  0.00  0.00    +0.000 A 
ATOM     17  N   UNL     1      24.778  -9.309  24.069  0.00  0.00    +0.000 NA
ATOM     18  C   UNL     1      23.675  -8.597  24.346  0.00  0.00    +0.000 A 
ATOM     19  C   UNL     1      23.636  -7.237  24.165  0.00  0.00    +0.000 A 
ATOM     20  C   UNL     1      24.748  -6.581  23.689  0.00  0.00    +0.000 A 
ENDBRANCH  14  19
ENDBRANCH   1  14
TORSDOF 2
ENDMDL
MODEL 7
REMARK VINA RESULT:      -6.2     21.670     24.478
REMARK  Name = 
REMARK  2 active torsions:
REMARK  status: ('A' for Active; 'I' for Inactive)
REMARK    1  A    between atoms: C_5  and  C_6
REMARK    2  A    between atoms: C_6  and  N_7
REMARK                            x       y       z     vdW  Elec       q    Type
REMARK                         _______ _______ _______ _____ _____    ______ ____
ROOT
ATOM      1  N   UNL     1      33.488  -4.565  33.561  0.00  0.00    +0.000 NA
ATOM      2  C   UNL     1      32.389  -5.473  33.402  0.00  0.00    +0.000 A 
ATOM      3  N   UNL     1      31.579  -5.644  34.452  0.00  0.00    +0.000 NA
ATOM      4  C   UNL     1      30.526  -6.455  34.451  0.00  0.00    +0.000 A 
ATOM      5  N   UNL     1      30.269  -7.139  33.317  0.00  0.00    +0.000 NA
ATOM      6  C   UNL     1      31.079  -6.986  32.225  0.00  0.00    +0.000 A 
ATOM      7  S   UNL     1      31.065  -7.671  30.657  0.00  0.00    +0.000 S 
ATOM      8  C   UNL     1      32.430  -6.903  30.002  0.00  0.00    +0.000 A 
ATOM      9  C   UNL     1      32.870  -6.125  31.025  0.00  0.00    +0.000 A 
ATOM     10  C   UNL     1      32.170  -6.162  32.193  0.00  0.00    +0.000 A 
ATOM     11  C   UNL     1      34.102  -5.413  30.478  0.00  0.00    +0.000 C 
ATOM     12  C   UNL     1      33.946  -5.432  28.992  0.00  0.00    +0.000 C 
ATOM     13  C   UNL     1      33.284  -6.772  28.778  0.00  0.00    +0.000 C 
ENDROOT
BRANCH   1  14
ATOM     14  C   UNL     1      33.730  -3.854  34.768  0.00  0.00    +0.000 C 
BRANCH  14  19
ATOM     15  C   UNL     1      33.525  -0.365  33.454  0.00  0.00    +0.000 A 
ATOM     16  C   UNL     1      32.565   0.138  34.297  0.00  0.00    +0.000 A 
ATOM     17  N   UNL     1      31.993  -0.597  35.256  0.00  0.00    +0.000 NA
ATOM     18  C   UNL     1      32.375  -1.876  35.397  0.00  0.00    +0.000 A 
ATOM     19  C   UNL     1      33.331  -2.432  34.583  0.00  0.00    +0.000 A 
ATOM     20  C   UNL     1      33.915  -1.669  33.598  0.00  0.00    +0.000 A 
ENDBRANCH  14  19
ENDBRANCH   1  14
TORSDOF 2
ENDMDL
MODEL 8
REMARK VINA RESULT:      -6.2     18.092     20.475
REMARK  Name = 
REMARK  2 active torsions:
REMARK  status: ('A' for Active; 'I' for Inactive)
REMARK    1  A    between atoms: C_5  and  C_6
REMARK    2  A    between atoms: C_6  and  N_7
REMARK                            x       y       z     vdW  Elec       q    Type
REMARK                         _______ _______ _______ _____ _____    ______ ____
ROOT
ATOM      1  N   UNL     1      27.719  22.835  26.761  0.00  0.00    +0.000 NA
ATOM      2  C   UNL     1      27.499  23.190  28.133  0.00  0.00    +0.000 A 
ATOM      3  N   UNL     1      26.261  23.562  28.477  0.00  0.00    +0.000 NA
ATOM      4  C   UNL     1      25.911  23.921  29.709  0.00  0.00    +0.000 A 
ATOM      5  N   UNL     1      26.869  23.904  30.657  0.00  0.00    +0.000 NA
ATOM      6  C   UNL     1      28.146  23.528  30.337  0.00  0.00    +0.000 A 
ATOM      7  S   UNL     1      29.585  23.390  31.251  0.00  0.00    +0.000 S 
ATOM      8  C   UNL     1      30.644  22.865  30.033  0.00  0.00    +0.000 A 
ATOM      9  C   UNL     1      29.849  22.809  28.933  0.00  0.00    +0.000 A 
ATOM     10  C   UNL     1      28.539  23.154  29.082  0.00  0.00    +0.000 A 
ATOM     11  C   UNL     1      30.763  22.339  27.807  0.00  0.00    +0.000 C 
ATOM     12  C   UNL     1      31.896  21.636  28.482  0.00  0.00    +0.000 C 
ATOM     13  C   UNL     1      32.056  22.461  29.736  0.00  0.00    +0.000 C 
ENDROOT
BRANCH   1  14
ATOM     14  C   UNL     1      26.687  22.859  25.785  0.00  0.00    +0.000 C 
BRANCH  14  19
ATOM     15  C   UNL     1      29.160  23.576  23.080  0.00  0.00    +0.000 A 
ATOM     16  C   UNL     1      28.296  23.754  22.027  0.00  0.00    +0.000 A 
ATOM     17  N   UNL     1      26.970  23.653  22.158  0.00  0.00    +0.000 NA
ATOM     18  C   UNL     1      26.466  23.365  23.368  0.00  0.00    +0.000 A 
ATOM     19  C   UNL     1      27.281  23.177  24.457  0.00  0.00    +0.000 A 
ATOM     20  C   UNL     1      28.646  23.283  24.314  0.00  0.00    +0.000 A 
ENDBRANCH  14  19
ENDBRANCH   1  14
TORSDOF 2
ENDMDL
MODEL 9
REMARK VINA RESULT:      -6.2     18.322     20.077
REMARK  Name = 
REMARK  2 active torsions:
REMARK  status: ('A' for Active; 'I' for Inactive)
REMARK    1  A    between atoms: C_5  and  C_6
REMARK    2  A    between atoms: C_6  and  N_7
REMARK                            x       y       z     vdW  Elec       q    Type
REMARK                         _______ _______ _______ _____ _____    ______ ____
ROOT
ATOM      1  N   UNL     1      29.583  22.701  29.169  0.00  0.00    +0.000 NA
ATOM      2  C   UNL     1      28.298  23.085  28.661  0.00  0.00    +0.000 A 
ATOM      3  N   UNL     1      27.345  23.366  29.556  0.00  0.00    +0.000 NA
ATOM      4  C   UNL     1      26.108  23.731  29.231  0.00  0.00    +0.000 A 
ATOM      5  N   UNL     1      25.811  23.820  27.919  0.00  0.00    +0.000 NA
ATOM      6  C   UNL     1      26.764  23.540  26.978  0.00  0.00    +0.000 A 
ATOM      7  S   UNL     1      26.751  23.544  25.268  0.00  0.00    +0.000 S 
ATOM      8  C   UNL     1      28.355  23.071  24.972  0.00  0.00    +0.000 A 
ATOM      9  C   UNL     1      28.868  22.918  26.221  0.00  0.00    +0.000 A 
ATOM     10  C   UNL     1      28.043  23.161  27.277  0.00  0.00    +0.000 A 
ATOM     11  C   UNL     1      30.315  22.491  26.003  0.00  0.00    +0.000 C 
ATOM     12  C   UNL     1      30.669  22.966  24.631  0.00  0.00    +0.000 C 
ATOM     13  C   UNL     1      29.361  22.776  23.903  0.00  0.00    +0.000 C 
ENDROOT
BRANCH   1  14
ATOM     14  C   UNL     1      29.867  22.620  30.559  0.00  0.00    +0.000 C 
BRANCH  14  19
ATOM     15  C   UNL     1      33.360  21.494  29.867  0.00  0.00    +0.000 A 
ATOM     16  C   UNL     1      33.740  21.145  31.139  0.00  0.00    +0.000 A 
ATOM     17  N   UNL     1      32.924  21.258  32.191  0.00  0.00    +0.000 NA
ATOM     18  C   UNL     1      31.685  21.732  31.993  0.00  0.00    +0.000 A 
ATOM     19  C   UNL     1      31.249  22.097  30.743  0.00  0.00    +0.000 A 
ATOM     20  C   UNL     1      32.096  21.978  29.664  0.00  0.00    +0.000 A 
ENDBRANCH  14  19
ENDBRANCH   1  14
TORSDOF 2
ENDMDL
MODEL 10
REMARK VINA RESULT:      -6.1     17.726     20.445
REMARK  Name = 
REMARK  2 active torsions:
REMARK  status: ('A' for Active; 'I' for Inactive)
REMARK    1  A    between atoms: C_5  and  C_6
REMARK    2  A    between atoms: C_6  and  N_7
REMARK                            x       y       z     vdW  Elec       q    Type
REMARK                         _______ _______ _______ _____ _____    ______ ____
ROOT
ATOM      1  N   UNL     1      25.880  23.441  25.492  0.00  0.00    +0.000 NA
ATOM      2  C   UNL     1      25.244  24.620  26.005  0.00  0.00    +0.000 A 
ATOM      3  N   UNL     1      24.627  25.414  25.123  0.00  0.00    +0.000 NA
ATOM      4  C   UNL     1      24.000  26.540  25.453  0.00  0.00    +0.000 A 
ATOM      5  N   UNL     1      23.992  26.889  26.755  0.00  0.00    +0.000 NA
ATOM      6  C   UNL     1      24.614  26.097  27.682  0.00  0.00    +0.000 A 
ATOM      7  S   UNL     1      24.807  26.217  29.377  0.00  0.00    +0.000 S 
ATOM      8  C   UNL     1      25.704  24.803  29.660  0.00  0.00    +0.000 A 
ATOM      9  C   UNL     1      25.835  24.265  28.419  0.00  0.00    +0.000 A 
ATOM     10  C   UNL     1      25.268  24.935  27.377  0.00  0.00    +0.000 A 
ATOM     11  C   UNL     1      26.639  22.987  28.626  0.00  0.00    +0.000 C 
ATOM     12  C   UNL     1      26.433  22.614  30.059  0.00  0.00    +0.000 C 
ATOM     13  C   UNL     1      26.369  23.972  30.714  0.00  0.00    +0.000 C 
ENDROOT
BRANCH   1  14
ATOM     14  C   UNL     1      25.867  23.098  24.113  0.00  0.00    +0.000 C 
BRANCH  14  19
ATOM     15  C   UNL     1      29.506  23.686  23.512  0.00  0.00    +0.000 A 
ATOM     16  C   UNL     1      29.431  24.354  22.315  0.00  0.00    +0.000 A 
ATOM     17  N   UNL     1      28.269  24.615  21.707  0.00  0.00    +0.000 NA
ATOM     18  C   UNL     1      27.134  24.207  22.294  0.00  0.00    +0.000 A 
ATOM     19  C   UNL     1      27.147  23.536  23.491  0.00  0.00    +0.000 A 
ATOM     20  C   UNL     1      28.347  23.270  24.110  0.00  0.00    +0.000 A 
ENDBRANCH  14  19
ENDBRANCH   1  14
TORSDOF 2
ENDMDL
