MODEL 1
REMARK VINA RESULT:      -8.4      0.000      0.000
REMARK  Name = 
REMARK  2 active torsions:
REMARK  status: ('A' for Active; 'I' for Inactive)
REMARK    1  A    between atoms: C_6  and  C_7
REMARK    2  A    between atoms: C_7  and  C_8
REMARK                            x       y       z     vdW  Elec       q    Type
REMARK                         _______ _______ _______ _____ _____    ______ ____
ROOT
ATOM      1  C   UNL     1      13.046  14.873  33.988  0.00  0.00    +0.000 C 
ATOM      2  C   UNL     1      13.956  13.689  33.886  0.00  0.00    +0.000 A 
ATOM      3  C   UNL     1      14.540  13.181  35.040  0.00  0.00    +0.000 A 
ATOM      4  C   UNL     1      15.391  12.085  35.006  0.00  0.00    +0.000 A 
ATOM      5  N   UNL     1      15.961  11.589  36.120  0.00  0.00    +0.000 NA
ATOM      6  C   UNL     1      16.790  10.526  36.105  0.00  0.00    +0.000 A 
ATOM      7  C   UNL     1      17.077   9.910  34.909  0.00  0.00    +0.000 A 
ATOM      8  O   UNL     1      17.844   8.909  34.809  0.00  0.00    +0.000 OA
ATOM      9  N   UNL     1      16.513  10.394  33.772  0.00  0.00    +0.000 NA
ATOM     10  C   UNL     1      15.681  11.465  33.809  0.00  0.00    +0.000 A 
ATOM     11  C   UNL     1      15.094  11.980  32.667  0.00  0.00    +0.000 A 
ATOM     12  C   UNL     1      14.247  13.067  32.690  0.00  0.00    +0.000 A 
ATOM     13  C   UNL     1      13.621  13.613  31.457  0.00  0.00    +0.000 C 
ENDROOT
BRANCH   6  14
ATOM     14  C   UNL     1      17.399  10.007  37.355  0.00  0.00    +0.000 C 
BRANCH  14  15
ATOM     15  C   UNL     1      18.734  10.616  37.605  0.00  0.00    +0.000 A 
ATOM     16  C   UNL     1      18.931  11.911  38.012  0.00  0.00    +0.000 A 
ATOM     17  C   UNL     1      20.223  12.412  38.225  0.00  0.00    +0.000 A 
ATOM     18  C   UNL     1      21.316  11.578  38.020  0.00  0.00    +0.000 A 
ATOM     19  C   UNL     1      21.134  10.281  37.613  0.00  0.00    +0.000 A 
ATOM     20  F   UNL     1      22.232   9.501  37.425  0.00  0.00    +0.000 F 
ATOM     21  C   UNL     1      19.845   9.823  37.412  0.00  0.00    +0.000 A 
ENDBRANCH  14  15
ENDBRANCH   6  14
TORSDOF 2
ENDMDL
MODEL 2
REMARK VINA RESULT:      -7.2     20.611     22.832
REMARK  Name = 
REMARK  2 active torsions:
REMARK  status: ('A' for Active; 'I' for Inactive)
REMARK    1  A    between atoms: C_6  and  C_7
REMARK    2  A    between atoms: C_7  and  C_8
REMARK                            x       y       z     vdW  Elec       q    Type
REMARK                         _______ _______ _______ _____ _____    ______ ____
ROOT
ATOM      1  C   UNL     1      23.908  -9.784  24.638  0.00  0.00    +0.000 C 
ATOM      2  C   UNL     1      22.944  -8.662  24.867  0.00  0.00    +0.000 A 
ATOM      3  C   UNL     1      21.770  -8.910  25.568  0.00  0.00    +0.000 A 
ATOM      4  C   UNL     1      20.840  -7.909  25.811  0.00  0.00    +0.000 A 
ATOM      5  N   UNL     1      19.700  -8.143  26.488  0.00  0.00    +0.000 NA
ATOM      6  C   UNL     1      18.786  -7.183  26.732  0.00  0.00    +0.000 A 
ATOM      7  C   UNL     1      19.012  -5.905  26.278  0.00  0.00    +0.000 A 
ATOM      8  O   UNL     1      18.205  -4.948  26.466  0.00  0.00    +0.000 OA
ATOM      9  N   UNL     1      20.155  -5.646  25.593  0.00  0.00    +0.000 NA
ATOM     10  C   UNL     1      21.062  -6.626  25.357  0.00  0.00    +0.000 A 
ATOM     11  C   UNL     1      22.234  -6.392  24.662  0.00  0.00    +0.000 A 
ATOM     12  C   UNL     1      23.164  -7.379  24.414  0.00  0.00    +0.000 A 
ATOM     13  C   UNL     1      24.422  -7.116  23.666  0.00  0.00    +0.000 C 
ENDROOT
BRANCH   6  14
ATOM     14  C   UNL     1      17.540  -7.480  27.483  0.00  0.00    +0.000 C 
BRANCH  14  15
ATOM     15  C   UNL     1      16.682  -8.451  26.753  0.00  0.00    +0.000 A 
ATOM     16  C   UNL     1      16.508  -9.761  27.120  0.00  0.00    +0.000 A 
ATOM     17  C   UNL     1      15.681 -10.615  26.376  0.00  0.00    +0.000 A 
ATOM     18  C   UNL     1      15.030 -10.120  25.252  0.00  0.00    +0.000 A 
ATOM     19  C   UNL     1      15.195  -8.812  24.874  0.00  0.00    +0.000 A 
ATOM     20  F   UNL     1      14.538  -8.371  23.767  0.00  0.00    +0.000 F 
ATOM     21  C   UNL     1      16.018  -8.000  25.631  0.00  0.00    +0.000 A 
ENDBRANCH  14  15
ENDBRANCH   6  14
TORSDOF 2
ENDMDL
MODEL 3
REMARK VINA RESULT:      -7.1      3.201      4.056
REMARK  Name = 
REMARK  2 active torsions:
REMARK  status: ('A' for Active; 'I' for Inactive)
REMARK    1  A    between atoms: C_6  and  C_7
REMARK    2  A    between atoms: C_7  and  C_8
REMARK                            x       y       z     vdW  Elec       q    Type
REMARK                         _______ _______ _______ _____ _____    ______ ____
ROOT
ATOM      1  C   UNL     1      12.838  12.937  36.490  0.00  0.00    +0.000 C 
ATOM      2  C   UNL     1      14.194  12.351  36.251  0.00  0.00    +0.000 A 
ATOM      3  C   UNL     1      14.860  11.730  37.301  0.00  0.00    +0.000 A 
ATOM      4  C   UNL     1      16.118  11.168  37.137  0.00  0.00    +0.000 A 
ATOM      5  N   UNL     1      16.768  10.566  38.151  0.00  0.00    +0.000 NA
ATOM      6  C   UNL     1      17.991  10.016  38.010  0.00  0.00    +0.000 A 
ATOM      7  C   UNL     1      18.615  10.064  36.785  0.00  0.00    +0.000 A 
ATOM      8  O   UNL     1      19.761   9.572  36.570  0.00  0.00    +0.000 OA
ATOM      9  N   UNL     1      17.978  10.666  35.749  0.00  0.00    +0.000 NA
ATOM     10  C   UNL     1      16.748  11.214  35.912  0.00  0.00    +0.000 A 
ATOM     11  C   UNL     1      16.076  11.834  34.874  0.00  0.00    +0.000 A 
ATOM     12  C   UNL     1      14.825  12.395  35.026  0.00  0.00    +0.000 A 
ATOM     13  C   UNL     1      14.111  13.060  33.904  0.00  0.00    +0.000 C 
ENDROOT
BRANCH   6  14
ATOM     14  C   UNL     1      18.676   9.360  39.152  0.00  0.00    +0.000 C 
BRANCH  14  15
ATOM     15  C   UNL     1      17.699   8.779  40.112  0.00  0.00    +0.000 A 
ATOM     16  C   UNL     1      16.744   9.502  40.780  0.00  0.00    +0.000 A 
ATOM     17  C   UNL     1      15.860   8.880  41.672  0.00  0.00    +0.000 A 
ATOM     18  C   UNL     1      15.957   7.508  41.878  0.00  0.00    +0.000 A 
ATOM     19  C   UNL     1      16.908   6.772  41.217  0.00  0.00    +0.000 A 
ATOM     20  F   UNL     1      16.967   5.433  41.449  0.00  0.00    +0.000 F 
ATOM     21  C   UNL     1      17.763   7.421  40.345  0.00  0.00    +0.000 A 
ENDBRANCH  14  15
ENDBRANCH   6  14
TORSDOF 2
ENDMDL
MODEL 4
REMARK VINA RESULT:      -6.9      1.947      3.074
REMARK  Name = 
REMARK  2 active torsions:
REMARK  status: ('A' for Active; 'I' for Inactive)
REMARK    1  A    between atoms: C_6  and  C_7
REMARK    2  A    between atoms: C_7  and  C_8
REMARK                            x       y       z     vdW  Elec       q    Type
REMARK                         _______ _______ _______ _____ _____    ______ ____
ROOT
ATOM      1  C   UNL     1      14.087  13.408  34.304  0.00  0.00    +0.000 C 
ATOM      2  C   UNL     1      14.596  12.609  35.462  0.00  0.00    +0.000 A 
ATOM      3  C   UNL     1      15.907  12.148  35.444  0.00  0.00    +0.000 A 
ATOM      4  C   UNL     1      16.434  11.403  36.490  0.00  0.00    +0.000 A 
ATOM      5  N   UNL     1      17.703  10.953  36.477  0.00  0.00    +0.000 NA
ATOM      6  C   UNL     1      18.230  10.229  37.484  0.00  0.00    +0.000 A 
ATOM      7  C   UNL     1      17.453   9.927  38.578  0.00  0.00    +0.000 A 
ATOM      8  O   UNL     1      17.872   9.252  39.563  0.00  0.00    +0.000 OA
ATOM      9  N   UNL     1      16.170  10.370  38.612  0.00  0.00    +0.000 NA
ATOM     10  C   UNL     1      15.658  11.098  37.588  0.00  0.00    +0.000 A 
ATOM     11  C   UNL     1      14.355  11.562  37.595  0.00  0.00    +0.000 A 
ATOM     12  C   UNL     1      13.822  12.303  36.561  0.00  0.00    +0.000 A 
ATOM     13  C   UNL     1      12.420  12.797  36.579  0.00  0.00    +0.000 C 
ENDROOT
BRANCH   6  14
ATOM     14  C   UNL     1      19.634   9.750  37.435  0.00  0.00    +0.000 C 
BRANCH  14  15
ATOM     15  C   UNL     1      20.588  10.819  37.838  0.00  0.00    +0.000 A 
ATOM     16  C   UNL     1      20.261  11.895  38.622  0.00  0.00    +0.000 A 
ATOM     17  C   UNL     1      21.219  12.862  38.958  0.00  0.00    +0.000 A 
ATOM     18  C   UNL     1      22.519  12.721  38.486  0.00  0.00    +0.000 A 
ATOM     19  C   UNL     1      22.861  11.650  37.700  0.00  0.00    +0.000 A 
ATOM     20  F   UNL     1      24.144  11.553  37.260  0.00  0.00    +0.000 F 
ATOM     21  C   UNL     1      21.889  10.717  37.389  0.00  0.00    +0.000 A 
ENDBRANCH  14  15
ENDBRANCH   6  14
TORSDOF 2
ENDMDL
MODEL 5
REMARK VINA RESULT:      -6.9     29.557     31.251
REMARK  Name = 
REMARK  2 active torsions:
REMARK  status: ('A' for Active; 'I' for Inactive)
REMARK    1  A    between atoms: C_6  and  C_7
REMARK    2  A    between atoms: C_7  and  C_8
REMARK                            x       y       z     vdW  Elec       q    Type
REMARK                         _______ _______ _______ _____ _____    ______ ____
ROOT
ATOM      1  C   UNL     1      28.303  24.498  14.365  0.00  0.00    +0.000 C 
ATOM      2  C   UNL     1      28.663  23.645  13.189  0.00  0.00    +0.000 A 
ATOM      3  C   UNL     1      29.997  23.528  12.818  0.00  0.00    +0.000 A 
ATOM      4  C   UNL     1      30.389  22.752  11.737  0.00  0.00    +0.000 A 
ATOM      5  N   UNL     1      31.680  22.636  11.373  0.00  0.00    +0.000 NA
ATOM      6  C   UNL     1      32.079  21.886  10.326  0.00  0.00    +0.000 A 
ATOM      7  C   UNL     1      31.140  21.205   9.587  0.00  0.00    +0.000 A 
ATOM      8  O   UNL     1      31.431  20.481   8.591  0.00  0.00    +0.000 OA
ATOM      9  N   UNL     1      29.832  21.307   9.937  0.00  0.00    +0.000 NA
ATOM     10  C   UNL     1      29.451  22.067  10.994  0.00  0.00    +0.000 A 
ATOM     11  C   UNL     1      28.127  22.190  11.372  0.00  0.00    +0.000 A 
ATOM     12  C   UNL     1      27.726  22.959  12.444  0.00  0.00    +0.000 A 
ATOM     13  C   UNL     1      26.299  23.085  12.843  0.00  0.00    +0.000 C 
ENDROOT
BRANCH   6  14
ATOM     14  C   UNL     1      33.512  21.783   9.955  0.00  0.00    +0.000 C 
BRANCH  14  15
ATOM     15  C   UNL     1      34.026  23.065   9.400  0.00  0.00    +0.000 A 
ATOM     16  C   UNL     1      33.717  23.550   8.155  0.00  0.00    +0.000 A 
ATOM     17  C   UNL     1      34.243  24.769   7.704  0.00  0.00    +0.000 A 
ATOM     18  C   UNL     1      35.091  25.491   8.537  0.00  0.00    +0.000 A 
ATOM     19  C   UNL     1      35.409  25.017   9.784  0.00  0.00    +0.000 A 
ATOM     20  F   UNL     1      36.243  25.757  10.564  0.00  0.00    +0.000 F 
ATOM     21  C   UNL     1      34.871  23.811  10.194  0.00  0.00    +0.000 A 
ENDBRANCH  14  15
ENDBRANCH   6  14
TORSDOF 2
ENDMDL
MODEL 6
REMARK VINA RESULT:      -6.8     20.371     22.427
REMARK  Name = 
REMARK  2 active torsions:
REMARK  status: ('A' for Active; 'I' for Inactive)
REMARK    1  A    between atoms: C_6  and  C_7
REMARK    2  A    between atoms: C_7  and  C_8
REMARK                            x       y       z     vdW  Elec       q    Type
REMARK                         _______ _______ _______ _____ _____    ______ ____
ROOT
ATOM      1  C   UNL     1      24.043  -9.582  24.220  0.00  0.00    +0.000 C 
ATOM      2  C   UNL     1      23.050  -8.518  24.570  0.00  0.00    +0.000 A 
ATOM      3  C   UNL     1      21.849  -8.881  25.167  0.00  0.00    +0.000 A 
ATOM      4  C   UNL     1      20.892  -7.938  25.514  0.00  0.00    +0.000 A 
ATOM      5  N   UNL     1      19.726  -8.283  26.092  0.00  0.00    +0.000 NA
ATOM      6  C   UNL     1      18.786  -7.380  26.434  0.00  0.00    +0.000 A 
ATOM      7  C   UNL     1      19.011  -6.046  26.191  0.00  0.00    +0.000 A 
ATOM      8  O   UNL     1      18.180  -5.137  26.482  0.00  0.00    +0.000 OA
ATOM      9  N   UNL     1      20.180  -5.674  25.609  0.00  0.00    +0.000 NA
ATOM     10  C   UNL     1      21.113  -6.599  25.272  0.00  0.00    +0.000 A 
ATOM     11  C   UNL     1      22.312  -6.250  24.677  0.00  0.00    +0.000 A 
ATOM     12  C   UNL     1      23.270  -7.178  24.329  0.00  0.00    +0.000 A 
ATOM     13  C   UNL     1      24.556  -6.792  23.690  0.00  0.00    +0.000 C 
ENDROOT
BRANCH   6  14
ATOM     14  C   UNL     1      17.512  -7.800  27.070  0.00  0.00    +0.000 C 
BRANCH  14  15
ATOM     15  C   UNL     1      17.717  -8.947  27.996  0.00  0.00    +0.000 A 
ATOM     16  C   UNL     1      17.126 -10.176  27.851  0.00  0.00    +0.000 A 
ATOM     17  C   UNL     1      17.370 -11.207  28.769  0.00  0.00    +0.000 A 
ATOM     18  C   UNL     1      18.225 -10.973  29.841  0.00  0.00    +0.000 A 
ATOM     19  C   UNL     1      18.821  -9.749  29.999  0.00  0.00    +0.000 A 
ATOM     20  F   UNL     1      19.650  -9.565  31.062  0.00  0.00    +0.000 F 
ATOM     21  C   UNL     1      18.557  -8.756  29.074  0.00  0.00    +0.000 A 
ENDBRANCH  14  15
ENDBRANCH   6  14
TORSDOF 2
ENDMDL
MODEL 7
REMARK VINA RESULT:      -6.8     28.962     30.384
REMARK  Name = 
REMARK  2 active torsions:
REMARK  status: ('A' for Active; 'I' for Inactive)
REMARK    1  A    between atoms: C_6  and  C_7
REMARK    2  A    between atoms: C_7  and  C_8
REMARK                            x       y       z     vdW  Elec       q    Type
REMARK                         _______ _______ _______ _____ _____    ______ ____
ROOT
ATOM      1  C   UNL     1      28.324  24.284  14.049  0.00  0.00    +0.000 C 
ATOM      2  C   UNL     1      28.796  23.468  12.886  0.00  0.00    +0.000 A 
ATOM      3  C   UNL     1      30.147  23.468  12.562  0.00  0.00    +0.000 A 
ATOM      4  C   UNL     1      30.642  22.731  11.495  0.00  0.00    +0.000 A 
ATOM      5  N   UNL     1      31.950  22.728  11.175  0.00  0.00    +0.000 NA
ATOM      6  C   UNL     1      32.447  22.018  10.143  0.00  0.00    +0.000 A 
ATOM      7  C   UNL     1      31.596  21.260   9.373  0.00  0.00    +0.000 A 
ATOM      8  O   UNL     1      31.983  20.566   8.388  0.00  0.00    +0.000 OA
ATOM      9  N   UNL     1      30.273  21.248   9.677  0.00  0.00    +0.000 NA
ATOM     10  C   UNL     1      29.792  21.969  10.721  0.00  0.00    +0.000 A 
ATOM     11  C   UNL     1      28.450  21.977  11.053  0.00  0.00    +0.000 A 
ATOM     12  C   UNL     1      27.948  22.706  12.110  0.00  0.00    +0.000 A 
ATOM     13  C   UNL     1      26.503  22.707  12.459  0.00  0.00    +0.000 C 
ENDROOT
BRANCH   6  14
ATOM     14  C   UNL     1      33.896  22.039   9.821  0.00  0.00    +0.000 C 
BRANCH  14  15
ATOM     15  C   UNL     1      34.691  21.298  10.838  0.00  0.00    +0.000 A 
ATOM     16  C   UNL     1      34.193  20.297  11.633  0.00  0.00    +0.000 A 
ATOM     17  C   UNL     1      35.008  19.647  12.570  0.00  0.00    +0.000 A 
ATOM     18  C   UNL     1      36.340  20.028  12.691  0.00  0.00    +0.000 A 
ATOM     19  C   UNL     1      36.851  21.028  11.903  0.00  0.00    +0.000 A 
ATOM     20  F   UNL     1      38.159  21.367  12.056  0.00  0.00    +0.000 F 
ATOM     21  C   UNL     1      36.017  21.646  10.990  0.00  0.00    +0.000 A 
ENDBRANCH  14  15
ENDBRANCH   6  14
TORSDOF 2
ENDMDL
MODEL 8
REMARK VINA RESULT:      -6.7      2.886      6.863
REMARK  Name = 
REMARK  2 active torsions:
REMARK  status: ('A' for Active; 'I' for Inactive)
REMARK    1  A    between atoms: C_6  and  C_7
REMARK    2  A    between atoms: C_7  and  C_8
REMARK                            x       y       z     vdW  Elec       q    Type
REMARK                         _______ _______ _______ _____ _____    ______ ____
ROOT
ATOM      1  C   UNL     1      21.627  15.677  39.003  0.00  0.00    +0.000 C 
ATOM      2  C   UNL     1      21.257  14.251  38.743  0.00  0.00    +0.000 A 
ATOM      3  C   UNL     1      19.963  13.949  38.339  0.00  0.00    +0.000 A 
ATOM      4  C   UNL     1      19.563  12.644  38.083  0.00  0.00    +0.000 A 
ATOM      5  N   UNL     1      18.310  12.345  37.692  0.00  0.00    +0.000 NA
ATOM      6  C   UNL     1      17.906  11.084  37.440  0.00  0.00    +0.000 A 
ATOM      7  C   UNL     1      18.798  10.048  37.583  0.00  0.00    +0.000 A 
ATOM      8  O   UNL     1      18.498   8.838  37.366  0.00  0.00    +0.000 OA
ATOM      9  N   UNL     1      20.067  10.326  37.976  0.00  0.00    +0.000 NA
ATOM     10  C   UNL     1      20.455  11.602  38.225  0.00  0.00    +0.000 A 
ATOM     11  C   UNL     1      21.740  11.915  38.627  0.00  0.00    +0.000 A 
ATOM     12  C   UNL     1      22.147  13.207  38.884  0.00  0.00    +0.000 A 
ATOM     13  C   UNL     1      23.532  13.533  39.316  0.00  0.00    +0.000 C 
ENDROOT
BRANCH   6  14
ATOM     14  C   UNL     1      16.515  10.794  37.011  0.00  0.00    +0.000 C 
BRANCH  14  15
ATOM     15  C   UNL     1      16.339  11.012  35.549  0.00  0.00    +0.000 A 
ATOM     16  C   UNL     1      17.043  10.349  34.576  0.00  0.00    +0.000 A 
ATOM     17  C   UNL     1      16.819  10.613  33.218  0.00  0.00    +0.000 A 
ATOM     18  C   UNL     1      15.867  11.561  32.858  0.00  0.00    +0.000 A 
ATOM     19  C   UNL     1      15.156  12.231  33.821  0.00  0.00    +0.000 A 
ATOM     20  F   UNL     1      14.235  13.150  33.423  0.00  0.00    +0.000 F 
ATOM     21  C   UNL     1      15.405  11.945  35.150  0.00  0.00    +0.000 A 
ENDBRANCH  14  15
ENDBRANCH   6  14
TORSDOF 2
ENDMDL
MODEL 9
REMARK VINA RESULT:      -6.7      1.685      2.639
REMARK  Name = 
REMARK  2 active torsions:
REMARK  status: ('A' for Active; 'I' for Inactive)
REMARK    1  A    between atoms: C_6  and  C_7
REMARK    2  A    between atoms: C_7  and  C_8
REMARK                            x       y       z     vdW  Elec       q    Type
REMARK                         _______ _______ _______ _____ _____    ______ ____
ROOT
ATOM      1  C   UNL     1      14.545  13.223  32.378  0.00  0.00    +0.000 C 
ATOM      2  C   UNL     1      14.805  12.787  33.786  0.00  0.00    +0.000 A 
ATOM      3  C   UNL     1      15.820  11.872  34.036  0.00  0.00    +0.000 A 
ATOM      4  C   UNL     1      16.107  11.432  35.321  0.00  0.00    +0.000 A 
ATOM      5  N   UNL     1      17.088  10.545  35.570  0.00  0.00    +0.000 NA
ATOM      6  C   UNL     1      17.379  10.107  36.811  0.00  0.00    +0.000 A 
ATOM      7  C   UNL     1      16.653  10.576  37.880  0.00  0.00    +0.000 A 
ATOM      8  O   UNL     1      16.863  10.215  39.075  0.00  0.00    +0.000 OA
ATOM      9  N   UNL     1      15.658  11.471  37.653  0.00  0.00    +0.000 NA
ATOM     10  C   UNL     1      15.380  11.900  36.396  0.00  0.00    +0.000 A 
ATOM     11  C   UNL     1      14.373  12.810  36.134  0.00  0.00    +0.000 A 
ATOM     12  C   UNL     1      14.080  13.253  34.862  0.00  0.00    +0.000 A 
ATOM     13  C   UNL     1      12.994  14.233  34.592  0.00  0.00    +0.000 C 
ENDROOT
BRANCH   6  14
ATOM     14  C   UNL     1      18.470   9.128  37.046  0.00  0.00    +0.000 C 
BRANCH  14  15
ATOM     15  C   UNL     1      19.795   9.799  37.136  0.00  0.00    +0.000 A 
ATOM     16  C   UNL     1      20.875   9.494  36.348  0.00  0.00    +0.000 A 
ATOM     17  C   UNL     1      22.092  10.174  36.497  0.00  0.00    +0.000 A 
ATOM     18  C   UNL     1      22.199  11.172  37.459  0.00  0.00    +0.000 A 
ATOM     19  C   UNL     1      21.127  11.487  38.254  0.00  0.00    +0.000 A 
ATOM     20  F   UNL     1      21.278  12.470  39.182  0.00  0.00    +0.000 F 
ATOM     21  C   UNL     1      19.944  10.795  38.079  0.00  0.00    +0.000 A 
ENDBRANCH  14  15
ENDBRANCH   6  14
TORSDOF 2
ENDMDL
MODEL 10
REMARK VINA RESULT:      -6.6     17.962     19.918
REMARK  Name = 
REMARK  2 active torsions:
REMARK  status: ('A' for Active; 'I' for Inactive)
REMARK    1  A    between atoms: C_6  and  C_7
REMARK    2  A    between atoms: C_7  and  C_8
REMARK                            x       y       z     vdW  Elec       q    Type
REMARK                         _______ _______ _______ _____ _____    ______ ____
ROOT
ATOM      1  C   UNL     1      33.927  -1.607  37.513  0.00  0.00    +0.000 C 
ATOM      2  C   UNL     1      33.914  -0.868  36.212  0.00  0.00    +0.000 A 
ATOM      3  C   UNL     1      33.744   0.511  36.217  0.00  0.00    +0.000 A 
ATOM      4  C   UNL     1      33.724   1.249  35.041  0.00  0.00    +0.000 A 
ATOM      5  N   UNL     1      33.559   2.585  35.040  0.00  0.00    +0.000 NA
ATOM      6  C   UNL     1      33.537   3.316  33.908  0.00  0.00    +0.000 A 
ATOM      7  C   UNL     1      33.688   2.687  32.695  0.00  0.00    +0.000 A 
ATOM      8  O   UNL     1      33.679   3.301  31.588  0.00  0.00    +0.000 OA
ATOM      9  N   UNL     1      33.856   1.340  32.672  0.00  0.00    +0.000 NA
ATOM     10  C   UNL     1      33.875   0.622  33.823  0.00  0.00    +0.000 A 
ATOM     11  C   UNL     1      34.044  -0.751  33.830  0.00  0.00    +0.000 A 
ATOM     12  C   UNL     1      34.065  -1.493  34.992  0.00  0.00    +0.000 A 
ATOM     13  C   UNL     1      34.247  -2.969  34.989  0.00  0.00    +0.000 C 
ENDROOT
BRANCH   6  14
ATOM     14  C   UNL     1      33.353   4.789  33.947  0.00  0.00    +0.000 C 
BRANCH  14  15
ATOM     15  C   UNL     1      34.252   5.424  34.948  0.00  0.00    +0.000 A 
ATOM     16  C   UNL     1      35.613   5.531  34.811  0.00  0.00    +0.000 A 
ATOM     17  C   UNL     1      36.392   6.144  35.802  0.00  0.00    +0.000 A 
ATOM     18  C   UNL     1      35.770   6.650  36.938  0.00  0.00    +0.000 A 
ATOM     19  C   UNL     1      34.410   6.550  37.088  0.00  0.00    +0.000 A 
ATOM     20  F   UNL     1      33.845   7.060  38.216  0.00  0.00    +0.000 F 
ATOM     21  C   UNL     1      33.675   5.939  36.090  0.00  0.00    +0.000 A 
ENDBRANCH  14  15
ENDBRANCH   6  14
TORSDOF 2
ENDMDL
