MODEL 1
REMARK VINA RESULT:      -7.4      0.000      0.000
REMARK  Name = 
REMARK  2 active torsions:
REMARK  status: ('A' for Active; 'I' for Inactive)
REMARK    1  A    between atoms: C_4  and  C_5
REMARK    2  A    between atoms: N_15  and  C_16
REMARK                            x       y       z     vdW  Elec       q    Type
REMARK                         _______ _______ _______ _____ _____    ______ ____
ROOT
ATOM      1  C   UNL     1      13.670  12.469  36.146  0.00  0.00    +0.000 C 
ATOM      2  C   UNL     1      14.943  11.712  36.239  0.00  0.00    +0.000 A 
ATOM      3  C   UNL     1      15.573  11.432  37.425  0.00  0.00    +0.000 A 
ATOM      4  C   UNL     1      16.712  10.725  37.134  0.00  0.00    +0.000 A 
ATOM      5  C   UNL     1      16.713  10.611  35.738  0.00  0.00    +0.000 A 
ATOM      6  C   UNL     1      17.741   9.926  34.904  0.00  0.00    +0.000 C 
ATOM      7  N   UNL     1      15.641  11.211  35.215  0.00  0.00    +0.000 N 
ENDROOT
BRANCH   4   8
ATOM      8  C   UNL     1      17.773  10.168  37.933  0.00  0.00    +0.000 C 
ATOM      9  C   UNL     1      18.823  10.817  38.355  0.00  0.00    +0.000 C 
ATOM     10  N   UNL     1      19.911  10.315  39.156  0.00  0.00    +0.000 NA
ATOM     11  C   UNL     1      20.868  11.339  39.378  0.00  0.00    +0.000 C 
ATOM     12  O   UNL     1      21.937  11.214  40.045  0.00  0.00    +0.000 OA
ATOM     13  N   UNL     1      20.406  12.508  38.724  0.00  0.00    +0.000 NA
ATOM     14  C   UNL     1      19.149  12.202  38.090  0.00  0.00    +0.000 C 
ATOM     15  O   UNL     1      18.438  12.985  37.415  0.00  0.00    +0.000 OA
ENDBRANCH   4   8
BRANCH   7  16
ATOM     16  C   UNL     1      15.283  11.319  33.829  0.00  0.00    +0.000 A 
ATOM     17  C   UNL     1      15.293  12.506  33.155  0.00  0.00    +0.000 A 
ATOM     18  C   UNL     1      14.950  12.615  31.803  0.00  0.00    +0.000 A 
ATOM     19  C   UNL     1      14.585  11.477  31.105  0.00  0.00    +0.000 A 
ATOM     20  F   UNL     1      14.244  11.544  29.775  0.00  0.00    +0.000 F 
ATOM     21  C   UNL     1      14.572  10.282  31.770  0.00  0.00    +0.000 A 
ATOM     22  C   UNL     1      14.914  10.180  33.118  0.00  0.00    +0.000 A 
ENDBRANCH   7  16
TORSDOF 2
ENDMDL
MODEL 2
REMARK VINA RESULT:      -6.6     18.394     19.672
REMARK  Name = 
REMARK  2 active torsions:
REMARK  status: ('A' for Active; 'I' for Inactive)
REMARK    1  A    between atoms: C_4  and  C_5
REMARK    2  A    between atoms: N_15  and  C_16
REMARK                            x       y       z     vdW  Elec       q    Type
REMARK                         _______ _______ _______ _____ _____    ______ ____
ROOT
ATOM      1  C   UNL     1      30.468  22.087  25.730  0.00  0.00    +0.000 C 
ATOM      2  C   UNL     1      29.207  22.691  26.227  0.00  0.00    +0.000 A 
ATOM      3  C   UNL     1      28.685  22.439  27.470  0.00  0.00    +0.000 A 
ATOM      4  C   UNL     1      27.524  23.159  27.588  0.00  0.00    +0.000 A 
ATOM      5  C   UNL     1      27.399  23.834  26.366  0.00  0.00    +0.000 A 
ATOM      6  C   UNL     1      26.300  24.762  25.972  0.00  0.00    +0.000 C 
ATOM      7  N   UNL     1      28.421  23.541  25.559  0.00  0.00    +0.000 N 
ENDROOT
BRANCH   4   8
ATOM      8  C   UNL     1      26.537  23.301  28.627  0.00  0.00    +0.000 C 
ATOM      9  C   UNL     1      26.624  24.110  29.647  0.00  0.00    +0.000 C 
ATOM     10  N   UNL     1      25.672  24.297  30.712  0.00  0.00    +0.000 NA
ATOM     11  C   UNL     1      26.156  25.256  31.639  0.00  0.00    +0.000 C 
ATOM     12  O   UNL     1      25.552  25.639  32.683  0.00  0.00    +0.000 OA
ATOM     13  N   UNL     1      27.422  25.697  31.180  0.00  0.00    +0.000 NA
ATOM     14  C   UNL     1      27.723  25.000  29.955  0.00  0.00    +0.000 C 
ATOM     15  O   UNL     1      28.758  25.124  29.255  0.00  0.00    +0.000 OA
ENDBRANCH   4   8
BRANCH   7  16
ATOM     16  C   UNL     1      28.655  24.022  24.227  0.00  0.00    +0.000 A 
ATOM     17  C   UNL     1      28.220  23.359  23.116  0.00  0.00    +0.000 A 
ATOM     18  C   UNL     1      28.441  23.827  21.816  0.00  0.00    +0.000 A 
ATOM     19  C   UNL     1      29.128  25.015  21.634  0.00  0.00    +0.000 A 
ATOM     20  F   UNL     1      29.362  25.508  20.372  0.00  0.00    +0.000 F 
ATOM     21  C   UNL     1      29.568  25.688  22.739  0.00  0.00    +0.000 A 
ATOM     22  C   UNL     1      29.345  25.216  24.032  0.00  0.00    +0.000 A 
ENDBRANCH   7  16
TORSDOF 2
ENDMDL
MODEL 3
REMARK VINA RESULT:      -6.5     21.968     23.708
REMARK  Name = 
REMARK  2 active torsions:
REMARK  status: ('A' for Active; 'I' for Inactive)
REMARK    1  A    between atoms: C_4  and  C_5
REMARK    2  A    between atoms: N_15  and  C_16
REMARK                            x       y       z     vdW  Elec       q    Type
REMARK                         _______ _______ _______ _____ _____    ______ ____
ROOT
ATOM      1  C   UNL     1      26.537  23.339  23.349  0.00  0.00    +0.000 C 
ATOM      2  C   UNL     1      27.433  24.503  23.140  0.00  0.00    +0.000 A 
ATOM      3  C   UNL     1      27.201  25.478  22.202  0.00  0.00    +0.000 A 
ATOM      4  C   UNL     1      28.224  26.388  22.288  0.00  0.00    +0.000 A 
ATOM      5  C   UNL     1      29.051  25.899  23.308  0.00  0.00    +0.000 A 
ATOM      6  C   UNL     1      30.312  26.521  23.804  0.00  0.00    +0.000 C 
ATOM      7  N   UNL     1      28.559  24.764  23.810  0.00  0.00    +0.000 N 
ENDROOT
BRANCH   4   8
ATOM      8  C   UNL     1      28.545  27.599  21.579  0.00  0.00    +0.000 C 
ATOM      9  C   UNL     1      29.242  27.669  20.479  0.00  0.00    +0.000 C 
ATOM     10  N   UNL     1      29.591  28.847  19.725  0.00  0.00    +0.000 NA
ATOM     11  C   UNL     1      30.380  28.493  18.600  0.00  0.00    +0.000 C 
ATOM     12  O   UNL     1      30.844  29.302  17.744  0.00  0.00    +0.000 OA
ATOM     13  N   UNL     1      30.546  27.086  18.617  0.00  0.00    +0.000 NA
ATOM     14  C   UNL     1      29.851  26.566  19.768  0.00  0.00    +0.000 C 
ATOM     15  O   UNL     1      29.774  25.363  20.117  0.00  0.00    +0.000 OA
ENDBRANCH   4   8
BRANCH   7  16
ATOM     16  C   UNL     1      29.112  23.954  24.859  0.00  0.00    +0.000 A 
ATOM     17  C   UNL     1      28.779  24.120  26.173  0.00  0.00    +0.000 A 
ATOM     18  C   UNL     1      29.312  23.330  27.198  0.00  0.00    +0.000 A 
ATOM     19  C   UNL     1      30.215  22.331  26.879  0.00  0.00    +0.000 A 
ATOM     20  F   UNL     1      30.758  21.533  27.858  0.00  0.00    +0.000 F 
ATOM     21  C   UNL     1      30.556  22.155  25.566  0.00  0.00    +0.000 A 
ATOM     22  C   UNL     1      30.022  22.946  24.550  0.00  0.00    +0.000 A 
ENDBRANCH   7  16
TORSDOF 2
ENDMDL
MODEL 4
REMARK VINA RESULT:      -6.4     18.793     20.646
REMARK  Name = 
REMARK  2 active torsions:
REMARK  status: ('A' for Active; 'I' for Inactive)
REMARK    1  A    between atoms: C_4  and  C_5
REMARK    2  A    between atoms: N_15  and  C_16
REMARK                            x       y       z     vdW  Elec       q    Type
REMARK                         _______ _______ _______ _____ _____    ______ ____
ROOT
ATOM      1  C   UNL     1      31.208  25.865  28.450  0.00  0.00    +0.000 C 
ATOM      2  C   UNL     1      30.103  25.029  27.918  0.00  0.00    +0.000 A 
ATOM      3  C   UNL     1      29.143  25.500  27.058  0.00  0.00    +0.000 A 
ATOM      4  C   UNL     1      28.291  24.462  26.779  0.00  0.00    +0.000 A 
ATOM      5  C   UNL     1      28.797  23.379  27.510  0.00  0.00    +0.000 A 
ATOM      6  C   UNL     1      28.235  21.999  27.556  0.00  0.00    +0.000 C 
ATOM      7  N   UNL     1      29.888  23.739  28.190  0.00  0.00    +0.000 N 
ENDROOT
BRANCH   4   8
ATOM      8  C   UNL     1      27.107  24.333  25.969  0.00  0.00    +0.000 C 
ATOM      9  C   UNL     1      27.078  23.920  24.732  0.00  0.00    +0.000 C 
ATOM     10  N   UNL     1      25.929  23.768  23.876  0.00  0.00    +0.000 NA
ATOM     11  C   UNL     1      26.331  23.313  22.593  0.00  0.00    +0.000 C 
ATOM     12  O   UNL     1      25.556  23.083  21.619  0.00  0.00    +0.000 OA
ATOM     13  N   UNL     1      27.740  23.167  22.611  0.00  0.00    +0.000 NA
ATOM     14  C   UNL     1      28.214  23.538  23.921  0.00  0.00    +0.000 C 
ATOM     15  O   UNL     1      29.405  23.538  24.315  0.00  0.00    +0.000 OA
ENDBRANCH   4   8
BRANCH   7  16
ATOM     16  C   UNL     1      30.691  22.924  29.057  0.00  0.00    +0.000 A 
ATOM     17  C   UNL     1      30.418  22.768  30.386  0.00  0.00    +0.000 A 
ATOM     18  C   UNL     1      31.195  21.971  31.233  0.00  0.00    +0.000 A 
ATOM     19  C   UNL     1      32.291  21.302  30.714  0.00  0.00    +0.000 A 
ATOM     20  F   UNL     1      33.076  20.507  31.515  0.00  0.00    +0.000 F 
ATOM     21  C   UNL     1      32.574  21.450  29.385  0.00  0.00    +0.000 A 
ATOM     22  C   UNL     1      31.796  22.247  28.545  0.00  0.00    +0.000 A 
ENDBRANCH   7  16
TORSDOF 2
ENDMDL
MODEL 5
REMARK VINA RESULT:      -6.3     20.750     22.479
REMARK  Name = 
REMARK  2 active torsions:
REMARK  status: ('A' for Active; 'I' for Inactive)
REMARK    1  A    between atoms: C_4  and  C_5
REMARK    2  A    between atoms: N_15  and  C_16
REMARK                            x       y       z     vdW  Elec       q    Type
REMARK                         _______ _______ _______ _____ _____    ______ ____
ROOT
ATOM      1  C   UNL     1      25.882  23.062  24.842  0.00  0.00    +0.000 C 
ATOM      2  C   UNL     1      27.121  23.502  24.154  0.00  0.00    +0.000 A 
ATOM      3  C   UNL     1      27.185  23.779  22.812  0.00  0.00    +0.000 A 
ATOM      4  C   UNL     1      28.474  24.151  22.526  0.00  0.00    +0.000 A 
ATOM      5  C   UNL     1      29.147  24.077  23.753  0.00  0.00    +0.000 A 
ATOM      6  C   UNL     1      30.585  24.384  23.997  0.00  0.00    +0.000 C 
ATOM      7  N   UNL     1      28.317  23.684  24.722  0.00  0.00    +0.000 N 
ENDROOT
BRANCH   4   8
ATOM      8  C   UNL     1      29.156  24.543  21.320  0.00  0.00    +0.000 C 
ATOM      9  C   UNL     1      29.276  25.765  20.881  0.00  0.00    +0.000 C 
ATOM     10  N   UNL     1      29.946  26.216  19.687  0.00  0.00    +0.000 NA
ATOM     11  C   UNL     1      29.827  27.624  19.561  0.00  0.00    +0.000 C 
ATOM     12  O   UNL     1      30.308  28.321  18.620  0.00  0.00    +0.000 OA
ATOM     13  N   UNL     1      29.081  28.094  20.670  0.00  0.00    +0.000 NA
ATOM     14  C   UNL     1      28.735  26.960  21.491  0.00  0.00    +0.000 C 
ATOM     15  O   UNL     1      28.075  26.981  22.558  0.00  0.00    +0.000 OA
ENDBRANCH   4   8
BRANCH   7  16
ATOM     16  C   UNL     1      28.621  23.482  26.111  0.00  0.00    +0.000 A 
ATOM     17  C   UNL     1      29.199  22.338  26.581  0.00  0.00    +0.000 A 
ATOM     18  C   UNL     1      29.501  22.138  27.932  0.00  0.00    +0.000 A 
ATOM     19  C   UNL     1      29.209  23.139  28.844  0.00  0.00    +0.000 A 
ATOM     20  F   UNL     1      29.494  22.981  30.179  0.00  0.00    +0.000 F 
ATOM     21  C   UNL     1      28.630  24.289  28.385  0.00  0.00    +0.000 A 
ATOM     22  C   UNL     1      28.331  24.482  27.037  0.00  0.00    +0.000 A 
ENDBRANCH   7  16
TORSDOF 2
ENDMDL
MODEL 6
REMARK VINA RESULT:      -6.3     19.461     21.311
REMARK  Name = 
REMARK  2 active torsions:
REMARK  status: ('A' for Active; 'I' for Inactive)
REMARK    1  A    between atoms: C_4  and  C_5
REMARK    2  A    between atoms: N_15  and  C_16
REMARK                            x       y       z     vdW  Elec       q    Type
REMARK                         _______ _______ _______ _____ _____    ______ ____
ROOT
ATOM      1  C   UNL     1      33.349  24.826  27.579  0.00  0.00    +0.000 C 
ATOM      2  C   UNL     1      32.308  23.997  26.922  0.00  0.00    +0.000 A 
ATOM      3  C   UNL     1      32.008  24.076  25.586  0.00  0.00    +0.000 A 
ATOM      4  C   UNL     1      31.006  23.174  25.331  0.00  0.00    +0.000 A 
ATOM      5  C   UNL     1      30.741  22.577  26.571  0.00  0.00    +0.000 A 
ATOM      6  C   UNL     1      29.729  21.518  26.848  0.00  0.00    +0.000 C 
ATOM      7  N   UNL     1      31.535  23.084  27.517  0.00  0.00    +0.000 N 
ENDROOT
BRANCH   4   8
ATOM      8  C   UNL     1      30.272  22.805  24.149  0.00  0.00    +0.000 C 
ATOM      9  C   UNL     1      29.120  23.300  23.788  0.00  0.00    +0.000 C 
ATOM     10  N   UNL     1      28.343  22.974  22.619  0.00  0.00    +0.000 NA
ATOM     11  C   UNL     1      27.137  23.722  22.608  0.00  0.00    +0.000 C 
ATOM     12  O   UNL     1      26.243  23.660  21.715  0.00  0.00    +0.000 OA
ATOM     13  N   UNL     1      27.127  24.537  23.767  0.00  0.00    +0.000 NA
ATOM     14  C   UNL     1      28.341  24.288  24.503  0.00  0.00    +0.000 C 
ATOM     15  O   UNL     1      28.686  24.823  25.584  0.00  0.00    +0.000 OA
ENDBRANCH   4   8
BRANCH   7  16
ATOM     16  C   UNL     1      31.570  22.741  28.911  0.00  0.00    +0.000 A 
ATOM     17  C   UNL     1      30.797  23.369  29.845  0.00  0.00    +0.000 A 
ATOM     18  C   UNL     1      30.823  23.035  31.203  0.00  0.00    +0.000 A 
ATOM     19  C   UNL     1      31.664  22.022  31.633  0.00  0.00    +0.000 A 
ATOM     20  F   UNL     1      31.717  21.664  32.959  0.00  0.00    +0.000 F 
ATOM     21  C   UNL     1      32.443  21.386  30.706  0.00  0.00    +0.000 A 
ATOM     22  C   UNL     1      32.412  21.724  29.354  0.00  0.00    +0.000 A 
ENDBRANCH   7  16
TORSDOF 2
ENDMDL
MODEL 7
REMARK VINA RESULT:      -6.2      4.088      5.741
REMARK  Name = 
REMARK  2 active torsions:
REMARK  status: ('A' for Active; 'I' for Inactive)
REMARK    1  A    between atoms: C_4  and  C_5
REMARK    2  A    between atoms: N_15  and  C_16
REMARK                            x       y       z     vdW  Elec       q    Type
REMARK                         _______ _______ _______ _____ _____    ______ ____
ROOT
ATOM      1  C   UNL     1      20.613  10.350  37.881  0.00  0.00    +0.000 C 
ATOM      2  C   UNL     1      19.489  10.057  38.803  0.00  0.00    +0.000 A 
ATOM      3  C   UNL     1      19.660   9.599  40.085  0.00  0.00    +0.000 A 
ATOM      4  C   UNL     1      18.416   9.438  40.639  0.00  0.00    +0.000 A 
ATOM      5  C   UNL     1      17.524   9.820  39.628  0.00  0.00    +0.000 A 
ATOM      6  C   UNL     1      16.036   9.833  39.714  0.00  0.00    +0.000 C 
ATOM      7  N   UNL     1      18.188  10.190  38.529  0.00  0.00    +0.000 N 
ENDROOT
BRANCH   4   8
ATOM      8  C   UNL     1      17.945   8.986  41.922  0.00  0.00    +0.000 C 
ATOM      9  C   UNL     1      17.679   7.748  42.237  0.00  0.00    +0.000 C 
ATOM     10  N   UNL     1      17.210   7.237  43.500  0.00  0.00    +0.000 NA
ATOM     11  C   UNL     1      17.023   5.833  43.422  0.00  0.00    +0.000 C 
ATOM     12  O   UNL     1      16.619   5.092  44.364  0.00  0.00    +0.000 OA
ATOM     13  N   UNL     1      17.370   5.426  42.110  0.00  0.00    +0.000 NA
ATOM     14  C   UNL     1      17.776   6.594  41.369  0.00  0.00    +0.000 C 
ATOM     15  O   UNL     1      18.152   6.631  40.173  0.00  0.00    +0.000 OA
ENDBRANCH   4   8
BRANCH   7  16
ATOM     16  C   UNL     1      17.639  10.641  37.281  0.00  0.00    +0.000 A 
ATOM     17  C   UNL     1      17.439   9.806  36.219  0.00  0.00    +0.000 A 
ATOM     18  C   UNL     1      16.900  10.240  35.003  0.00  0.00    +0.000 A 
ATOM     19  C   UNL     1      16.547  11.571  34.857  0.00  0.00    +0.000 A 
ATOM     20  F   UNL     1      16.012  12.034  33.679  0.00  0.00    +0.000 F 
ATOM     21  C   UNL     1      16.743  12.416  35.915  0.00  0.00    +0.000 A 
ATOM     22  C   UNL     1      17.281  11.977  37.124  0.00  0.00    +0.000 A 
ENDBRANCH   7  16
TORSDOF 2
ENDMDL
MODEL 8
REMARK VINA RESULT:      -6.1     20.945     22.747
REMARK  Name = 
REMARK  2 active torsions:
REMARK  status: ('A' for Active; 'I' for Inactive)
REMARK    1  A    between atoms: C_4  and  C_5
REMARK    2  A    between atoms: N_15  and  C_16
REMARK                            x       y       z     vdW  Elec       q    Type
REMARK                         _______ _______ _______ _____ _____    ______ ____
ROOT
ATOM      1  C   UNL     1      27.593   1.788  16.358  0.00  0.00    +0.000 C 
ATOM      2  C   UNL     1      26.305   2.250  16.932  0.00  0.00    +0.000 A 
ATOM      3  C   UNL     1      25.251   1.413  17.198  0.00  0.00    +0.000 A 
ATOM      4  C   UNL     1      24.235   2.175  17.716  0.00  0.00    +0.000 A 
ATOM      5  C   UNL     1      24.745   3.480  17.737  0.00  0.00    +0.000 A 
ATOM      6  C   UNL     1      24.037   4.702  18.215  0.00  0.00    +0.000 C 
ATOM      7  N   UNL     1      25.992   3.506  17.262  0.00  0.00    +0.000 N 
ENDROOT
BRANCH   4   8
ATOM      8  C   UNL     1      22.900   1.884  18.170  0.00  0.00    +0.000 C 
ATOM      9  C   UNL     1      21.830   1.885  17.423  0.00  0.00    +0.000 C 
ATOM     10  N   UNL     1      20.474   1.601  17.819  0.00  0.00    +0.000 NA
ATOM     11  C   UNL     1      19.602   1.732  16.707  0.00  0.00    +0.000 C 
ATOM     12  O   UNL     1      18.350   1.548  16.730  0.00  0.00    +0.000 OA
ATOM     13  N   UNL     1      20.386   2.100  15.587  0.00  0.00    +0.000 NA
ATOM     14  C   UNL     1      21.760   2.199  16.012  0.00  0.00    +0.000 C 
ATOM     15  O   UNL     1      22.746   2.505  15.300  0.00  0.00    +0.000 OA
ENDBRANCH   4   8
BRANCH   7  16
ATOM     16  C   UNL     1      26.853   4.646  17.114  0.00  0.00    +0.000 A 
ATOM     17  C   UNL     1      27.553   5.182  18.156  0.00  0.00    +0.000 A 
ATOM     18  C   UNL     1      28.396   6.290  18.016  0.00  0.00    +0.000 A 
ATOM     19  C   UNL     1      28.538   6.876  16.769  0.00  0.00    +0.000 A 
ATOM     20  F   UNL     1      29.360   7.964  16.591  0.00  0.00    +0.000 F 
ATOM     21  C   UNL     1      27.842   6.347  15.718  0.00  0.00    +0.000 A 
ATOM     22  C   UNL     1      27.003   5.244  15.865  0.00  0.00    +0.000 A 
ENDBRANCH   7  16
TORSDOF 2
ENDMDL
MODEL 9
REMARK VINA RESULT:      -6.0     17.275     18.500
REMARK  Name = 
REMARK  2 active torsions:
REMARK  status: ('A' for Active; 'I' for Inactive)
REMARK    1  A    between atoms: C_4  and  C_5
REMARK    2  A    between atoms: N_15  and  C_16
REMARK                            x       y       z     vdW  Elec       q    Type
REMARK                         _______ _______ _______ _____ _____    ______ ____
ROOT
ATOM      1  C   UNL     1      29.088  22.036  26.877  0.00  0.00    +0.000 C 
ATOM      2  C   UNL     1      27.989  22.777  27.545  0.00  0.00    +0.000 A 
ATOM      3  C   UNL     1      27.805  22.796  28.904  0.00  0.00    +0.000 A 
ATOM      4  C   UNL     1      26.704  23.571  29.164  0.00  0.00    +0.000 A 
ATOM      5  C   UNL     1      26.263  23.996  27.903  0.00  0.00    +0.000 A 
ATOM      6  C   UNL     1      25.089  24.871  27.621  0.00  0.00    +0.000 C 
ATOM      7  N   UNL     1      27.049  23.509  26.940  0.00  0.00    +0.000 N 
ENDROOT
BRANCH   4   8
ATOM      8  C   UNL     1      26.014  23.955  30.368  0.00  0.00    +0.000 C 
ATOM      9  C   UNL     1      26.303  24.990  31.108  0.00  0.00    +0.000 C 
ATOM     10  N   UNL     1      25.650  25.424  32.317  0.00  0.00    +0.000 NA
ATOM     11  C   UNL     1      26.286  26.585  32.827  0.00  0.00    +0.000 C 
ATOM     12  O   UNL     1      25.948  27.207  33.876  0.00  0.00    +0.000 OA
ATOM     13  N   UNL     1      27.353  26.910  31.953  0.00  0.00    +0.000 NA
ATOM     14  C   UNL     1      27.376  25.937  30.890  0.00  0.00    +0.000 C 
ATOM     15  O   UNL     1      28.180  25.895  29.928  0.00  0.00    +0.000 OA
ENDBRANCH   4   8
BRANCH   7  16
ATOM     16  C   UNL     1      26.928  23.707  25.523  0.00  0.00    +0.000 A 
ATOM     17  C   UNL     1      27.689  24.610  24.837  0.00  0.00    +0.000 A 
ATOM     18  C   UNL     1      27.579  24.803  23.456  0.00  0.00    +0.000 A 
ATOM     19  C   UNL     1      26.664  24.050  22.740  0.00  0.00    +0.000 A 
ATOM     20  F   UNL     1      26.528  24.209  21.381  0.00  0.00    +0.000 F 
ATOM     21  C   UNL     1      25.896  23.143  23.417  0.00  0.00    +0.000 A 
ATOM     22  C   UNL     1      26.011  22.955  24.794  0.00  0.00    +0.000 A 
ENDBRANCH   7  16
TORSDOF 2
ENDMDL
MODEL 10
REMARK VINA RESULT:      -5.9      4.123      6.643
REMARK  Name = 
REMARK  2 active torsions:
REMARK  status: ('A' for Active; 'I' for Inactive)
REMARK    1  A    between atoms: C_4  and  C_5
REMARK    2  A    between atoms: N_15  and  C_16
REMARK                            x       y       z     vdW  Elec       q    Type
REMARK                         _______ _______ _______ _____ _____    ______ ____
ROOT
ATOM      1  C   UNL     1      20.639  13.754  39.600  0.00  0.00    +0.000 C 
ATOM      2  C   UNL     1      21.368  12.738  38.802  0.00  0.00    +0.000 A 
ATOM      3  C   UNL     1      22.733  12.723  38.659  0.00  0.00    +0.000 A 
ATOM      4  C   UNL     1      23.056  11.655  37.861  0.00  0.00    +0.000 A 
ATOM      5  C   UNL     1      21.827  11.058  37.551  0.00  0.00    +0.000 A 
ATOM      6  C   UNL     1      21.615   9.850  36.704  0.00  0.00    +0.000 C 
ATOM      7  N   UNL     1      20.821  11.723  38.126  0.00  0.00    +0.000 N 
ENDROOT
BRANCH   4   8
ATOM      8  C   UNL     1      24.295  11.130  37.350  0.00  0.00    +0.000 C 
ATOM      9  C   UNL     1      25.054  10.259  37.955  0.00  0.00    +0.000 C 
ATOM     10  N   UNL     1      26.298   9.696  37.494  0.00  0.00    +0.000 NA
ATOM     11  C   UNL     1      26.820   8.800  38.462  0.00  0.00    +0.000 C 
ATOM     12  O   UNL     1      27.898   8.147  38.353  0.00  0.00    +0.000 OA
ATOM     13  N   UNL     1      25.917   8.775  39.554  0.00  0.00    +0.000 NA
ATOM     14  C   UNL     1      24.826   9.669  39.256  0.00  0.00    +0.000 C 
ATOM     15  O   UNL     1      23.835   9.912  39.986  0.00  0.00    +0.000 OA
ENDBRANCH   4   8
BRANCH   7  16
ATOM     16  C   UNL     1      19.417  11.434  38.046  0.00  0.00    +0.000 A 
ATOM     17  C   UNL     1      18.832  10.420  38.749  0.00  0.00    +0.000 A 
ATOM     18  C   UNL     1      17.463  10.138  38.678  0.00  0.00    +0.000 A 
ATOM     19  C   UNL     1      16.655  10.915  37.866  0.00  0.00    +0.000 A 
ATOM     20  F   UNL     1      15.305  10.670  37.772  0.00  0.00    +0.000 F 
ATOM     21  C   UNL     1      17.230  11.933  37.158  0.00  0.00    +0.000 A 
ATOM     22  C   UNL     1      18.595  12.209  37.232  0.00  0.00    +0.000 A 
ENDBRANCH   7  16
TORSDOF 2
ENDMDL
