MODEL 1
REMARK VINA RESULT:      -7.1      0.000      0.000
REMARK  Name = 
REMARK  3 active torsions:
REMARK  status: ('A' for Active; 'I' for Inactive)
REMARK    1  A    between atoms: C_5  and  C_6
REMARK    2  A    between atoms: N_8  and  N_9
REMARK    3  A    between atoms: N_9  and  C_10
REMARK                            x       y       z     vdW  Elec       q    Type
REMARK                         _______ _______ _______ _____ _____    ______ ____
ROOT
ATOM      1  C   UNL     1      16.731  11.038  36.940  0.00  0.00    +0.000 C 
ATOM      2  O   UNL     1      15.648  11.364  37.487  0.00  0.00    +0.000 OA
ATOM      3  N   UNL     1      16.700  11.056  35.494  0.00  0.00    +0.000 NA
ENDROOT
BRANCH   1   8
ATOM      4  C   UNL     1      21.374   9.389  39.860  0.00  0.00    +0.000 C 
ATOM      5  C   UNL     1      20.188   9.895  39.089  0.00  0.00    +0.000 A 
ATOM      6  C   UNL     1      19.208   8.995  38.758  0.00  0.00    +0.000 A 
ATOM      7  C   UNL     1      18.067   9.328  38.066  0.00  0.00    +0.000 A 
ATOM      8  C   UNL     1      17.915  10.669  37.684  0.00  0.00    +0.000 A 
ATOM      9  C   UNL     1      18.900  11.566  38.019  0.00  0.00    +0.000 A 
ATOM     10  C   UNL     1      18.690  12.976  37.594  0.00  0.00    +0.000 C 
ATOM     11  C   UNL     1      20.041  11.211  38.715  0.00  0.00    +0.000 A 
ENDBRANCH   1   8
BRANCH   3  12
ATOM     12  N   UNL     1      15.485  11.415  34.861  0.00  0.00    +0.000 NA
BRANCH  12  13
ATOM     13  C   UNL     1      15.464  11.613  33.429  0.00  0.00    +0.000 C 
ATOM     14  C   UNL     1      14.804  12.531  32.783  0.00  0.00    +0.000 C 
ATOM     15  C   UNL     1      14.092  13.534  31.984  0.00  0.00    +0.000 C 
ATOM     16  C   UNL     1      14.038  13.133  30.734  0.00  0.00    +0.000 C 
ATOM     17  C   UNL     1      14.721  11.814  30.617  0.00  0.00    +0.000 C 
ATOM     18  C   UNL     1      15.930  12.131  31.656  0.00  0.00    +0.000 C 
ATOM     19  C   UNL     1      16.038  10.749  32.384  0.00  0.00    +0.000 C 
ENDBRANCH  12  13
ENDBRANCH   3  12
TORSDOF 3
ENDMDL
MODEL 2
REMARK VINA RESULT:      -6.9     19.734     22.630
REMARK  Name = 
REMARK  3 active torsions:
REMARK  status: ('A' for Active; 'I' for Inactive)
REMARK    1  A    between atoms: C_5  and  C_6
REMARK    2  A    between atoms: N_8  and  N_9
REMARK    3  A    between atoms: N_9  and  C_10
REMARK                            x       y       z     vdW  Elec       q    Type
REMARK                         _______ _______ _______ _____ _____    ______ ____
ROOT
ATOM      1  C   UNL     1      33.982  -2.176  34.096  0.00  0.00    +0.000 C 
ATOM      2  O   UNL     1      34.788  -2.687  34.913  0.00  0.00    +0.000 OA
ATOM      3  N   UNL     1      33.207  -3.136  33.341  0.00  0.00    +0.000 NA
ENDROOT
BRANCH   1   8
ATOM      4  C   UNL     1      33.453   3.454  33.184  0.00  0.00    +0.000 C 
ATOM      5  C   UNL     1      33.552   1.987  33.492  0.00  0.00    +0.000 A 
ATOM      6  C   UNL     1      34.130   1.172  32.553  0.00  0.00    +0.000 A 
ATOM      7  C   UNL     1      34.293  -0.183  32.713  0.00  0.00    +0.000 A 
ATOM      8  C   UNL     1      33.836  -0.749  33.913  0.00  0.00    +0.000 A 
ATOM      9  C   UNL     1      33.258   0.072  34.851  0.00  0.00    +0.000 A 
ATOM     10  C   UNL     1      32.792  -0.575  36.106  0.00  0.00    +0.000 C 
ATOM     11  C   UNL     1      33.102   1.434  34.670  0.00  0.00    +0.000 A 
ENDBRANCH   1   8
BRANCH   3  12
ATOM     12  N   UNL     1      33.438  -4.512  33.582  0.00  0.00    +0.000 NA
BRANCH  12  13
ATOM     13  C   UNL     1      34.157  -5.293  32.601  0.00  0.00    +0.000 C 
ATOM     14  C   UNL     1      33.955  -5.296  31.314  0.00  0.00    +0.000 C 
ATOM     15  C   UNL     1      33.789  -5.356  29.858  0.00  0.00    +0.000 C 
ATOM     16  C   UNL     1      34.365  -6.446  29.402  0.00  0.00    +0.000 C 
ATOM     17  C   UNL     1      34.959  -7.197  30.544  0.00  0.00    +0.000 C 
ATOM     18  C   UNL     1      35.482  -5.901  31.374  0.00  0.00    +0.000 C 
ATOM     19  C   UNL     1      35.149  -6.356  32.834  0.00  0.00    +0.000 C 
ENDBRANCH  12  13
ENDBRANCH   3  12
TORSDOF 3
ENDMDL
MODEL 3
REMARK VINA RESULT:      -6.9      2.949      7.310
REMARK  Name = 
REMARK  3 active torsions:
REMARK  status: ('A' for Active; 'I' for Inactive)
REMARK    1  A    between atoms: C_5  and  C_6
REMARK    2  A    between atoms: N_8  and  N_9
REMARK    3  A    between atoms: N_9  and  C_10
REMARK                            x       y       z     vdW  Elec       q    Type
REMARK                         _______ _______ _______ _____ _____    ______ ____
ROOT
ATOM      1  C   UNL     1      17.653  10.035  36.369  0.00  0.00    +0.000 C 
ATOM      2  O   UNL     1      17.749   8.885  35.873  0.00  0.00    +0.000 OA
ATOM      3  N   UNL     1      18.864  10.518  36.996  0.00  0.00    +0.000 NA
ENDROOT
BRANCH   1   8
ATOM      4  C   UNL     1      12.825  13.115  36.395  0.00  0.00    +0.000 C 
ATOM      5  C   UNL     1      14.104  12.334  36.314  0.00  0.00    +0.000 A 
ATOM      6  C   UNL     1      14.503  11.639  37.427  0.00  0.00    +0.000 A 
ATOM      7  C   UNL     1      15.646  10.876  37.484  0.00  0.00    +0.000 A 
ATOM      8  C   UNL     1      16.438  10.818  36.327  0.00  0.00    +0.000 A 
ATOM      9  C   UNL     1      16.033  11.516  35.215  0.00  0.00    +0.000 A 
ATOM     10  C   UNL     1      16.906  11.419  34.014  0.00  0.00    +0.000 C 
ATOM     11  C   UNL     1      14.881  12.278  35.179  0.00  0.00    +0.000 A 
ENDBRANCH   1   8
BRANCH   3  12
ATOM     12  N   UNL     1      19.995   9.667  36.999  0.00  0.00    +0.000 NA
BRANCH  12  13
ATOM     13  C   UNL     1      21.297  10.219  37.302  0.00  0.00    +0.000 C 
ATOM     14  C   UNL     1      22.374  10.104  36.580  0.00  0.00    +0.000 C 
ATOM     15  C   UNL     1      23.628  10.021  35.824  0.00  0.00    +0.000 C 
ATOM     16  C   UNL     1      24.632  10.321  36.618  0.00  0.00    +0.000 C 
ATOM     17  C   UNL     1      24.103  10.627  37.976  0.00  0.00    +0.000 C 
ATOM     18  C   UNL     1      22.768  11.415  37.489  0.00  0.00    +0.000 C 
ATOM     19  C   UNL     1      21.736  10.884  38.540  0.00  0.00    +0.000 C 
ENDBRANCH  12  13
ENDBRANCH   3  12
TORSDOF 3
ENDMDL
MODEL 4
REMARK VINA RESULT:      -6.9      2.111      7.317
REMARK  Name = 
REMARK  3 active torsions:
REMARK  status: ('A' for Active; 'I' for Inactive)
REMARK    1  A    between atoms: C_5  and  C_6
REMARK    2  A    between atoms: N_8  and  N_9
REMARK    3  A    between atoms: N_9  and  C_10
REMARK                            x       y       z     vdW  Elec       q    Type
REMARK                         _______ _______ _______ _____ _____    ______ ____
ROOT
ATOM      1  C   UNL     1      17.534   9.859  35.506  0.00  0.00    +0.000 C 
ATOM      2  O   UNL     1      17.604   8.610  35.390  0.00  0.00    +0.000 OA
ATOM      3  N   UNL     1      18.362  10.409  36.556  0.00  0.00    +0.000 NA
ENDROOT
BRANCH   1   8
ATOM      4  C   UNL     1      14.287  13.048  32.030  0.00  0.00    +0.000 C 
ATOM      5  C   UNL     1      15.092  12.236  33.002  0.00  0.00    +0.000 A 
ATOM      6  C   UNL     1      16.105  11.457  32.503  0.00  0.00    +0.000 A 
ATOM      7  C   UNL     1      16.924  10.675  33.283  0.00  0.00    +0.000 A 
ATOM      8  C   UNL     1      16.695  10.686  34.668  0.00  0.00    +0.000 A 
ATOM      9  C   UNL     1      15.680  11.469  35.162  0.00  0.00    +0.000 A 
ATOM     10  C   UNL     1      15.480  11.448  36.636  0.00  0.00    +0.000 C 
ATOM     11  C   UNL     1      14.866  12.247  34.360  0.00  0.00    +0.000 A 
ENDBRANCH   1   8
BRANCH   3  12
ATOM     12  N   UNL     1      19.134   9.511  37.333  0.00  0.00    +0.000 NA
BRANCH  12  13
ATOM     13  C   UNL     1      18.671   9.134  38.649  0.00  0.00    +0.000 C 
ATOM     14  C   UNL     1      17.554   9.498  39.211  0.00  0.00    +0.000 C 
ATOM     15  C   UNL     1      16.317   9.862  39.911  0.00  0.00    +0.000 C 
ATOM     16  C   UNL     1      16.463   9.629  41.196  0.00  0.00    +0.000 C 
ATOM     17  C   UNL     1      17.829   9.088  41.440  0.00  0.00    +0.000 C 
ATOM     18  C   UNL     1      17.912   8.166  40.104  0.00  0.00    +0.000 C 
ATOM     19  C   UNL     1      19.404   8.404  39.696  0.00  0.00    +0.000 C 
ENDBRANCH  12  13
ENDBRANCH   3  12
TORSDOF 3
ENDMDL
MODEL 5
REMARK VINA RESULT:      -6.8      2.013      7.531
REMARK  Name = 
REMARK  3 active torsions:
REMARK  status: ('A' for Active; 'I' for Inactive)
REMARK    1  A    between atoms: C_5  and  C_6
REMARK    2  A    between atoms: N_8  and  N_9
REMARK    3  A    between atoms: N_9  and  C_10
REMARK                            x       y       z     vdW  Elec       q    Type
REMARK                         _______ _______ _______ _____ _____    ______ ____
ROOT
ATOM      1  C   UNL     1      17.190  10.038  35.110  0.00  0.00    +0.000 C 
ATOM      2  O   UNL     1      17.116   8.794  35.268  0.00  0.00    +0.000 OA
ATOM      3  N   UNL     1      18.040  10.713  36.066  0.00  0.00    +0.000 NA
ENDROOT
BRANCH   1   8
ATOM      4  C   UNL     1      14.484  12.731  30.840  0.00  0.00    +0.000 C 
ATOM      5  C   UNL     1      15.143  12.060  32.011  0.00  0.00    +0.000 A 
ATOM      6  C   UNL     1      16.155  11.171  31.755  0.00  0.00    +0.000 A 
ATOM      7  C   UNL     1      16.849  10.498  32.733  0.00  0.00    +0.000 A 
ATOM      8  C   UNL     1      16.486  10.748  34.065  0.00  0.00    +0.000 A 
ATOM      9  C   UNL     1      15.472  11.640  34.316  0.00  0.00    +0.000 A 
ATOM     10  C   UNL     1      15.127  11.872  35.745  0.00  0.00    +0.000 C 
ATOM     11  C   UNL     1      14.785  12.305  33.317  0.00  0.00    +0.000 A 
ENDBRANCH   1   8
BRANCH   3  12
ATOM     12  N   UNL     1      18.672   9.929  37.062  0.00  0.00    +0.000 NA
BRANCH  12  13
ATOM     13  C   UNL     1      19.996  10.292  37.515  0.00  0.00    +0.000 C 
ATOM     14  C   UNL     1      21.124   9.942  36.967  0.00  0.00    +0.000 C 
ATOM     15  C   UNL     1      22.435   9.593  36.409  0.00  0.00    +0.000 C 
ATOM     16  C   UNL     1      23.361   9.798  37.319  0.00  0.00    +0.000 C 
ATOM     17  C   UNL     1      22.716  10.305  38.563  0.00  0.00    +0.000 C 
ATOM     18  C   UNL     1      21.612  11.249  37.836  0.00  0.00    +0.000 C 
ATOM     19  C   UNL     1      20.374  10.986  38.757  0.00  0.00    +0.000 C 
ENDBRANCH  12  13
ENDBRANCH   3  12
TORSDOF 3
ENDMDL
MODEL 6
REMARK VINA RESULT:      -6.8     21.448     22.881
REMARK  Name = 
REMARK  3 active torsions:
REMARK  status: ('A' for Active; 'I' for Inactive)
REMARK    1  A    between atoms: C_5  and  C_6
REMARK    2  A    between atoms: N_8  and  N_9
REMARK    3  A    between atoms: N_9  and  C_10
REMARK                            x       y       z     vdW  Elec       q    Type
REMARK                         _______ _______ _______ _____ _____    ______ ____
ROOT
ATOM      1  C   UNL     1      22.482  -8.970  24.589  0.00  0.00    +0.000 C 
ATOM      2  O   UNL     1      21.569  -9.452  23.873  0.00  0.00    +0.000 OA
ATOM      3  N   UNL     1      22.141  -8.847  25.989  0.00  0.00    +0.000 NA
ENDROOT
BRANCH   1   8
ATOM      4  C   UNL     1      27.619  -7.553  22.490  0.00  0.00    +0.000 C 
ATOM      5  C   UNL     1      26.250  -7.848  23.033  0.00  0.00    +0.000 A 
ATOM      6  C   UNL     1      25.943  -9.152  23.323  0.00  0.00    +0.000 A 
ATOM      7  C   UNL     1      24.732  -9.557  23.835  0.00  0.00    +0.000 A 
ATOM      8  C   UNL     1      23.768  -8.565  24.066  0.00  0.00    +0.000 A 
ATOM      9  C   UNL     1      24.082  -7.260  23.775  0.00  0.00    +0.000 A 
ATOM     10  C   UNL     1      23.027  -6.245  24.041  0.00  0.00    +0.000 C 
ATOM     11  C   UNL     1      25.305  -6.873  23.259  0.00  0.00    +0.000 A 
ENDBRANCH   1   8
BRANCH   3  12
ATOM     12  N   UNL     1      20.848  -9.256  26.396  0.00  0.00    +0.000 NA
BRANCH  12  13
ATOM     13  C   UNL     1      19.797  -8.270  26.513  0.00  0.00    +0.000 C 
ATOM     14  C   UNL     1      19.871  -7.015  26.177  0.00  0.00    +0.000 C 
ATOM     15  C   UNL     1      19.876  -5.591  25.822  0.00  0.00    +0.000 C 
ATOM     16  C   UNL     1      18.877  -4.991  26.431  0.00  0.00    +0.000 C 
ATOM     17  C   UNL     1      18.131  -5.992  27.244  0.00  0.00    +0.000 C 
ATOM     18  C   UNL     1      18.241  -7.220  26.186  0.00  0.00    +0.000 C 
ATOM     19  C   UNL     1      18.488  -8.412  27.171  0.00  0.00    +0.000 C 
ENDBRANCH  12  13
ENDBRANCH   3  12
TORSDOF 3
ENDMDL
MODEL 7
REMARK VINA RESULT:      -6.7      2.331      3.387
REMARK  Name = 
REMARK  3 active torsions:
REMARK  status: ('A' for Active; 'I' for Inactive)
REMARK    1  A    between atoms: C_5  and  C_6
REMARK    2  A    between atoms: N_8  and  N_9
REMARK    3  A    between atoms: N_9  and  C_10
REMARK                            x       y       z     vdW  Elec       q    Type
REMARK                         _______ _______ _______ _____ _____    ______ ____
ROOT
ATOM      1  C   UNL     1      17.529  10.409  38.093  0.00  0.00    +0.000 C 
ATOM      2  O   UNL     1      18.296  11.404  38.091  0.00  0.00    +0.000 OA
ATOM      3  N   UNL     1      17.042  10.027  36.787  0.00  0.00    +0.000 NA
ENDROOT
BRANCH   1   8
ATOM      4  C   UNL     1      15.861   7.673  42.840  0.00  0.00    +0.000 C 
ATOM      5  C   UNL     1      16.364   8.345  41.596  0.00  0.00    +0.000 A 
ATOM      6  C   UNL     1      15.557   9.280  41.000  0.00  0.00    +0.000 A 
ATOM      7  C   UNL     1      15.901   9.976  39.865  0.00  0.00    +0.000 A 
ATOM      8  C   UNL     1      17.153   9.701  39.297  0.00  0.00    +0.000 A 
ATOM      9  C   UNL     1      17.959   8.764  39.898  0.00  0.00    +0.000 A 
ATOM     10  C   UNL     1      19.278   8.510  39.259  0.00  0.00    +0.000 C 
ATOM     11  C   UNL     1      17.594   8.073  41.039  0.00  0.00    +0.000 A 
ENDBRANCH   1   8
BRANCH   3  12
ATOM     12  N   UNL     1      17.455  10.797  35.672  0.00  0.00    +0.000 NA
BRANCH  12  13
ATOM     13  C   UNL     1      16.489  11.147  34.655  0.00  0.00    +0.000 C 
ATOM     14  C   UNL     1      16.533  10.814  33.397  0.00  0.00    +0.000 C 
ATOM     15  C   UNL     1      16.511  10.480  31.969  0.00  0.00    +0.000 C 
ATOM     16  C   UNL     1      15.688  11.295  31.348  0.00  0.00    +0.000 C 
ATOM     17  C   UNL     1      15.100  12.241  32.337  0.00  0.00    +0.000 C 
ATOM     18  C   UNL     1      14.937  11.172  33.551  0.00  0.00    +0.000 C 
ATOM     19  C   UNL     1      15.347  12.070  34.766  0.00  0.00    +0.000 C 
ENDBRANCH  12  13
ENDBRANCH   3  12
TORSDOF 3
ENDMDL
MODEL 8
REMARK VINA RESULT:      -6.6     21.095     22.413
REMARK  Name = 
REMARK  3 active torsions:
REMARK  status: ('A' for Active; 'I' for Inactive)
REMARK    1  A    between atoms: C_5  and  C_6
REMARK    2  A    between atoms: N_8  and  N_9
REMARK    3  A    between atoms: N_9  and  C_10
REMARK                            x       y       z     vdW  Elec       q    Type
REMARK                         _______ _______ _______ _____ _____    ______ ____
ROOT
ATOM      1  C   UNL     1      28.587  23.549  22.896  0.00  0.00    +0.000 C 
ATOM      2  O   UNL     1      27.845  23.088  21.993  0.00  0.00    +0.000 OA
ATOM      3  N   UNL     1      29.592  24.477  22.427  0.00  0.00    +0.000 NA
ENDROOT
BRANCH   1   8
ATOM      4  C   UNL     1      27.887  22.117  28.397  0.00  0.00    +0.000 C 
ATOM      5  C   UNL     1      28.147  22.470  26.961  0.00  0.00    +0.000 A 
ATOM      6  C   UNL     1      27.089  22.904  26.205  0.00  0.00    +0.000 A 
ATOM      7  C   UNL     1      27.191  23.269  24.884  0.00  0.00    +0.000 A 
ATOM      8  C   UNL     1      28.460  23.186  24.290  0.00  0.00    +0.000 A 
ATOM      9  C   UNL     1      29.517  22.751  25.052  0.00  0.00    +0.000 A 
ATOM     10  C   UNL     1      30.841  22.684  24.378  0.00  0.00    +0.000 C 
ATOM     11  C   UNL     1      29.393  22.387  26.380  0.00  0.00    +0.000 A 
ENDBRANCH   1   8
BRANCH   3  12
ATOM     12  N   UNL     1      29.646  24.753  21.039  0.00  0.00    +0.000 NA
BRANCH  12  13
ATOM     13  C   UNL     1      29.516  26.118  20.582  0.00  0.00    +0.000 C 
ATOM     14  C   UNL     1      29.928  26.597  19.444  0.00  0.00    +0.000 C 
ATOM     15  C   UNL     1      30.362  27.210  18.183  0.00  0.00    +0.000 C 
ATOM     16  C   UNL     1      30.398  28.516  18.329  0.00  0.00    +0.000 C 
ATOM     17  C   UNL     1      29.985  28.863  19.717  0.00  0.00    +0.000 C 
ATOM     18  C   UNL     1      28.821  27.738  19.858  0.00  0.00    +0.000 C 
ATOM     19  C   UNL     1      29.048  27.290  21.341  0.00  0.00    +0.000 C 
ENDBRANCH  12  13
ENDBRANCH   3  12
TORSDOF 3
ENDMDL
MODEL 9
REMARK VINA RESULT:      -6.4      2.789      7.879
REMARK  Name = 
REMARK  3 active torsions:
REMARK  status: ('A' for Active; 'I' for Inactive)
REMARK    1  A    between atoms: C_5  and  C_6
REMARK    2  A    between atoms: N_8  and  N_9
REMARK    3  A    between atoms: N_9  and  C_10
REMARK                            x       y       z     vdW  Elec       q    Type
REMARK                         _______ _______ _______ _____ _____    ______ ____
ROOT
ATOM      1  C   UNL     1      17.020  10.186  36.783  0.00  0.00    +0.000 C 
ATOM      2  O   UNL     1      17.249   9.087  36.219  0.00  0.00    +0.000 OA
ATOM      3  N   UNL     1      17.750  10.388  38.016  0.00  0.00    +0.000 NA
ENDROOT
BRANCH   1   8
ATOM      4  C   UNL     1      13.474  14.073  34.521  0.00  0.00    +0.000 C 
ATOM      5  C   UNL     1      14.355  13.049  35.177  0.00  0.00    +0.000 A 
ATOM      6  C   UNL     1      15.455  12.611  34.486  0.00  0.00    +0.000 A 
ATOM      7  C   UNL     1      16.348  11.687  34.974  0.00  0.00    +0.000 A 
ATOM      8  C   UNL     1      16.103  11.172  36.256  0.00  0.00    +0.000 A 
ATOM      9  C   UNL     1      15.000  11.615  36.945  0.00  0.00    +0.000 A 
ATOM     10  C   UNL     1      14.787  11.041  38.301  0.00  0.00    +0.000 C 
ATOM     11  C   UNL     1      14.113  12.545  36.435  0.00  0.00    +0.000 A 
ENDBRANCH   1   8
BRANCH   3  12
ATOM     12  N   UNL     1      18.610   9.353  38.456  0.00  0.00    +0.000 NA
BRANCH  12  13
ATOM     13  C   UNL     1      18.204   8.515  39.561  0.00  0.00    +0.000 C 
ATOM     14  C   UNL     1      18.657   7.327  39.840  0.00  0.00    +0.000 C 
ATOM     15  C   UNL     1      19.117   5.987  40.221  0.00  0.00    +0.000 C 
ATOM     16  C   UNL     1      18.240   5.445  41.036  0.00  0.00    +0.000 C 
ATOM     17  C   UNL     1      17.121   6.403  41.254  0.00  0.00    +0.000 C 
ATOM     18  C   UNL     1      18.027   7.751  41.297  0.00  0.00    +0.000 C 
ATOM     19  C   UNL     1      17.099   8.734  40.509  0.00  0.00    +0.000 C 
ENDBRANCH  12  13
ENDBRANCH   3  12
TORSDOF 3
ENDMDL
MODEL 10
REMARK VINA RESULT:      -6.3      1.555      7.305
REMARK  Name = 
REMARK  3 active torsions:
REMARK  status: ('A' for Active; 'I' for Inactive)
REMARK    1  A    between atoms: C_5  and  C_6
REMARK    2  A    between atoms: N_8  and  N_9
REMARK    3  A    between atoms: N_9  and  C_10
REMARK                            x       y       z     vdW  Elec       q    Type
REMARK                         _______ _______ _______ _____ _____    ______ ____
ROOT
ATOM      1  C   UNL     1      16.543  10.934  35.717  0.00  0.00    +0.000 C 
ATOM      2  O   UNL     1      16.688   9.694  35.859  0.00  0.00    +0.000 OA
ATOM      3  N   UNL     1      17.055  11.725  36.814  0.00  0.00    +0.000 NA
ENDROOT
BRANCH   1   8
ATOM      4  C   UNL     1      13.962  13.423  31.251  0.00  0.00    +0.000 C 
ATOM      5  C   UNL     1      14.689  12.736  32.371  0.00  0.00    +0.000 A 
ATOM      6  C   UNL     1      14.296  13.011  33.655  0.00  0.00    +0.000 A 
ATOM      7  C   UNL     1      14.869  12.443  34.769  0.00  0.00    +0.000 A 
ATOM      8  C   UNL     1      15.915  11.531  34.559  0.00  0.00    +0.000 A 
ATOM      9  C   UNL     1      16.304  11.258  33.270  0.00  0.00    +0.000 A 
ATOM     10  C   UNL     1      17.415  10.284  33.101  0.00  0.00    +0.000 C 
ATOM     11  C   UNL     1      15.715  11.842  32.163  0.00  0.00    +0.000 A 
ENDBRANCH   1   8
BRANCH   3  12
ATOM     12  N   UNL     1      17.637  11.043  37.910  0.00  0.00    +0.000 NA
BRANCH  12  13
ATOM     13  C   UNL     1      19.077  10.983  38.024  0.00  0.00    +0.000 C 
ATOM     14  C   UNL     1      19.866  11.950  38.396  0.00  0.00    +0.000 C 
ATOM     15  C   UNL     1      20.819  12.987  38.806  0.00  0.00    +0.000 C 
ATOM     16  C   UNL     1      22.025  12.645  38.410  0.00  0.00    +0.000 C 
ATOM     17  C   UNL     1      21.952  11.338  37.699  0.00  0.00    +0.000 C 
ATOM     18  C   UNL     1      20.840  10.655  38.667  0.00  0.00    +0.000 C 
ATOM     19  C   UNL     1      19.977   9.896  37.603  0.00  0.00    +0.000 C 
ENDBRANCH  12  13
ENDBRANCH   3  12
TORSDOF 3
ENDMDL
