MODEL 1
REMARK VINA RESULT:      -7.3      0.000      0.000
REMARK  Name = 
REMARK  10 active torsions:
REMARK  status: ('A' for Active; 'I' for Inactive)
REMARK    1  A    between atoms: C_2  and  C_3
REMARK    2  A    between atoms: C_3  and  C_4
REMARK    3  A    between atoms: C_4  and  N_5
REMARK    4  A    between atoms: C_6  and  C_8
REMARK    5  A    between atoms: C_11  and  C_12
REMARK    6  A    between atoms: C_12  and  N_13
REMARK    7  A    between atoms: N_13  and  C_14
REMARK    8  A    between atoms: N_13  and  C_21
REMARK    9  A    between atoms: C_14  and  C_15
REMARK   10  A    between atoms: C_21  and  C_22
REMARK                            x       y       z     vdW  Elec       q    Type
REMARK                         _______ _______ _______ _____ _____    ______ ____
ROOT
ATOM      1  N   UNL     1      13.013  -0.079  27.347  0.00  0.00    +0.000 NA
ENDROOT
BRANCH   1   2
ATOM      2  C   UNL     1      13.973  -0.974  26.851  0.00  0.00    +0.000 C 
BRANCH   2   6
ATOM      3  C   UNL     1      17.321  -0.090  25.861  0.00  0.00    +0.000 A 
ATOM      4  C   UNL     1      17.000   0.987  26.656  0.00  0.00    +0.000 A 
ATOM      5  C   UNL     1      15.720   0.816  27.136  0.00  0.00    +0.000 A 
ATOM      6  C   UNL     1      15.299  -0.404  26.593  0.00  0.00    +0.000 A 
ATOM      7  O   UNL     1      16.281  -0.888  25.854  0.00  0.00    +0.000 OA
BRANCH   3   9
ATOM      8  N   UNL     1      19.062   0.679  24.201  0.00  0.00    +0.000 NA
ATOM      9  C   UNL     1      18.600  -0.243  25.187  0.00  0.00    +0.000 C 
ATOM     10  O   UNL     1      19.359  -1.207  25.452  0.00  0.00    +0.000 OA
BRANCH   8  11
ATOM     11  C   UNL     1      20.329   0.540  23.525  0.00  0.00    +0.000 C 
BRANCH  11  12
ATOM     12  C   UNL     1      20.205   0.745  22.032  0.00  0.00    +0.000 C 
BRANCH  12  14
ATOM     13  C   UNL     1      20.699  -1.643  22.117  0.00  0.00    +0.000 C 
ATOM     14  C   UNL     1      21.002  -0.354  21.356  0.00  0.00    +0.000 C 
ENDBRANCH  12  14
ENDBRANCH  11  12
ENDBRANCH   8  11
ENDBRANCH   3   9
ENDBRANCH   2   6
ENDBRANCH   1   2
BRANCH   1  15
ATOM     15  C   UNL     1      12.150   0.486  26.402  0.00  0.00    +0.000 C 
BRANCH  15  16
ATOM     16  C   UNL     1      11.537   1.789  26.653  0.00  0.00    +0.000 A 
ATOM     17  C   UNL     1      10.183   2.029  26.579  0.00  0.00    +0.000 A 
ATOM     18  C   UNL     1       9.687   3.288  26.813  0.00  0.00    +0.000 A 
ATOM     19  C   UNL     1      10.569   4.313  27.124  0.00  0.00    +0.000 A 
ATOM     20  C   UNL     1      11.927   4.105  27.206  0.00  0.00    +0.000 A 
ATOM     21  C   UNL     1      12.405   2.839  26.968  0.00  0.00    +0.000 A 
ENDBRANCH  15  16
ENDBRANCH   1  15
BRANCH   1  22
ATOM     22  C   UNL     1      12.291  -0.640  28.467  0.00  0.00    +0.000 C 
BRANCH  22  23
ATOM     23  C   UNL     1      12.502   0.150  29.705  0.00  0.00    +0.000 A 
ATOM     24  C   UNL     1      13.653  -0.012  30.427  0.00  0.00    +0.000 A 
ATOM     25  C   UNL     1      13.904   0.705  31.597  0.00  0.00    +0.000 A 
ATOM     26  C   UNL     1      12.975   1.604  32.045  0.00  0.00    +0.000 A 
ATOM     27  C   UNL     1      13.220   2.391  33.303  0.00  0.00    +0.000 C 
ATOM     28  C   UNL     1      11.810   1.778  31.328  0.00  0.00    +0.000 A 
ATOM     29  C   UNL     1      11.570   1.052  30.157  0.00  0.00    +0.000 A 
ENDBRANCH  22  23
ENDBRANCH   1  22
TORSDOF 10
ENDMDL
MODEL 2
REMARK VINA RESULT:      -7.1     23.170     26.740
REMARK  Name = 
REMARK  10 active torsions:
REMARK  status: ('A' for Active; 'I' for Inactive)
REMARK    1  A    between atoms: C_2  and  C_3
REMARK    2  A    between atoms: C_3  and  C_4
REMARK    3  A    between atoms: C_4  and  N_5
REMARK    4  A    between atoms: C_6  and  C_8
REMARK    5  A    between atoms: C_11  and  C_12
REMARK    6  A    between atoms: C_12  and  N_13
REMARK    7  A    between atoms: N_13  and  C_14
REMARK    8  A    between atoms: N_13  and  C_21
REMARK    9  A    between atoms: C_14  and  C_15
REMARK   10  A    between atoms: C_21  and  C_22
REMARK                            x       y       z     vdW  Elec       q    Type
REMARK                         _______ _______ _______ _____ _____    ______ ____
ROOT
ATOM      1  N   UNL     1      38.457   3.373  14.693  0.00  0.00    +0.000 NA
ENDROOT
BRANCH   1   2
ATOM      2  C   UNL     1      37.124   3.014  14.442  0.00  0.00    +0.000 C 
BRANCH   2   6
ATOM      3  C   UNL     1      36.080   0.774  17.062  0.00  0.00    +0.000 A 
ATOM      4  C   UNL     1      34.925   1.497  16.873  0.00  0.00    +0.000 A 
ATOM      5  C   UNL     1      35.143   2.427  15.880  0.00  0.00    +0.000 A 
ATOM      6  C   UNL     1      36.472   2.223  15.490  0.00  0.00    +0.000 A 
ATOM      7  O   UNL     1      36.970   1.241  16.219  0.00  0.00    +0.000 OA
BRANCH   3   9
ATOM      8  N   UNL     1      37.480  -0.775  18.483  0.00  0.00    +0.000 NA
ATOM      9  C   UNL     1      36.212  -0.297  18.037  0.00  0.00    +0.000 C 
ATOM     10  O   UNL     1      35.199  -0.849  18.531  0.00  0.00    +0.000 OA
BRANCH   8  11
ATOM     11  C   UNL     1      37.626  -1.836  19.450  0.00  0.00    +0.000 C 
BRANCH  11  12
ATOM     12  C   UNL     1      38.494  -2.962  18.935  0.00  0.00    +0.000 C 
BRANCH  12  14
ATOM     13  C   UNL     1      39.054  -3.545  16.634  0.00  0.00    +0.000 C 
ATOM     14  C   UNL     1      37.897  -3.433  17.624  0.00  0.00    +0.000 C 
ENDBRANCH  12  14
ENDBRANCH  11  12
ENDBRANCH   8  11
ENDBRANCH   3   9
ENDBRANCH   2   6
ENDBRANCH   1   2
BRANCH   1  15
ATOM     15  C   UNL     1      39.416   2.813  13.842  0.00  0.00    +0.000 C 
BRANCH  15  16
ATOM     16  C   UNL     1      39.462   1.366  13.638  0.00  0.00    +0.000 A 
ATOM     17  C   UNL     1      38.933   0.727  12.538  0.00  0.00    +0.000 A 
ATOM     18  C   UNL     1      39.001  -0.640  12.430  0.00  0.00    +0.000 A 
ATOM     19  C   UNL     1      39.611  -1.367  13.443  0.00  0.00    +0.000 A 
ATOM     20  C   UNL     1      40.149  -0.758  14.553  0.00  0.00    +0.000 A 
ATOM     21  C   UNL     1      40.071   0.611  14.645  0.00  0.00    +0.000 A 
ENDBRANCH  15  16
ENDBRANCH   1  15
BRANCH   1  22
ATOM     22  C   UNL     1      38.609   4.806  14.806  0.00  0.00    +0.000 C 
BRANCH  22  23
ATOM     23  C   UNL     1      39.153   5.196  16.130  0.00  0.00    +0.000 A 
ATOM     24  C   UNL     1      38.513   4.796  17.272  0.00  0.00    +0.000 A 
ATOM     25  C   UNL     1      38.979   5.131  18.542  0.00  0.00    +0.000 A 
ATOM     26  C   UNL     1      40.116   5.884  18.662  0.00  0.00    +0.000 A 
ATOM     27  C   UNL     1      40.642   6.260  20.020  0.00  0.00    +0.000 C 
ATOM     28  C   UNL     1      40.771   6.296  17.521  0.00  0.00    +0.000 A 
ATOM     29  C   UNL     1      40.292   5.953  16.253  0.00  0.00    +0.000 A 
ENDBRANCH  22  23
ENDBRANCH   1  22
TORSDOF 10
ENDMDL
MODEL 3
REMARK VINA RESULT:      -7.1     23.586     26.590
REMARK  Name = 
REMARK  10 active torsions:
REMARK  status: ('A' for Active; 'I' for Inactive)
REMARK    1  A    between atoms: C_2  and  C_3
REMARK    2  A    between atoms: C_3  and  C_4
REMARK    3  A    between atoms: C_4  and  N_5
REMARK    4  A    between atoms: C_6  and  C_8
REMARK    5  A    between atoms: C_11  and  C_12
REMARK    6  A    between atoms: C_12  and  N_13
REMARK    7  A    between atoms: N_13  and  C_14
REMARK    8  A    between atoms: N_13  and  C_21
REMARK    9  A    between atoms: C_14  and  C_15
REMARK   10  A    between atoms: C_21  and  C_22
REMARK                            x       y       z     vdW  Elec       q    Type
REMARK                         _______ _______ _______ _____ _____    ______ ____
ROOT
ATOM      1  N   UNL     1      35.992  -0.613  16.303  0.00  0.00    +0.000 NA
ENDROOT
BRANCH   1   2
ATOM      2  C   UNL     1      35.133   0.482  16.481  0.00  0.00    +0.000 C 
BRANCH   2   6
ATOM      3  C   UNL     1      36.932   3.586  16.167  0.00  0.00    +0.000 A 
ATOM      4  C   UNL     1      36.015   3.722  15.151  0.00  0.00    +0.000 A 
ATOM      5  C   UNL     1      35.219   2.597  15.120  0.00  0.00    +0.000 A 
ATOM      6  C   UNL     1      35.703   1.794  16.159  0.00  0.00    +0.000 A 
ATOM      7  O   UNL     1      36.708   2.426  16.737  0.00  0.00    +0.000 OA
BRANCH   3   9
ATOM      8  N   UNL     1      38.708   4.542  17.687  0.00  0.00    +0.000 NA
ATOM      9  C   UNL     1      37.935   4.589  16.490  0.00  0.00    +0.000 C 
ATOM     10  O   UNL     1      38.161   5.549  15.714  0.00  0.00    +0.000 OA
BRANCH   8  11
ATOM     11  C   UNL     1      39.705   5.529  18.020  0.00  0.00    +0.000 C 
BRANCH  11  12
ATOM     12  C   UNL     1      39.358   6.291  19.280  0.00  0.00    +0.000 C 
BRANCH  12  14
ATOM     13  C   UNL     1      41.778   6.565  19.144  0.00  0.00    +0.000 C 
ATOM     14  C   UNL     1      40.617   6.378  20.119  0.00  0.00    +0.000 C 
ENDBRANCH  12  14
ENDBRANCH  11  12
ENDBRANCH   8  11
ENDBRANCH   3   9
ENDBRANCH   2   6
ENDBRANCH   1   2
BRANCH   1  15
ATOM     15  C   UNL     1      35.658  -1.778  17.003  0.00  0.00    +0.000 C 
BRANCH  15  16
ATOM     16  C   UNL     1      36.632  -2.860  17.137  0.00  0.00    +0.000 A 
ATOM     17  C   UNL     1      36.477  -4.109  16.576  0.00  0.00    +0.000 A 
ATOM     18  C   UNL     1      37.432  -5.077  16.763  0.00  0.00    +0.000 A 
ATOM     19  C   UNL     1      38.554  -4.780  17.524  0.00  0.00    +0.000 A 
ATOM     20  C   UNL     1      38.739  -3.542  18.096  0.00  0.00    +0.000 A 
ATOM     21  C   UNL     1      37.772  -2.585  17.898  0.00  0.00    +0.000 A 
ENDBRANCH  15  16
ENDBRANCH   1  15
BRANCH   1  22
ATOM     22  C   UNL     1      36.233  -0.878  14.903  0.00  0.00    +0.000 C 
BRANCH  22  23
ATOM     23  C   UNL     1      37.664  -1.173  14.640  0.00  0.00    +0.000 A 
ATOM     24  C   UNL     1      38.005  -2.256  13.876  0.00  0.00    +0.000 A 
ATOM     25  C   UNL     1      39.332  -2.579  13.596  0.00  0.00    +0.000 A 
ATOM     26  C   UNL     1      40.335  -1.793  14.096  0.00  0.00    +0.000 A 
ATOM     27  C   UNL     1      41.775  -2.118  13.809  0.00  0.00    +0.000 C 
ATOM     28  C   UNL     1      40.006  -0.699  14.868  0.00  0.00    +0.000 A 
ATOM     29  C   UNL     1      38.671  -0.386  15.142  0.00  0.00    +0.000 A 
ENDBRANCH  22  23
ENDBRANCH   1  22
TORSDOF 10
ENDMDL
MODEL 4
REMARK VINA RESULT:      -7.0     23.081     26.593
REMARK  Name = 
REMARK  10 active torsions:
REMARK  status: ('A' for Active; 'I' for Inactive)
REMARK    1  A    between atoms: C_2  and  C_3
REMARK    2  A    between atoms: C_3  and  C_4
REMARK    3  A    between atoms: C_4  and  N_5
REMARK    4  A    between atoms: C_6  and  C_8
REMARK    5  A    between atoms: C_11  and  C_12
REMARK    6  A    between atoms: C_12  and  N_13
REMARK    7  A    between atoms: N_13  and  C_14
REMARK    8  A    between atoms: N_13  and  C_21
REMARK    9  A    between atoms: C_14  and  C_15
REMARK   10  A    between atoms: C_21  and  C_22
REMARK                            x       y       z     vdW  Elec       q    Type
REMARK                         _______ _______ _______ _____ _____    ______ ____
ROOT
ATOM      1  N   UNL     1      38.122   3.213  15.088  0.00  0.00    +0.000 NA
ENDROOT
BRANCH   1   2
ATOM      2  C   UNL     1      39.285   3.001  14.334  0.00  0.00    +0.000 C 
BRANCH   2   6
ATOM      3  C   UNL     1      40.104  -0.483  14.743  0.00  0.00    +0.000 A 
ATOM      4  C   UNL     1      40.902  -0.160  13.670  0.00  0.00    +0.000 A 
ATOM      5  C   UNL     1      40.717   1.171  13.365  0.00  0.00    +0.000 A 
ATOM      6  C   UNL     1      39.777   1.620  14.301  0.00  0.00    +0.000 A 
ATOM      7  O   UNL     1      39.455   0.605  15.082  0.00  0.00    +0.000 OA
BRANCH   3   9
ATOM      8  N   UNL     1      39.089  -2.161  16.334  0.00  0.00    +0.000 NA
ATOM      9  C   UNL     1      40.045  -1.809  15.336  0.00  0.00    +0.000 C 
ATOM     10  O   UNL     1      40.847  -2.709  14.986  0.00  0.00    +0.000 OA
BRANCH   8  11
ATOM     11  C   UNL     1      39.019  -3.472  16.931  0.00  0.00    +0.000 C 
BRANCH  11  12
ATOM     12  C   UNL     1      37.611  -3.837  17.344  0.00  0.00    +0.000 C 
BRANCH  12  14
ATOM     13  C   UNL     1      36.106  -4.434  15.520  0.00  0.00    +0.000 C 
ATOM     14  C   UNL     1      37.166  -4.991  16.467  0.00  0.00    +0.000 C 
ENDBRANCH  12  14
ENDBRANCH  11  12
ENDBRANCH   8  11
ENDBRANCH   3   9
ENDBRANCH   2   6
ENDBRANCH   1   2
BRANCH   1  15
ATOM     15  C   UNL     1      37.922   4.516  15.559  0.00  0.00    +0.000 C 
BRANCH  15  16
ATOM     16  C   UNL     1      38.860   5.104  16.513  0.00  0.00    +0.000 A 
ATOM     17  C   UNL     1      40.004   5.780  16.150  0.00  0.00    +0.000 A 
ATOM     18  C   UNL     1      40.844   6.289  17.110  0.00  0.00    +0.000 A 
ATOM     19  C   UNL     1      40.524   6.112  18.449  0.00  0.00    +0.000 A 
ATOM     20  C   UNL     1      39.389   5.442  18.844  0.00  0.00    +0.000 A 
ATOM     21  C   UNL     1      38.560   4.939  17.869  0.00  0.00    +0.000 A 
ENDBRANCH  15  16
ENDBRANCH   1  15
BRANCH   1  22
ATOM     22  C   UNL     1      36.950   2.699  14.415  0.00  0.00    +0.000 C 
BRANCH  22  23
ATOM     23  C   UNL     1      36.266   1.661  15.225  0.00  0.00    +0.000 A 
ATOM     24  C   UNL     1      36.403   0.340  14.893  0.00  0.00    +0.000 A 
ATOM     25  C   UNL     1      35.784  -0.677  15.619  0.00  0.00    +0.000 A 
ATOM     26  C   UNL     1      35.013  -0.354  16.702  0.00  0.00    +0.000 A 
ATOM     27  C   UNL     1      34.335  -1.431  17.503  0.00  0.00    +0.000 C 
ATOM     28  C   UNL     1      34.864   0.972  17.049  0.00  0.00    +0.000 A 
ATOM     29  C   UNL     1      35.490   1.982  16.311  0.00  0.00    +0.000 A 
ENDBRANCH  22  23
ENDBRANCH   1  22
TORSDOF 10
ENDMDL
MODEL 5
REMARK VINA RESULT:      -6.9     24.146     26.844
REMARK  Name = 
REMARK  10 active torsions:
REMARK  status: ('A' for Active; 'I' for Inactive)
REMARK    1  A    between atoms: C_2  and  C_3
REMARK    2  A    between atoms: C_3  and  C_4
REMARK    3  A    between atoms: C_4  and  N_5
REMARK    4  A    between atoms: C_6  and  C_8
REMARK    5  A    between atoms: C_11  and  C_12
REMARK    6  A    between atoms: C_12  and  N_13
REMARK    7  A    between atoms: N_13  and  C_14
REMARK    8  A    between atoms: N_13  and  C_21
REMARK    9  A    between atoms: C_14  and  C_15
REMARK   10  A    between atoms: C_21  and  C_22
REMARK                            x       y       z     vdW  Elec       q    Type
REMARK                         _______ _______ _______ _____ _____    ______ ____
ROOT
ATOM      1  N   UNL     1      36.476  -0.540  15.959  0.00  0.00    +0.000 NA
ENDROOT
BRANCH   1   2
ATOM      2  C   UNL     1      35.584   0.543  15.955  0.00  0.00    +0.000 C 
BRANCH   2   6
ATOM      3  C   UNL     1      37.348   3.600  16.672  0.00  0.00    +0.000 A 
ATOM      4  C   UNL     1      36.746   3.930  15.479  0.00  0.00    +0.000 A 
ATOM      5  C   UNL     1      36.008   2.850  15.043  0.00  0.00    +0.000 A 
ATOM      6  C   UNL     1      36.198   1.872  16.026  0.00  0.00    +0.000 A 
ATOM      7  O   UNL     1      36.994   2.370  16.956  0.00  0.00    +0.000 OA
BRANCH   3   9
ATOM      8  N   UNL     1      38.617   5.771  16.908  0.00  0.00    +0.000 NA
ATOM      9  C   UNL     1      38.205   4.505  17.421  0.00  0.00    +0.000 C 
ATOM     10  O   UNL     1      38.621   4.201  18.565  0.00  0.00    +0.000 OA
BRANCH   8  11
ATOM     11  C   UNL     1      39.466   6.678  17.640  0.00  0.00    +0.000 C 
BRANCH  11  12
ATOM     12  C   UNL     1      40.934   6.377  17.437  0.00  0.00    +0.000 C 
BRANCH  12  14
ATOM     13  C   UNL     1      40.557   6.568  19.839  0.00  0.00    +0.000 C 
ATOM     14  C   UNL     1      41.634   6.624  18.759  0.00  0.00    +0.000 C 
ENDBRANCH  12  14
ENDBRANCH  11  12
ENDBRANCH   8  11
ENDBRANCH   3   9
ENDBRANCH   2   6
ENDBRANCH   1   2
BRANCH   1  15
ATOM     15  C   UNL     1      36.066  -1.673  16.671  0.00  0.00    +0.000 C 
BRANCH  15  16
ATOM     16  C   UNL     1      36.983  -2.326  17.604  0.00  0.00    +0.000 A 
ATOM     17  C   UNL     1      37.800  -3.382  17.267  0.00  0.00    +0.000 A 
ATOM     18  C   UNL     1      38.622  -3.952  18.208  0.00  0.00    +0.000 A 
ATOM     19  C   UNL     1      38.616  -3.449  19.502  0.00  0.00    +0.000 A 
ATOM     20  C   UNL     1      37.811  -2.395  19.869  0.00  0.00    +0.000 A 
ATOM     21  C   UNL     1      36.995  -1.837  18.914  0.00  0.00    +0.000 A 
ENDBRANCH  15  16
ENDBRANCH   1  15
BRANCH   1  22
ATOM     22  C   UNL     1      36.913  -0.874  14.623  0.00  0.00    +0.000 C 
BRANCH  22  23
ATOM     23  C   UNL     1      38.387  -0.764  14.487  0.00  0.00    +0.000 A 
ATOM     24  C   UNL     1      38.974   0.472  14.428  0.00  0.00    +0.000 A 
ATOM     25  C   UNL     1      40.353   0.634  14.302  0.00  0.00    +0.000 A 
ATOM     26  C   UNL     1      41.156  -0.473  14.235  0.00  0.00    +0.000 A 
ATOM     27  C   UNL     1      42.647  -0.327  14.100  0.00  0.00    +0.000 C 
ATOM     28  C   UNL     1      40.579  -1.724  14.292  0.00  0.00    +0.000 A 
ATOM     29  C   UNL     1      39.194  -1.873  14.418  0.00  0.00    +0.000 A 
ENDBRANCH  22  23
ENDBRANCH   1  22
TORSDOF 10
ENDMDL
MODEL 6
REMARK VINA RESULT:      -6.8     21.466     25.658
REMARK  Name = 
REMARK  10 active torsions:
REMARK  status: ('A' for Active; 'I' for Inactive)
REMARK    1  A    between atoms: C_2  and  C_3
REMARK    2  A    between atoms: C_3  and  C_4
REMARK    3  A    between atoms: C_4  and  N_5
REMARK    4  A    between atoms: C_6  and  C_8
REMARK    5  A    between atoms: C_11  and  C_12
REMARK    6  A    between atoms: C_12  and  N_13
REMARK    7  A    between atoms: N_13  and  C_14
REMARK    8  A    between atoms: N_13  and  C_21
REMARK    9  A    between atoms: C_14  and  C_15
REMARK   10  A    between atoms: C_21  and  C_22
REMARK                            x       y       z     vdW  Elec       q    Type
REMARK                         _______ _______ _______ _____ _____    ______ ____
ROOT
ATOM      1  N   UNL     1      37.034   4.280  14.437  0.00  0.00    +0.000 NA
ENDROOT
BRANCH   1   2
ATOM      2  C   UNL     1      36.994   5.406  13.601  0.00  0.00    +0.000 C 
BRANCH   2   6
ATOM      3  C   UNL     1      34.783   8.077  14.578  0.00  0.00    +0.000 A 
ATOM      4  C   UNL     1      33.916   7.279  13.868  0.00  0.00    +0.000 A 
ATOM      5  C   UNL     1      34.606   6.178  13.405  0.00  0.00    +0.000 A 
ATOM      6  C   UNL     1      35.913   6.359  13.872  0.00  0.00    +0.000 A 
ATOM      7  O   UNL     1      35.956   7.490  14.553  0.00  0.00    +0.000 OA
BRANCH   3   9
ATOM      8  N   UNL     1      34.634   9.591  16.593  0.00  0.00    +0.000 NA
ATOM      9  C   UNL     1      34.395   9.326  15.212  0.00  0.00    +0.000 C 
ATOM     10  O   UNL     1      33.826  10.233  14.557  0.00  0.00    +0.000 OA
BRANCH   8  11
ATOM     11  C   UNL     1      34.255  10.826  17.235  0.00  0.00    +0.000 C 
BRANCH  11  12
ATOM     12  C   UNL     1      32.886  10.742  17.873  0.00  0.00    +0.000 C 
BRANCH  12  14
ATOM     13  C   UNL     1      31.675   9.480  19.573  0.00  0.00    +0.000 C 
ATOM     14  C   UNL     1      32.765   9.371  18.508  0.00  0.00    +0.000 C 
ENDBRANCH  12  14
ENDBRANCH  11  12
ENDBRANCH   8  11
ENDBRANCH   3   9
ENDBRANCH   2   6
ENDBRANCH   1   2
BRANCH   1  15
ATOM     15  C   UNL     1      36.286   3.175  14.019  0.00  0.00    +0.000 C 
BRANCH  15  16
ATOM     16  C   UNL     1      35.903   2.140  14.979  0.00  0.00    +0.000 A 
ATOM     17  C   UNL     1      35.171   2.383  16.120  0.00  0.00    +0.000 A 
ATOM     18  C   UNL     1      34.867   1.357  16.981  0.00  0.00    +0.000 A 
ATOM     19  C   UNL     1      35.309   0.075  16.685  0.00  0.00    +0.000 A 
ATOM     20  C   UNL     1      36.042  -0.199  15.553  0.00  0.00    +0.000 A 
ATOM     21  C   UNL     1      36.336   0.840  14.703  0.00  0.00    +0.000 A 
ENDBRANCH  15  16
ENDBRANCH   1  15
BRANCH   1  22
ATOM     22  C   UNL     1      38.392   3.915  14.771  0.00  0.00    +0.000 C 
BRANCH  22  23
ATOM     23  C   UNL     1      38.843   4.572  16.023  0.00  0.00    +0.000 A 
ATOM     24  C   UNL     1      38.256   4.241  17.214  0.00  0.00    +0.000 A 
ATOM     25  C   UNL     1      38.641   4.825  18.421  0.00  0.00    +0.000 A 
ATOM     26  C   UNL     1      39.639   5.760  18.425  0.00  0.00    +0.000 A 
ATOM     27  C   UNL     1      40.075   6.406  19.711  0.00  0.00    +0.000 C 
ATOM     28  C   UNL     1      40.240   6.105  17.232  0.00  0.00    +0.000 A 
ATOM     29  C   UNL     1      39.844   5.512  16.029  0.00  0.00    +0.000 A 
ENDBRANCH  22  23
ENDBRANCH   1  22
TORSDOF 10
ENDMDL
MODEL 7
REMARK VINA RESULT:      -6.4     20.098     22.503
REMARK  Name = 
REMARK  10 active torsions:
REMARK  status: ('A' for Active; 'I' for Inactive)
REMARK    1  A    between atoms: C_2  and  C_3
REMARK    2  A    between atoms: C_3  and  C_4
REMARK    3  A    between atoms: C_4  and  N_5
REMARK    4  A    between atoms: C_6  and  C_8
REMARK    5  A    between atoms: C_11  and  C_12
REMARK    6  A    between atoms: C_12  and  N_13
REMARK    7  A    between atoms: N_13  and  C_14
REMARK    8  A    between atoms: N_13  and  C_21
REMARK    9  A    between atoms: C_14  and  C_15
REMARK   10  A    between atoms: C_21  and  C_22
REMARK                            x       y       z     vdW  Elec       q    Type
REMARK                         _______ _______ _______ _____ _____    ______ ____
ROOT
ATOM      1  N   UNL     1      27.781  16.749  36.415  0.00  0.00    +0.000 NA
ENDROOT
BRANCH   1   2
ATOM      2  C   UNL     1      27.202  17.019  37.664  0.00  0.00    +0.000 C 
BRANCH   2   6
ATOM      3  C   UNL     1      26.361  14.122  39.633  0.00  0.00    +0.000 A 
ATOM      4  C   UNL     1      25.158  14.363  39.012  0.00  0.00    +0.000 A 
ATOM      5  C   UNL     1      25.294  15.466  38.196  0.00  0.00    +0.000 A 
ATOM      6  C   UNL     1      26.626  15.864  38.360  0.00  0.00    +0.000 A 
ATOM      7  O   UNL     1      27.201  15.039  39.216  0.00  0.00    +0.000 OA
BRANCH   3   9
ATOM      8  N   UNL     1      27.767  12.236  40.551  0.00  0.00    +0.000 NA
ATOM      9  C   UNL     1      26.583  13.031  40.568  0.00  0.00    +0.000 C 
ATOM     10  O   UNL     1      25.727  12.744  41.440  0.00  0.00    +0.000 OA
BRANCH   8  11
ATOM     11  C   UNL     1      28.001  11.151  41.472  0.00  0.00    +0.000 C 
BRANCH  11  12
ATOM     12  C   UNL     1      28.096   9.815  40.770  0.00  0.00    +0.000 C 
BRANCH  12  14
ATOM     13  C   UNL     1      30.022   8.504  41.494  0.00  0.00    +0.000 C 
ATOM     14  C   UNL     1      28.554   8.796  41.795  0.00  0.00    +0.000 C 
ENDBRANCH  12  14
ENDBRANCH  11  12
ENDBRANCH   8  11
ENDBRANCH   3   9
ENDBRANCH   2   6
ENDBRANCH   1   2
BRANCH   1  15
ATOM     15  C   UNL     1      27.155  17.332  35.308  0.00  0.00    +0.000 C 
BRANCH  15  16
ATOM     16  C   UNL     1      26.397  16.503  34.372  0.00  0.00    +0.000 A 
ATOM     17  C   UNL     1      25.500  17.003  33.454  0.00  0.00    +0.000 A 
ATOM     18  C   UNL     1      24.814  16.155  32.620  0.00  0.00    +0.000 A 
ATOM     19  C   UNL     1      25.037  14.788  32.716  0.00  0.00    +0.000 A 
ATOM     20  C   UNL     1      25.927  14.258  33.622  0.00  0.00    +0.000 A 
ATOM     21  C   UNL     1      26.604  15.122  34.449  0.00  0.00    +0.000 A 
ENDBRANCH  15  16
ENDBRANCH   1  15
BRANCH   1  22
ATOM     22  C   UNL     1      29.204  17.000  36.423  0.00  0.00    +0.000 C 
BRANCH  22  23
ATOM     23  C   UNL     1      29.979  15.751  36.625  0.00  0.00    +0.000 A 
ATOM     24  C   UNL     1      30.214  14.918  35.564  0.00  0.00    +0.000 A 
ATOM     25  C   UNL     1      30.937  13.733  35.696  0.00  0.00    +0.000 A 
ATOM     26  C   UNL     1      31.434  13.382  36.922  0.00  0.00    +0.000 A 
ATOM     27  C   UNL     1      32.218  12.110  37.092  0.00  0.00    +0.000 C 
ATOM     28  C   UNL     1      31.204  14.211  38.000  0.00  0.00    +0.000 A 
ATOM     29  C   UNL     1      30.477  15.396  37.855  0.00  0.00    +0.000 A 
ENDBRANCH  22  23
ENDBRANCH   1  22
TORSDOF 10
ENDMDL
MODEL 8
REMARK VINA RESULT:      -6.4     23.617     26.794
REMARK  Name = 
REMARK  10 active torsions:
REMARK  status: ('A' for Active; 'I' for Inactive)
REMARK    1  A    between atoms: C_2  and  C_3
REMARK    2  A    between atoms: C_3  and  C_4
REMARK    3  A    between atoms: C_4  and  N_5
REMARK    4  A    between atoms: C_6  and  C_8
REMARK    5  A    between atoms: C_11  and  C_12
REMARK    6  A    between atoms: C_12  and  N_13
REMARK    7  A    between atoms: N_13  and  C_14
REMARK    8  A    between atoms: N_13  and  C_21
REMARK    9  A    between atoms: C_14  and  C_15
REMARK   10  A    between atoms: C_21  and  C_22
REMARK                            x       y       z     vdW  Elec       q    Type
REMARK                         _______ _______ _______ _____ _____    ______ ____
ROOT
ATOM      1  N   UNL     1      38.104   0.407  13.222  0.00  0.00    +0.000 NA
ENDROOT
BRANCH   1   2
ATOM      2  C   UNL     1      38.783   1.380  12.475  0.00  0.00    +0.000 C 
BRANCH   2   6
ATOM      3  C   UNL     1      38.623   4.581  14.119  0.00  0.00    +0.000 A 
ATOM      4  C   UNL     1      38.055   4.892  12.906  0.00  0.00    +0.000 A 
ATOM      5  C   UNL     1      38.030   3.757  12.124  0.00  0.00    +0.000 A 
ATOM      6  C   UNL     1      38.607   2.764  12.926  0.00  0.00    +0.000 A 
ATOM      7  O   UNL     1      38.936   3.308  14.084  0.00  0.00    +0.000 OA
BRANCH   3   9
ATOM      8  N   UNL     1      38.627   5.203  16.566  0.00  0.00    +0.000 NA
ATOM      9  C   UNL     1      38.810   5.543  15.193  0.00  0.00    +0.000 C 
ATOM     10  O   UNL     1      39.145   6.727  14.949  0.00  0.00    +0.000 OA
BRANCH   8  11
ATOM     11  C   UNL     1      38.808   6.146  17.642  0.00  0.00    +0.000 C 
BRANCH  11  12
ATOM     12  C   UNL     1      39.271   5.476  18.917  0.00  0.00    +0.000 C 
BRANCH  12  14
ATOM     13  C   UNL     1      38.955   7.653  19.971  0.00  0.00    +0.000 C 
ATOM     14  C   UNL     1      39.967   6.530  19.756  0.00  0.00    +0.000 C 
ENDBRANCH  12  14
ENDBRANCH  11  12
ENDBRANCH   8  11
ENDBRANCH   3   9
ENDBRANCH   2   6
ENDBRANCH   1   2
BRANCH   1  15
ATOM     15  C   UNL     1      36.709   0.512  13.248  0.00  0.00    +0.000 C 
BRANCH  15  16
ATOM     16  C   UNL     1      36.027   0.943  14.467  0.00  0.00    +0.000 A 
ATOM     17  C   UNL     1      35.479   2.195  14.641  0.00  0.00    +0.000 A 
ATOM     18  C   UNL     1      34.870   2.528  15.826  0.00  0.00    +0.000 A 
ATOM     19  C   UNL     1      34.813   1.586  16.843  0.00  0.00    +0.000 A 
ATOM     20  C   UNL     1      35.351   0.327  16.700  0.00  0.00    +0.000 A 
ATOM     21  C   UNL     1      35.957   0.012  15.508  0.00  0.00    +0.000 A 
ENDBRANCH  15  16
ENDBRANCH   1  15
BRANCH   1  22
ATOM     22  C   UNL     1      38.536  -0.928  12.875  0.00  0.00    +0.000 C 
BRANCH  22  23
ATOM     23  C   UNL     1      38.513  -1.834  14.050  0.00  0.00    +0.000 A 
ATOM     24  C   UNL     1      37.635  -2.884  14.082  0.00  0.00    +0.000 A 
ATOM     25  C   UNL     1      37.571  -3.766  15.160  0.00  0.00    +0.000 A 
ATOM     26  C   UNL     1      38.411  -3.587  16.225  0.00  0.00    +0.000 A 
ATOM     27  C   UNL     1      38.364  -4.525  17.400  0.00  0.00    +0.000 C 
ATOM     28  C   UNL     1      39.301  -2.534  16.207  0.00  0.00    +0.000 A 
ATOM     29  C   UNL     1      39.354  -1.655  15.121  0.00  0.00    +0.000 A 
ENDBRANCH  22  23
ENDBRANCH   1  22
TORSDOF 10
ENDMDL
MODEL 9
REMARK VINA RESULT:      -6.3     23.518     26.687
REMARK  Name = 
REMARK  10 active torsions:
REMARK  status: ('A' for Active; 'I' for Inactive)
REMARK    1  A    between atoms: C_2  and  C_3
REMARK    2  A    between atoms: C_3  and  C_4
REMARK    3  A    between atoms: C_4  and  N_5
REMARK    4  A    between atoms: C_6  and  C_8
REMARK    5  A    between atoms: C_11  and  C_12
REMARK    6  A    between atoms: C_12  and  N_13
REMARK    7  A    between atoms: N_13  and  C_14
REMARK    8  A    between atoms: N_13  and  C_21
REMARK    9  A    between atoms: C_14  and  C_15
REMARK   10  A    between atoms: C_21  and  C_22
REMARK                            x       y       z     vdW  Elec       q    Type
REMARK                         _______ _______ _______ _____ _____    ______ ____
ROOT
ATOM      1  N   UNL     1      36.739   4.869  14.890  0.00  0.00    +0.000 NA
ENDROOT
BRANCH   1   2
ATOM      2  C   UNL     1      36.483   6.175  14.446  0.00  0.00    +0.000 C 
BRANCH   2   6
ATOM      3  C   UNL     1      35.394   6.723  11.056  0.00  0.00    +0.000 A 
ATOM      4  C   UNL     1      36.697   6.336  10.844  0.00  0.00    +0.000 A 
ATOM      5  C   UNL     1      37.287   6.077  12.063  0.00  0.00    +0.000 A 
ATOM      6  C   UNL     1      36.279   6.327  13.002  0.00  0.00    +0.000 A 
ATOM      7  O   UNL     1      35.192   6.703  12.352  0.00  0.00    +0.000 OA
BRANCH   3   9
ATOM      8  N   UNL     1      34.888   7.216   8.632  0.00  0.00    +0.000 NA
ATOM      9  C   UNL     1      34.472   7.074   9.989  0.00  0.00    +0.000 C 
ATOM     10  O   UNL     1      33.254   7.267  10.225  0.00  0.00    +0.000 OA
BRANCH   8  11
ATOM     11  C   UNL     1      33.984   7.563   7.563  0.00  0.00    +0.000 C 
BRANCH  11  12
ATOM     12  C   UNL     1      33.687   6.386   6.661  0.00  0.00    +0.000 C 
BRANCH  12  14
ATOM     13  C   UNL     1      32.610   8.363   5.720  0.00  0.00    +0.000 C 
ATOM     14  C   UNL     1      33.039   6.932   5.404  0.00  0.00    +0.000 C 
ENDBRANCH  12  14
ENDBRANCH  11  12
ENDBRANCH   8  11
ENDBRANCH   3   9
ENDBRANCH   2   6
ENDBRANCH   1   2
BRANCH   1  15
ATOM     15  C   UNL     1      35.990   3.855  14.283  0.00  0.00    +0.000 C 
BRANCH  15  16
ATOM     16  C   UNL     1      35.736   2.603  14.994  0.00  0.00    +0.000 A 
ATOM     17  C   UNL     1      35.073   2.524  16.199  0.00  0.00    +0.000 A 
ATOM     18  C   UNL     1      34.889   1.309  16.812  0.00  0.00    +0.000 A 
ATOM     19  C   UNL     1      35.381   0.164  16.200  0.00  0.00    +0.000 A 
ATOM     20  C   UNL     1      36.046   0.210  14.997  0.00  0.00    +0.000 A 
ATOM     21  C   UNL     1      36.221   1.435  14.398  0.00  0.00    +0.000 A 
ENDBRANCH  15  16
ENDBRANCH   1  15
BRANCH   1  22
ATOM     22  C   UNL     1      38.153   4.572  14.881  0.00  0.00    +0.000 C 
BRANCH  22  23
ATOM     23  C   UNL     1      38.814   5.022  16.131  0.00  0.00    +0.000 A 
ATOM     24  C   UNL     1      38.282   4.676  17.344  0.00  0.00    +0.000 A 
ATOM     25  C   UNL     1      38.861   5.070  18.550  0.00  0.00    +0.000 A 
ATOM     26  C   UNL     1      40.002   5.827  18.530  0.00  0.00    +0.000 A 
ATOM     27  C   UNL     1      40.648   6.265  19.816  0.00  0.00    +0.000 C 
ATOM     28  C   UNL     1      40.549   6.184  17.316  0.00  0.00    +0.000 A 
ATOM     29  C   UNL     1      39.957   5.783  16.114  0.00  0.00    +0.000 A 
ENDBRANCH  22  23
ENDBRANCH   1  22
TORSDOF 10
ENDMDL
MODEL 10
REMARK VINA RESULT:      -6.2     23.260     26.433
REMARK  Name = 
REMARK  10 active torsions:
REMARK  status: ('A' for Active; 'I' for Inactive)
REMARK    1  A    between atoms: C_2  and  C_3
REMARK    2  A    between atoms: C_3  and  C_4
REMARK    3  A    between atoms: C_4  and  N_5
REMARK    4  A    between atoms: C_6  and  C_8
REMARK    5  A    between atoms: C_11  and  C_12
REMARK    6  A    between atoms: C_12  and  N_13
REMARK    7  A    between atoms: N_13  and  C_14
REMARK    8  A    between atoms: N_13  and  C_21
REMARK    9  A    between atoms: C_14  and  C_15
REMARK   10  A    between atoms: C_21  and  C_22
REMARK                            x       y       z     vdW  Elec       q    Type
REMARK                         _______ _______ _______ _____ _____    ______ ____
ROOT
ATOM      1  N   UNL     1      37.512   3.206  13.751  0.00  0.00    +0.000 NA
ENDROOT
BRANCH   1   2
ATOM      2  C   UNL     1      38.796   3.438  14.265  0.00  0.00    +0.000 C 
BRANCH   2   6
ATOM      3  C   UNL     1      39.438   5.455  17.179  0.00  0.00    +0.000 A 
ATOM      4  C   UNL     1      38.312   4.777  17.584  0.00  0.00    +0.000 A 
ATOM      5  C   UNL     1      37.913   3.935  16.569  0.00  0.00    +0.000 A 
ATOM      6  C   UNL     1      38.849   4.143  15.549  0.00  0.00    +0.000 A 
ATOM      7  O   UNL     1      39.719   5.046  15.965  0.00  0.00    +0.000 OA
BRANCH   3   9
ATOM      8  N   UNL     1      40.489   6.173  19.360  0.00  0.00    +0.000 NA
ATOM      9  C   UNL     1      40.134   6.430  18.003  0.00  0.00    +0.000 C 
ATOM     10  O   UNL     1      40.453   7.554  17.543  0.00  0.00    +0.000 OA
BRANCH   8  11
ATOM     11  C   UNL     1      41.180   7.130  20.189  0.00  0.00    +0.000 C 
BRANCH  11  12
ATOM     12  C   UNL     1      42.679   6.931  20.167  0.00  0.00    +0.000 C 
BRANCH  12  14
ATOM     13  C   UNL     1      43.754   6.570  22.326  0.00  0.00    +0.000 C 
ATOM     14  C   UNL     1      43.009   5.866  21.194  0.00  0.00    +0.000 C 
ENDBRANCH  12  14
ENDBRANCH  11  12
ENDBRANCH   8  11
ENDBRANCH   3   9
ENDBRANCH   2   6
ENDBRANCH   1   2
BRANCH   1  15
ATOM     15  C   UNL     1      37.106   4.043  12.706  0.00  0.00    +0.000 C 
BRANCH  15  16
ATOM     16  C   UNL     1      36.031   5.012  12.915  0.00  0.00    +0.000 A 
ATOM     17  C   UNL     1      35.262   5.073  14.056  0.00  0.00    +0.000 A 
ATOM     18  C   UNL     1      34.258   6.004  14.167  0.00  0.00    +0.000 A 
ATOM     19  C   UNL     1      34.031   6.880  13.115  0.00  0.00    +0.000 A 
ATOM     20  C   UNL     1      34.783   6.844  11.963  0.00  0.00    +0.000 A 
ATOM     21  C   UNL     1      35.783   5.906  11.869  0.00  0.00    +0.000 A 
ENDBRANCH  15  16
ENDBRANCH   1  15
BRANCH   1  22
ATOM     22  C   UNL     1      37.310   1.811  13.433  0.00  0.00    +0.000 C 
BRANCH  22  23
ATOM     23  C   UNL     1      36.604   1.097  14.526  0.00  0.00    +0.000 A 
ATOM     24  C   UNL     1      37.015  -0.155  14.896  0.00  0.00    +0.000 A 
ATOM     25  C   UNL     1      36.391  -0.871  15.917  0.00  0.00    +0.000 A 
ATOM     26  C   UNL     1      35.330  -0.312  16.577  0.00  0.00    +0.000 A 
ATOM     27  C   UNL     1      34.638  -1.061  17.682  0.00  0.00    +0.000 C 
ATOM     28  C   UNL     1      34.904   0.948  16.214  0.00  0.00    +0.000 A 
ATOM     29  C   UNL     1      35.539   1.656  15.188  0.00  0.00    +0.000 A 
ENDBRANCH  22  23
ENDBRANCH   1  22
TORSDOF 10
ENDMDL
