MODEL 1
REMARK VINA RESULT:      -7.0      0.000      0.000
REMARK  Name = 
REMARK  1 active torsions:
REMARK  status: ('A' for Active; 'I' for Inactive)
REMARK    1  A    between atoms: C_10  and  C_11
REMARK                            x       y       z     vdW  Elec       q    Type
REMARK                         _______ _______ _______ _____ _____    ______ ____
ROOT
ATOM      1  C   UNL     1      36.012  19.407  10.518  0.00  0.00    +0.000 C 
ATOM      2  C   UNL     1      34.823  19.541   9.654  0.00  0.00    +0.000 A 
ATOM      3  O   UNL     1      34.700  18.984   8.458  0.00  0.00    +0.000 OA
ATOM      4  C   UNL     1      33.522  19.293   7.945  0.00  0.00    +0.000 A 
ATOM      5  C   UNL     1      33.000  18.866   6.624  0.00  0.00    +0.000 C 
ATOM      6  C   UNL     1      32.852  20.084   8.840  0.00  0.00    +0.000 A 
ATOM      7  C   UNL     1      31.592  20.618   8.684  0.00  0.00    +0.000 A 
ATOM      8  O   UNL     1      31.035  20.377   7.593  0.00  0.00    +0.000 OA
ATOM      9  C   UNL     1      30.877  21.374   9.565  0.00  0.00    +0.000 A 
ATOM     10  C   UNL     1      31.089  21.711  10.892  0.00  0.00    +0.000 A 
ATOM     11  C   UNL     1      32.274  21.550  11.574  0.00  0.00    +0.000 A 
ATOM     12  C   UNL     1      33.438  20.973  11.115  0.00  0.00    +0.000 A 
ATOM     13  O   UNL     1      34.579  21.098  11.897  0.00  0.00    +0.000 OA
ATOM     14  C   UNL     1      33.682  20.253   9.954  0.00  0.00    +0.000 A 
ENDROOT
BRANCH  10  15
ATOM     15  C   UNL     1      29.955  22.288  11.632  0.00  0.00    +0.000 A 
ATOM     16  C   UNL     1      28.661  22.230  11.135  0.00  0.00    +0.000 A 
ATOM     17  C   UNL     1      27.581  22.756  11.796  0.00  0.00    +0.000 A 
ATOM     18  C   UNL     1      27.762  23.376  13.013  0.00  0.00    +0.000 A 
ATOM     19  O   UNL     1      26.664  23.901  13.667  0.00  0.00    +0.000 OA
ATOM     20  C   UNL     1      29.035  23.457  13.546  0.00  0.00    +0.000 A 
ATOM     21  C   UNL     1      30.111  22.914  12.851  0.00  0.00    +0.000 A 
ENDBRANCH  10  15
TORSDOF 1
ENDMDL
MODEL 2
REMARK VINA RESULT:      -7.0     13.640     18.078
REMARK  Name = 
REMARK  1 active torsions:
REMARK  status: ('A' for Active; 'I' for Inactive)
REMARK    1  A    between atoms: C_10  and  C_11
REMARK                            x       y       z     vdW  Elec       q    Type
REMARK                         _______ _______ _______ _____ _____    ______ ____
ROOT
ATOM      1  C   UNL     1      24.935  26.259  30.197  0.00  0.00    +0.000 C 
ATOM      2  C   UNL     1      25.633  25.014  29.819  0.00  0.00    +0.000 A 
ATOM      3  O   UNL     1      25.611  23.898  30.532  0.00  0.00    +0.000 OA
ATOM      4  C   UNL     1      26.330  22.971  29.923  0.00  0.00    +0.000 A 
ATOM      5  C   UNL     1      26.557  21.583  30.397  0.00  0.00    +0.000 C 
ATOM      6  C   UNL     1      26.841  23.504  28.770  0.00  0.00    +0.000 A 
ATOM      7  C   UNL     1      27.645  22.863  27.853  0.00  0.00    +0.000 A 
ATOM      8  O   UNL     1      27.958  21.689  28.137  0.00  0.00    +0.000 OA
ATOM      9  C   UNL     1      28.139  23.345  26.677  0.00  0.00    +0.000 A 
ATOM     10  C   UNL     1      27.894  24.511  25.969  0.00  0.00    +0.000 A 
ATOM     11  C   UNL     1      27.242  25.618  26.463  0.00  0.00    +0.000 A 
ATOM     12  C   UNL     1      26.655  25.769  27.700  0.00  0.00    +0.000 A 
ATOM     13  O   UNL     1      26.232  27.039  28.070  0.00  0.00    +0.000 OA
ATOM     14  C   UNL     1      26.397  24.829  28.687  0.00  0.00    +0.000 A 
ENDROOT
BRANCH  10  15
ATOM     15  C   UNL     1      28.368  24.567  24.577  0.00  0.00    +0.000 A 
ATOM     16  C   UNL     1      28.140  23.526  23.691  0.00  0.00    +0.000 A 
ATOM     17  C   UNL     1      28.567  23.543  22.388  0.00  0.00    +0.000 A 
ATOM     18  C   UNL     1      29.257  24.638  21.912  0.00  0.00    +0.000 A 
ATOM     19  O   UNL     1      29.680  24.641  20.596  0.00  0.00    +0.000 OA
ATOM     20  C   UNL     1      29.507  25.700  22.760  0.00  0.00    +0.000 A 
ATOM     21  C   UNL     1      29.061  25.651  24.077  0.00  0.00    +0.000 A 
ENDBRANCH  10  15
TORSDOF 1
ENDMDL
MODEL 3
REMARK VINA RESULT:      -6.9     34.134     34.898
REMARK  Name = 
REMARK  1 active torsions:
REMARK  status: ('A' for Active; 'I' for Inactive)
REMARK    1  A    between atoms: C_10  and  C_11
REMARK                            x       y       z     vdW  Elec       q    Type
REMARK                         _______ _______ _______ _____ _____    ______ ____
ROOT
ATOM      1  C   UNL     1      18.640 -10.426  28.189  0.00  0.00    +0.000 C 
ATOM      2  C   UNL     1      18.847  -9.096  27.582  0.00  0.00    +0.000 A 
ATOM      3  O   UNL     1      18.067  -8.047  27.795  0.00  0.00    +0.000 OA
ATOM      4  C   UNL     1      18.521  -7.012  27.110  0.00  0.00    +0.000 A 
ATOM      5  C   UNL     1      17.929  -5.651  27.078  0.00  0.00    +0.000 C 
ATOM      6  C   UNL     1      19.640  -7.402  26.424  0.00  0.00    +0.000 A 
ATOM      7  C   UNL     1      20.410  -6.618  25.593  0.00  0.00    +0.000 A 
ATOM      8  O   UNL     1      20.010  -5.446  25.433  0.00  0.00    +0.000 OA
ATOM      9  C   UNL     1      21.550  -6.957  24.926  0.00  0.00    +0.000 A 
ATOM     10  C   UNL     1      22.361  -8.080  24.973  0.00  0.00    +0.000 A 
ATOM     11  C   UNL     1      22.024  -9.278  25.560  0.00  0.00    +0.000 A 
ATOM     12  C   UNL     1      20.878  -9.581  26.262  0.00  0.00    +0.000 A 
ATOM     13  O   UNL     1      20.648 -10.910  26.593  0.00  0.00    +0.000 OA
ATOM     14  C   UNL     1      19.865  -8.751  26.720  0.00  0.00    +0.000 A 
ENDROOT
BRANCH  10  15
ATOM     15  C   UNL     1      23.688  -7.981  24.345  0.00  0.00    +0.000 A 
ATOM     16  C   UNL     1      24.456  -9.107  24.093  0.00  0.00    +0.000 A 
ATOM     17  C   UNL     1      25.696  -9.052  23.510  0.00  0.00    +0.000 A 
ATOM     18  C   UNL     1      26.226  -7.832  23.147  0.00  0.00    +0.000 A 
ATOM     19  O   UNL     1      27.476  -7.794  22.560  0.00  0.00    +0.000 OA
ATOM     20  C   UNL     1      25.495  -6.683  23.379  0.00  0.00    +0.000 A 
ATOM     21  C   UNL     1      24.239  -6.771  23.973  0.00  0.00    +0.000 A 
ENDBRANCH  10  15
TORSDOF 1
ENDMDL
MODEL 4
REMARK VINA RESULT:      -6.6     30.059     33.198
REMARK  Name = 
REMARK  1 active torsions:
REMARK  status: ('A' for Active; 'I' for Inactive)
REMARK    1  A    between atoms: C_10  and  C_11
REMARK                            x       y       z     vdW  Elec       q    Type
REMARK                         _______ _______ _______ _____ _____    ______ ____
ROOT
ATOM      1  C   UNL     1      16.192   8.712  42.063  0.00  0.00    +0.000 C 
ATOM      2  C   UNL     1      16.136   9.400  40.758  0.00  0.00    +0.000 A 
ATOM      3  O   UNL     1      15.041   9.935  40.240  0.00  0.00    +0.000 OA
ATOM      4  C   UNL     1      15.324  10.473  39.067  0.00  0.00    +0.000 A 
ATOM      5  C   UNL     1      14.372  11.170  38.167  0.00  0.00    +0.000 C 
ATOM      6  C   UNL     1      16.655  10.280  38.809  0.00  0.00    +0.000 A 
ATOM      7  C   UNL     1      17.345  10.692  37.690  0.00  0.00    +0.000 A 
ATOM      8  O   UNL     1      16.662  11.263  36.815  0.00  0.00    +0.000 OA
ATOM      9  C   UNL     1      18.673  10.555  37.416  0.00  0.00    +0.000 A 
ATOM     10  C   UNL     1      19.746  10.127  38.183  0.00  0.00    +0.000 A 
ATOM     11  C   UNL     1      19.648   9.467  39.387  0.00  0.00    +0.000 A 
ATOM     12  C   UNL     1      18.504   9.166  40.093  0.00  0.00    +0.000 A 
ATOM     13  O   UNL     1      18.617   8.313  41.183  0.00  0.00    +0.000 OA
ATOM     14  C   UNL     1      17.197   9.586  39.898  0.00  0.00    +0.000 A 
ENDROOT
BRANCH  10  15
ATOM     15  C   UNL     1      21.096  10.402  37.667  0.00  0.00    +0.000 A 
ATOM     16  C   UNL     1      21.608   9.718  36.574  0.00  0.00    +0.000 A 
ATOM     17  C   UNL     1      22.861   9.948  36.067  0.00  0.00    +0.000 A 
ATOM     18  C   UNL     1      23.670  10.899  36.652  0.00  0.00    +0.000 A 
ATOM     19  O   UNL     1      24.930  11.119  36.130  0.00  0.00    +0.000 OA
ATOM     20  C   UNL     1      23.201  11.604  37.744  0.00  0.00    +0.000 A 
ATOM     21  C   UNL     1      21.925  11.348  38.236  0.00  0.00    +0.000 A 
ENDBRANCH  10  15
TORSDOF 1
ENDMDL
MODEL 5
REMARK VINA RESULT:      -6.6     13.523     17.355
REMARK  Name = 
REMARK  1 active torsions:
REMARK  status: ('A' for Active; 'I' for Inactive)
REMARK    1  A    between atoms: C_10  and  C_11
REMARK                            x       y       z     vdW  Elec       q    Type
REMARK                         _______ _______ _______ _____ _____    ______ ____
ROOT
ATOM      1  C   UNL     1      31.269  22.284  30.652  0.00  0.00    +0.000 C 
ATOM      2  C   UNL     1      29.927  22.559  30.105  0.00  0.00    +0.000 A 
ATOM      3  O   UNL     1      28.826  22.657  30.836  0.00  0.00    +0.000 OA
ATOM      4  C   UNL     1      27.794  22.909  30.049  0.00  0.00    +0.000 A 
ATOM      5  C   UNL     1      26.385  23.088  30.478  0.00  0.00    +0.000 C 
ATOM      6  C   UNL     1      28.239  22.977  28.756  0.00  0.00    +0.000 A 
ATOM      7  C   UNL     1      27.477  23.222  27.635  0.00  0.00    +0.000 A 
ATOM      8  O   UNL     1      26.252  23.356  27.834  0.00  0.00    +0.000 OA
ATOM      9  C   UNL     1      27.887  23.337  26.340  0.00  0.00    +0.000 A 
ATOM     10  C   UNL     1      29.145  23.401  25.761  0.00  0.00    +0.000 A 
ATOM     11  C   UNL     1      30.327  23.088  26.393  0.00  0.00    +0.000 A 
ATOM     12  C   UNL     1      30.509  22.726  27.709  0.00  0.00    +0.000 A 
ATOM     13  O   UNL     1      31.758  22.253  28.088  0.00  0.00    +0.000 OA
ATOM     14  C   UNL     1      29.621  22.753  28.775  0.00  0.00    +0.000 A 
ENDROOT
BRANCH  10  15
ATOM     15  C   UNL     1      29.220  23.840  24.359  0.00  0.00    +0.000 A 
ATOM     16  C   UNL     1      29.963  24.950  23.986  0.00  0.00    +0.000 A 
ATOM     17  C   UNL     1      30.056  25.388  22.689  0.00  0.00    +0.000 A 
ATOM     18  C   UNL     1      29.390  24.710  21.691  0.00  0.00    +0.000 A 
ATOM     19  O   UNL     1      29.494  25.163  20.390  0.00  0.00    +0.000 OA
ATOM     20  C   UNL     1      28.638  23.598  22.017  0.00  0.00    +0.000 A 
ATOM     21  C   UNL     1      28.562  23.178  23.342  0.00  0.00    +0.000 A 
ENDBRANCH  10  15
TORSDOF 1
ENDMDL
MODEL 6
REMARK VINA RESULT:      -6.5     13.566     17.244
REMARK  Name = 
REMARK  1 active torsions:
REMARK  status: ('A' for Active; 'I' for Inactive)
REMARK    1  A    between atoms: C_10  and  C_11
REMARK                            x       y       z     vdW  Elec       q    Type
REMARK                         _______ _______ _______ _____ _____    ______ ____
ROOT
ATOM      1  C   UNL     1      25.142  24.949  24.889  0.00  0.00    +0.000 C 
ATOM      2  C   UNL     1      26.504  24.574  24.460  0.00  0.00    +0.000 A 
ATOM      3  O   UNL     1      26.989  24.783  23.245  0.00  0.00    +0.000 OA
ATOM      4  C   UNL     1      28.231  24.335  23.184  0.00  0.00    +0.000 A 
ATOM      5  C   UNL     1      29.124  24.380  21.999  0.00  0.00    +0.000 C 
ATOM      6  C   UNL     1      28.568  23.815  24.405  0.00  0.00    +0.000 A 
ATOM      7  C   UNL     1      29.774  23.249  24.754  0.00  0.00    +0.000 A 
ATOM      8  O   UNL     1      30.622  23.179  23.841  0.00  0.00    +0.000 OA
ATOM      9  C   UNL     1      30.160  22.758  25.966  0.00  0.00    +0.000 A 
ATOM     10  C   UNL     1      29.572  22.799  27.220  0.00  0.00    +0.000 A 
ATOM     11  C   UNL     1      28.265  23.149  27.474  0.00  0.00    +0.000 A 
ATOM     12  C   UNL     1      27.320  23.587  26.573  0.00  0.00    +0.000 A 
ATOM     13  O   UNL     1      26.004  23.690  27.007  0.00  0.00    +0.000 OA
ATOM     14  C   UNL     1      27.458  23.963  25.245  0.00  0.00    +0.000 A 
ENDROOT
BRANCH  10  15
ATOM     15  C   UNL     1      30.414  22.439  28.372  0.00  0.00    +0.000 A 
ATOM     16  C   UNL     1      31.658  21.851  28.205  0.00  0.00    +0.000 A 
ATOM     17  C   UNL     1      32.469  21.502  29.255  0.00  0.00    +0.000 A 
ATOM     18  C   UNL     1      32.051  21.737  30.547  0.00  0.00    +0.000 A 
ATOM     19  O   UNL     1      32.879  21.380  31.594  0.00  0.00    +0.000 OA
ATOM     20  C   UNL     1      30.817  22.321  30.761  0.00  0.00    +0.000 A 
ATOM     21  C   UNL     1      30.016  22.663  29.675  0.00  0.00    +0.000 A 
ENDBRANCH  10  15
TORSDOF 1
ENDMDL
MODEL 7
REMARK VINA RESULT:      -6.4     13.928     16.187
REMARK  Name = 
REMARK  1 active torsions:
REMARK  status: ('A' for Active; 'I' for Inactive)
REMARK    1  A    between atoms: C_10  and  C_11
REMARK                            x       y       z     vdW  Elec       q    Type
REMARK                         _______ _______ _______ _____ _____    ______ ____
ROOT
ATOM      1  C   UNL     1      27.897  22.310  28.300  0.00  0.00    +0.000 C 
ATOM      2  C   UNL     1      28.091  22.673  26.882  0.00  0.00    +0.000 A 
ATOM      3  O   UNL     1      27.127  22.687  25.975  0.00  0.00    +0.000 OA
ATOM      4  C   UNL     1      27.624  23.054  24.807  0.00  0.00    +0.000 A 
ATOM      5  C   UNL     1      26.872  23.194  23.535  0.00  0.00    +0.000 C 
ATOM      6  C   UNL     1      28.965  23.288  24.959  0.00  0.00    +0.000 A 
ATOM      7  C   UNL     1      29.847  23.689  23.980  0.00  0.00    +0.000 A 
ATOM      8  O   UNL     1      29.364  23.811  22.836  0.00  0.00    +0.000 OA
ATOM      9  C   UNL     1      31.176  23.970  24.100  0.00  0.00    +0.000 A 
ATOM     10  C   UNL     1      32.008  24.094  25.201  0.00  0.00    +0.000 A 
ATOM     11  C   UNL     1      31.701  23.684  26.479  0.00  0.00    +0.000 A 
ATOM     12  C   UNL     1      30.515  23.148  26.930  0.00  0.00    +0.000 A 
ATOM     13  O   UNL     1      30.488  22.612  28.212  0.00  0.00    +0.000 OA
ATOM     14  C   UNL     1      29.283  23.046  26.300  0.00  0.00    +0.000 A 
ENDROOT
BRANCH  10  15
ATOM     15  C   UNL     1      33.325  24.714  24.985  0.00  0.00    +0.000 A 
ATOM     16  C   UNL     1      33.556  26.048  25.283  0.00  0.00    +0.000 A 
ATOM     17  C   UNL     1      34.769  26.659  25.095  0.00  0.00    +0.000 A 
ATOM     18  C   UNL     1      35.825  25.934  24.587  0.00  0.00    +0.000 A 
ATOM     19  O   UNL     1      37.042  26.563  24.403  0.00  0.00    +0.000 OA
ATOM     20  C   UNL     1      35.641  24.600  24.276  0.00  0.00    +0.000 A 
ATOM     21  C   UNL     1      34.398  24.009  24.477  0.00  0.00    +0.000 A 
ENDBRANCH  10  15
TORSDOF 1
ENDMDL
MODEL 8
REMARK VINA RESULT:      -6.4     14.000     17.818
REMARK  Name = 
REMARK  1 active torsions:
REMARK  status: ('A' for Active; 'I' for Inactive)
REMARK    1  A    between atoms: C_10  and  C_11
REMARK                            x       y       z     vdW  Elec       q    Type
REMARK                         _______ _______ _______ _____ _____    ______ ____
ROOT
ATOM      1  C   UNL     1      31.934  22.500  29.998  0.00  0.00    +0.000 C 
ATOM      2  C   UNL     1      30.552  23.021  29.997  0.00  0.00    +0.000 A 
ATOM      3  O   UNL     1      29.962  23.577  31.044  0.00  0.00    +0.000 OA
ATOM      4  C   UNL     1      28.732  23.937  30.719  0.00  0.00    +0.000 A 
ATOM      5  C   UNL     1      27.743  24.593  31.610  0.00  0.00    +0.000 C 
ATOM      6  C   UNL     1      28.513  23.602  29.409  0.00  0.00    +0.000 A 
ATOM      7  C   UNL     1      27.357  23.810  28.689  0.00  0.00    +0.000 A 
ATOM      8  O   UNL     1      26.412  24.322  29.322  0.00  0.00    +0.000 OA
ATOM      9  C   UNL     1      27.115  23.528  27.377  0.00  0.00    +0.000 A 
ATOM     10  C   UNL     1      27.938  23.111  26.344  0.00  0.00    +0.000 A 
ATOM     11  C   UNL     1      29.215  22.618  26.495  0.00  0.00    +0.000 A 
ATOM     12  C   UNL     1      29.943  22.506  27.659  0.00  0.00    +0.000 A 
ATOM     13  O   UNL     1      31.133  21.791  27.617  0.00  0.00    +0.000 OA
ATOM     14  C   UNL     1      29.685  23.008  28.926  0.00  0.00    +0.000 A 
ENDROOT
BRANCH  10  15
ATOM     15  C   UNL     1      27.404  23.204  24.976  0.00  0.00    +0.000 A 
ATOM     16  C   UNL     1      26.047  23.087  24.718  0.00  0.00    +0.000 A 
ATOM     17  C   UNL     1      25.515  23.168  23.457  0.00  0.00    +0.000 A 
ATOM     18  C   UNL     1      26.346  23.377  22.378  0.00  0.00    +0.000 A 
ATOM     19  O   UNL     1      25.795  23.457  21.113  0.00  0.00    +0.000 OA
ATOM     20  C   UNL     1      27.706  23.500  22.588  0.00  0.00    +0.000 A 
ATOM     21  C   UNL     1      28.217  23.412  23.879  0.00  0.00    +0.000 A 
ENDBRANCH  10  15
TORSDOF 1
ENDMDL
MODEL 9
REMARK VINA RESULT:      -6.4     35.086     37.434
REMARK  Name = 
REMARK  1 active torsions:
REMARK  status: ('A' for Active; 'I' for Inactive)
REMARK    1  A    between atoms: C_10  and  C_11
REMARK                            x       y       z     vdW  Elec       q    Type
REMARK                         _______ _______ _______ _____ _____    ______ ____
ROOT
ATOM      1  C   UNL     1      15.265   6.916  44.013  0.00  0.00    +0.000 C 
ATOM      2  C   UNL     1      16.033   7.292  42.810  0.00  0.00    +0.000 A 
ATOM      3  O   UNL     1      15.843   8.406  42.119  0.00  0.00    +0.000 OA
ATOM      4  C   UNL     1      16.689   8.445  41.104  0.00  0.00    +0.000 A 
ATOM      5  C   UNL     1      16.797   9.526  40.092  0.00  0.00    +0.000 C 
ATOM      6  C   UNL     1      17.458   7.313  41.134  0.00  0.00    +0.000 A 
ATOM      7  C   UNL     1      18.458   6.974  40.248  0.00  0.00    +0.000 A 
ATOM      8  O   UNL     1      18.641   7.774  39.309  0.00  0.00    +0.000 OA
ATOM      9  C   UNL     1      19.270   5.879  40.268  0.00  0.00    +0.000 A 
ATOM     10  C   UNL     1      19.467   4.878  41.206  0.00  0.00    +0.000 A 
ATOM     11  C   UNL     1      18.644   4.623  42.280  0.00  0.00    +0.000 A 
ATOM     12  C   UNL     1      17.529   5.330  42.674  0.00  0.00    +0.000 A 
ATOM     13  O   UNL     1      16.726   4.781  43.665  0.00  0.00    +0.000 OA
ATOM     14  C   UNL     1      17.046   6.555  42.236  0.00  0.00    +0.000 A 
ENDROOT
BRANCH  10  15
ATOM     15  C   UNL     1      20.651   4.020  41.040  0.00  0.00    +0.000 A 
ATOM     16  C   UNL     1      21.927   4.555  40.951  0.00  0.00    +0.000 A 
ATOM     17  C   UNL     1      23.052   3.787  40.796  0.00  0.00    +0.000 A 
ATOM     18  C   UNL     1      22.936   2.416  40.723  0.00  0.00    +0.000 A 
ATOM     19  O   UNL     1      24.079   1.655  40.567  0.00  0.00    +0.000 OA
ATOM     20  C   UNL     1      21.683   1.839  40.806  0.00  0.00    +0.000 A 
ATOM     21  C   UNL     1      20.560   2.645  40.963  0.00  0.00    +0.000 A 
ENDBRANCH  10  15
TORSDOF 1
ENDMDL
MODEL 10
REMARK VINA RESULT:      -6.4     16.100     19.342
REMARK  Name = 
REMARK  1 active torsions:
REMARK  status: ('A' for Active; 'I' for Inactive)
REMARK    1  A    between atoms: C_10  and  C_11
REMARK                            x       y       z     vdW  Elec       q    Type
REMARK                         _______ _______ _______ _____ _____    ______ ____
ROOT
ATOM      1  C   UNL     1      30.079  22.598  33.765  0.00  0.00    +0.000 C 
ATOM      2  C   UNL     1      31.083  22.195  32.761  0.00  0.00    +0.000 A 
ATOM      3  O   UNL     1      32.233  21.603  33.049  0.00  0.00    +0.000 OA
ATOM      4  C   UNL     1      32.903  21.373  31.933  0.00  0.00    +0.000 A 
ATOM      5  C   UNL     1      34.235  20.728  31.826  0.00  0.00    +0.000 C 
ATOM      6  C   UNL     1      32.162  21.834  30.878  0.00  0.00    +0.000 A 
ATOM      7  C   UNL     1      32.508  21.783  29.545  0.00  0.00    +0.000 A 
ATOM      8  O   UNL     1      33.631  21.298  29.298  0.00  0.00    +0.000 OA
ATOM      9  C   UNL     1      31.783  22.193  28.466  0.00  0.00    +0.000 A 
ATOM     10  C   UNL     1      30.474  22.626  28.331  0.00  0.00    +0.000 A 
ATOM     11  C   UNL     1      29.649  22.998  29.368  0.00  0.00    +0.000 A 
ATOM     12  C   UNL     1      29.919  22.952  30.718  0.00  0.00    +0.000 A 
ATOM     13  O   UNL     1      29.024  23.568  31.583  0.00  0.00    +0.000 OA
ATOM     14  C   UNL     1      30.978  22.369  31.398  0.00  0.00    +0.000 A 
ENDROOT
BRANCH  10  15
ATOM     15  C   UNL     1      29.922  22.693  26.968  0.00  0.00    +0.000 A 
ATOM     16  C   UNL     1      30.734  22.570  25.851  0.00  0.00    +0.000 A 
ATOM     17  C   UNL     1      30.256  22.627  24.567  0.00  0.00    +0.000 A 
ATOM     18  C   UNL     1      28.907  22.813  24.350  0.00  0.00    +0.000 A 
ATOM     19  O   UNL     1      28.440  22.868  23.051  0.00  0.00    +0.000 OA
ATOM     20  C   UNL     1      28.061  22.941  25.434  0.00  0.00    +0.000 A 
ATOM     21  C   UNL     1      28.577  22.879  26.725  0.00  0.00    +0.000 A 
ENDBRANCH  10  15
TORSDOF 1
ENDMDL
