MODEL 1
REMARK VINA RESULT:      -6.2      0.000      0.000
REMARK  Name = 
REMARK  3 active torsions:
REMARK  status: ('A' for Active; 'I' for Inactive)
REMARK    1  A    between atoms: C_2  and  C_3
REMARK    2  A    between atoms: C_7  and  C_8
REMARK    3  A    between atoms: C_10  and  N_11
REMARK                            x       y       z     vdW  Elec       q    Type
REMARK                         _______ _______ _______ _____ _____    ______ ____
ROOT
ATOM      1  N   UNL     1      18.403  10.285  37.245  0.00  0.00    +0.000 NA
ATOM      2  C   UNL     1      19.457  11.139  37.666  0.00  0.00    +0.000 A 
ATOM      3  N   UNL     1      19.243  12.307  38.304  0.00  0.00    +0.000 NA
ATOM      4  C   UNL     1      20.291  13.092  38.696  0.00  0.00    +0.000 A 
ATOM      5  N   UNL     1      21.564  12.702  38.446  0.00  0.00    +0.000 NA
ATOM      6  C   UNL     1      21.841  11.547  37.813  0.00  0.00    +0.000 A 
ATOM      7  C   UNL     1      20.762  10.766  37.424  0.00  0.00    +0.000 A 
ATOM      8  C   UNL     1      21.325   9.658  36.807  0.00  0.00    +0.000 A 
ATOM      9  N   UNL     1      22.680   9.810  36.848  0.00  0.00    +0.000 NA
ATOM     10  N   UNL     1      22.988  10.943  37.452  0.00  0.00    +0.000 N 
ATOM     11  C   UNL     1      24.351  11.391  37.652  0.00  0.00    +0.000 C 
ENDROOT
BRANCH   1  17
ATOM     12  C   UNL     1      16.384  11.268  36.415  0.00  0.00    +0.000 A 
ATOM     13  C   UNL     1      15.073  11.650  36.525  0.00  0.00    +0.000 A 
ATOM     14  C   UNL     1      14.409  11.383  37.713  0.00  0.00    +0.000 A 
ATOM     15  C   UNL     1      15.065  10.752  38.742  0.00  0.00    +0.000 A 
ATOM     16  C   UNL     1      16.373  10.369  38.640  0.00  0.00    +0.000 A 
ATOM     17  C   UNL     1      17.045  10.629  37.466  0.00  0.00    +0.000 A 
BRANCH  12  19
ATOM     18  C   UNL     1      16.718  10.562  34.061  0.00  0.00    +0.000 C 
ATOM     19  C   UNL     1      17.103  11.545  35.140  0.00  0.00    +0.000 C 
ENDBRANCH  12  19
BRANCH  16  20
ATOM     20  C   UNL     1      17.110   9.687  39.732  0.00  0.00    +0.000 C 
ATOM     21  C   UNL     1      16.181   9.339  40.864  0.00  0.00    +0.000 C 
ENDBRANCH  16  20
ENDBRANCH   1  17
TORSDOF 3
ENDMDL
MODEL 2
REMARK VINA RESULT:      -6.2      2.254      5.972
REMARK  Name = 
REMARK  3 active torsions:
REMARK  status: ('A' for Active; 'I' for Inactive)
REMARK    1  A    between atoms: C_2  and  C_3
REMARK    2  A    between atoms: C_7  and  C_8
REMARK    3  A    between atoms: C_10  and  N_11
REMARK                            x       y       z     vdW  Elec       q    Type
REMARK                         _______ _______ _______ _____ _____    ______ ____
ROOT
ATOM      1  N   UNL     1      18.012  11.010  38.290  0.00  0.00    +0.000 NA
ATOM      2  C   UNL     1      17.696  10.515  36.997  0.00  0.00    +0.000 A 
ATOM      3  N   UNL     1      18.155   9.337  36.530  0.00  0.00    +0.000 NA
ATOM      4  C   UNL     1      17.818   8.900  35.279  0.00  0.00    +0.000 A 
ATOM      5  N   UNL     1      17.012   9.650  34.491  0.00  0.00    +0.000 NA
ATOM      6  C   UNL     1      16.521  10.835  34.901  0.00  0.00    +0.000 A 
ATOM      7  C   UNL     1      16.877  11.259  36.173  0.00  0.00    +0.000 A 
ATOM      8  C   UNL     1      16.245  12.484  36.333  0.00  0.00    +0.000 A 
ATOM      9  N   UNL     1      15.554  12.741  35.185  0.00  0.00    +0.000 NA
ATOM     10  N   UNL     1      15.719  11.751  34.328  0.00  0.00    +0.000 N 
ATOM     11  C   UNL     1      15.112  11.729  33.013  0.00  0.00    +0.000 C 
ENDROOT
BRANCH   1  17
ATOM     12  C   UNL     1      18.221   9.512  40.146  0.00  0.00    +0.000 A 
ATOM     13  C   UNL     1      18.941   8.777  41.050  0.00  0.00    +0.000 A 
ATOM     14  C   UNL     1      20.324   8.814  40.974  0.00  0.00    +0.000 A 
ATOM     15  C   UNL     1      20.941   9.574  40.010  0.00  0.00    +0.000 A 
ATOM     16  C   UNL     1      20.230  10.310  39.104  0.00  0.00    +0.000 A 
ATOM     17  C   UNL     1      18.854  10.284  39.169  0.00  0.00    +0.000 A 
BRANCH  12  19
ATOM     18  C   UNL     1      16.247   9.422  41.645  0.00  0.00    +0.000 C 
ATOM     19  C   UNL     1      16.734   9.473  40.217  0.00  0.00    +0.000 C 
ENDBRANCH  12  19
BRANCH  16  20
ATOM     20  C   UNL     1      20.865  11.142  38.051  0.00  0.00    +0.000 C 
ATOM     21  C   UNL     1      21.630  10.280  37.083  0.00  0.00    +0.000 C 
ENDBRANCH  16  20
ENDBRANCH   1  17
TORSDOF 3
ENDMDL
MODEL 3
REMARK VINA RESULT:      -6.1     17.430     19.178
REMARK  Name = 
REMARK  3 active torsions:
REMARK  status: ('A' for Active; 'I' for Inactive)
REMARK    1  A    between atoms: C_2  and  C_3
REMARK    2  A    between atoms: C_7  and  C_8
REMARK    3  A    between atoms: C_10  and  N_11
REMARK                            x       y       z     vdW  Elec       q    Type
REMARK                         _______ _______ _______ _____ _____    ______ ____
ROOT
ATOM      1  N   UNL     1      25.519  24.174  27.129  0.00  0.00    +0.000 NA
ATOM      2  C   UNL     1      26.599  24.553  26.286  0.00  0.00    +0.000 A 
ATOM      3  N   UNL     1      27.587  25.376  26.687  0.00  0.00    +0.000 NA
ATOM      4  C   UNL     1      28.609  25.706  25.841  0.00  0.00    +0.000 A 
ATOM      5  N   UNL     1      28.639  25.205  24.583  0.00  0.00    +0.000 NA
ATOM      6  C   UNL     1      27.681  24.378  24.125  0.00  0.00    +0.000 A 
ATOM      7  C   UNL     1      26.654  24.057  25.000  0.00  0.00    +0.000 A 
ATOM      8  C   UNL     1      25.823  23.209  24.283  0.00  0.00    +0.000 A 
ATOM      9  N   UNL     1      26.367  23.056  23.041  0.00  0.00    +0.000 NA
ATOM     10  N   UNL     1      27.481  23.757  22.948  0.00  0.00    +0.000 N 
ATOM     11  C   UNL     1      28.294  23.802  21.749  0.00  0.00    +0.000 C 
ENDROOT
BRANCH   1  17
ATOM     12  C   UNL     1      24.661  25.823  28.638  0.00  0.00    +0.000 A 
ATOM     13  C   UNL     1      24.502  26.383  29.878  0.00  0.00    +0.000 A 
ATOM     14  C   UNL     1      25.113  25.767  30.959  0.00  0.00    +0.000 A 
ATOM     15  C   UNL     1      25.854  24.625  30.774  0.00  0.00    +0.000 A 
ATOM     16  C   UNL     1      26.017  24.061  29.540  0.00  0.00    +0.000 A 
ATOM     17  C   UNL     1      25.416  24.663  28.456  0.00  0.00    +0.000 A 
BRANCH  12  19
ATOM     18  C   UNL     1      22.520  26.196  27.443  0.00  0.00    +0.000 C 
ATOM     19  C   UNL     1      24.003  26.475  27.471  0.00  0.00    +0.000 C 
ENDBRANCH  12  19
BRANCH  16  20
ATOM     20  C   UNL     1      26.811  22.829  29.305  0.00  0.00    +0.000 C 
ATOM     21  C   UNL     1      26.463  21.771  30.319  0.00  0.00    +0.000 C 
ENDBRANCH  16  20
ENDBRANCH   1  17
TORSDOF 3
ENDMDL
MODEL 4
REMARK VINA RESULT:      -6.0      2.268      5.544
REMARK  Name = 
REMARK  3 active torsions:
REMARK  status: ('A' for Active; 'I' for Inactive)
REMARK    1  A    between atoms: C_2  and  C_3
REMARK    2  A    between atoms: C_7  and  C_8
REMARK    3  A    between atoms: C_10  and  N_11
REMARK                            x       y       z     vdW  Elec       q    Type
REMARK                         _______ _______ _______ _____ _____    ______ ____
ROOT
ATOM      1  N   UNL     1      17.887  11.001  38.345  0.00  0.00    +0.000 NA
ATOM      2  C   UNL     1      17.624  10.487  37.047  0.00  0.00    +0.000 A 
ATOM      3  N   UNL     1      18.111   9.307  36.614  0.00  0.00    +0.000 NA
ATOM      4  C   UNL     1      17.824   8.850  35.357  0.00  0.00    +0.000 A 
ATOM      5  N   UNL     1      17.044   9.584  34.529  0.00  0.00    +0.000 NA
ATOM      6  C   UNL     1      16.528  10.770  34.904  0.00  0.00    +0.000 A 
ATOM      7  C   UNL     1      16.832  11.213  36.183  0.00  0.00    +0.000 A 
ATOM      8  C   UNL     1      16.186  12.435  36.302  0.00  0.00    +0.000 A 
ATOM      9  N   UNL     1      15.537  12.672  35.126  0.00  0.00    +0.000 NA
ATOM     10  N   UNL     1      15.742  11.672  34.289  0.00  0.00    +0.000 N 
ATOM     11  C   UNL     1      15.186  11.628  32.952  0.00  0.00    +0.000 C 
ENDROOT
BRANCH   1  17
ATOM     12  C   UNL     1      20.075  10.531  39.195  0.00  0.00    +0.000 A 
ATOM     13  C   UNL     1      20.952   9.895  40.034  0.00  0.00    +0.000 A 
ATOM     14  C   UNL     1      20.441   9.003  40.963  0.00  0.00    +0.000 A 
ATOM     15  C   UNL     1      19.088   8.774  41.028  0.00  0.00    +0.000 A 
ATOM     16  C   UNL     1      18.207   9.405  40.195  0.00  0.00    +0.000 A 
ATOM     17  C   UNL     1      18.701  10.293  39.265  0.00  0.00    +0.000 A 
BRANCH  12  19
ATOM     18  C   UNL     1      21.912  11.008  37.598  0.00  0.00    +0.000 C 
ATOM     19  C   UNL     1      20.615  11.496  38.197  0.00  0.00    +0.000 C 
ENDBRANCH  12  19
BRANCH  16  20
ATOM     20  C   UNL     1      16.741   9.180  40.239  0.00  0.00    +0.000 C 
ATOM     21  C   UNL     1      16.201   9.458  41.616  0.00  0.00    +0.000 C 
ENDBRANCH  16  20
ENDBRANCH   1  17
TORSDOF 3
ENDMDL
MODEL 5
REMARK VINA RESULT:      -6.0     17.068     19.563
REMARK  Name = 
REMARK  3 active torsions:
REMARK  status: ('A' for Active; 'I' for Inactive)
REMARK    1  A    between atoms: C_2  and  C_3
REMARK    2  A    between atoms: C_7  and  C_8
REMARK    3  A    between atoms: C_10  and  N_11
REMARK                            x       y       z     vdW  Elec       q    Type
REMARK                         _______ _______ _______ _____ _____    ______ ____
ROOT
ATOM      1  N   UNL     1      27.346  23.032  26.860  0.00  0.00    +0.000 NA
ATOM      2  C   UNL     1      27.457  24.148  27.731  0.00  0.00    +0.000 A 
ATOM      3  N   UNL     1      28.013  25.318  27.356  0.00  0.00    +0.000 NA
ATOM      4  C   UNL     1      28.091  26.367  28.229  0.00  0.00    +0.000 A 
ATOM      5  N   UNL     1      27.607  26.242  29.488  0.00  0.00    +0.000 NA
ATOM      6  C   UNL     1      27.040  25.100  29.921  0.00  0.00    +0.000 A 
ATOM      7  C   UNL     1      26.972  24.048  29.018  0.00  0.00    +0.000 A 
ATOM      8  C   UNL     1      26.355  23.019  29.713  0.00  0.00    +0.000 A 
ATOM      9  N   UNL     1      26.084  23.477  30.969  0.00  0.00    +0.000 NA
ATOM     10  N   UNL     1      26.494  24.725  31.092  0.00  0.00    +0.000 N 
ATOM     11  C   UNL     1      26.349  25.493  32.312  0.00  0.00    +0.000 C 
ENDROOT
BRANCH   1  17
ATOM     12  C   UNL     1      29.168  22.715  25.340  0.00  0.00    +0.000 A 
ATOM     13  C   UNL     1      29.743  22.736  24.097  0.00  0.00    +0.000 A 
ATOM     14  C   UNL     1      28.966  23.136  23.021  0.00  0.00    +0.000 A 
ATOM     15  C   UNL     1      27.655  23.498  23.215  0.00  0.00    +0.000 A 
ATOM     16  C   UNL     1      27.074  23.479  24.452  0.00  0.00    +0.000 A 
ATOM     17  C   UNL     1      27.835  23.085  25.530  0.00  0.00    +0.000 A 
BRANCH  12  19
ATOM     18  C   UNL     1      31.181  23.190  26.709  0.00  0.00    +0.000 C 
ATOM     19  C   UNL     1      29.994  22.281  26.501  0.00  0.00    +0.000 C 
ENDBRANCH  12  19
BRANCH  16  20
ATOM     20  C   UNL     1      25.662  23.864  24.695  0.00  0.00    +0.000 C 
ATOM     21  C   UNL     1      25.520  25.361  24.746  0.00  0.00    +0.000 C 
ENDBRANCH  16  20
ENDBRANCH   1  17
TORSDOF 3
ENDMDL
MODEL 6
REMARK VINA RESULT:      -6.0     17.454     19.307
REMARK  Name = 
REMARK  3 active torsions:
REMARK  status: ('A' for Active; 'I' for Inactive)
REMARK    1  A    between atoms: C_2  and  C_3
REMARK    2  A    between atoms: C_7  and  C_8
REMARK    3  A    between atoms: C_10  and  N_11
REMARK                            x       y       z     vdW  Elec       q    Type
REMARK                         _______ _______ _______ _____ _____    ______ ____
ROOT
ATOM      1  N   UNL     1      25.468  24.270  27.177  0.00  0.00    +0.000 NA
ATOM      2  C   UNL     1      26.512  24.685  26.308  0.00  0.00    +0.000 A 
ATOM      3  N   UNL     1      27.433  25.605  26.656  0.00  0.00    +0.000 NA
ATOM      4  C   UNL     1      28.424  25.967  25.786  0.00  0.00    +0.000 A 
ATOM      5  N   UNL     1      28.491  25.401  24.558  0.00  0.00    +0.000 NA
ATOM      6  C   UNL     1      27.600  24.477  24.152  0.00  0.00    +0.000 A 
ATOM      7  C   UNL     1      26.603  24.125  25.051  0.00  0.00    +0.000 A 
ATOM      8  C   UNL     1      25.841  23.175  24.387  0.00  0.00    +0.000 A 
ATOM      9  N   UNL     1      26.392  22.996  23.152  0.00  0.00    +0.000 NA
ATOM     10  N   UNL     1      27.448  23.777  23.013  0.00  0.00    +0.000 N 
ATOM     11  C   UNL     1      28.251  23.819  21.808  0.00  0.00    +0.000 C 
ENDROOT
BRANCH   1  17
ATOM     12  C   UNL     1      25.974  24.147  29.514  0.00  0.00    +0.000 A 
ATOM     13  C   UNL     1      25.901  24.591  30.808  0.00  0.00    +0.000 A 
ATOM     14  C   UNL     1      25.167  25.738  31.067  0.00  0.00    +0.000 A 
ATOM     15  C   UNL     1      24.536  26.399  30.041  0.00  0.00    +0.000 A 
ATOM     16  C   UNL     1      24.605  25.962  28.748  0.00  0.00    +0.000 A 
ATOM     17  C   UNL     1      25.330  24.823  28.476  0.00  0.00    +0.000 A 
BRANCH  12  19
ATOM     18  C   UNL     1      26.518  21.843  30.255  0.00  0.00    +0.000 C 
ATOM     19  C   UNL     1      26.766  22.919  29.225  0.00  0.00    +0.000 C 
ENDBRANCH  12  19
BRANCH  16  20
ATOM     20  C   UNL     1      23.935  26.652  27.617  0.00  0.00    +0.000 C 
ATOM     21  C   UNL     1      22.469  26.314  27.582  0.00  0.00    +0.000 C 
ENDBRANCH  16  20
ENDBRANCH   1  17
TORSDOF 3
ENDMDL
MODEL 7
REMARK VINA RESULT:      -6.0     17.029     19.483
REMARK  Name = 
REMARK  3 active torsions:
REMARK  status: ('A' for Active; 'I' for Inactive)
REMARK    1  A    between atoms: C_2  and  C_3
REMARK    2  A    between atoms: C_7  and  C_8
REMARK    3  A    between atoms: C_10  and  N_11
REMARK                            x       y       z     vdW  Elec       q    Type
REMARK                         _______ _______ _______ _____ _____    ______ ____
ROOT
ATOM      1  N   UNL     1      27.461  23.016  26.989  0.00  0.00    +0.000 NA
ATOM      2  C   UNL     1      27.563  24.148  27.841  0.00  0.00    +0.000 A 
ATOM      3  N   UNL     1      28.172  25.292  27.470  0.00  0.00    +0.000 NA
ATOM      4  C   UNL     1      28.238  26.358  28.324  0.00  0.00    +0.000 A 
ATOM      5  N   UNL     1      27.688  26.275  29.559  0.00  0.00    +0.000 NA
ATOM      6  C   UNL     1      27.066  25.161  29.987  0.00  0.00    +0.000 A 
ATOM      7  C   UNL     1      27.011  24.091  29.104  0.00  0.00    +0.000 A 
ATOM      8  C   UNL     1      26.330  23.096  29.789  0.00  0.00    +0.000 A 
ATOM      9  N   UNL     1      26.010  23.590  31.019  0.00  0.00    +0.000 NA
ATOM     10  N   UNL     1      26.451  24.828  31.136  0.00  0.00    +0.000 N 
ATOM     11  C   UNL     1      26.269  25.627  32.331  0.00  0.00    +0.000 C 
ENDROOT
BRANCH   1  17
ATOM     12  C   UNL     1      27.165  23.398  24.645  0.00  0.00    +0.000 A 
ATOM     13  C   UNL     1      27.599  23.435  23.346  0.00  0.00    +0.000 A 
ATOM     14  C   UNL     1      28.916  23.091  23.084  0.00  0.00    +0.000 A 
ATOM     15  C   UNL     1      29.751  22.725  24.113  0.00  0.00    +0.000 A 
ATOM     16  C   UNL     1      29.325  22.686  25.411  0.00  0.00    +0.000 A 
ATOM     17  C   UNL     1      28.018  23.025  25.685  0.00  0.00    +0.000 A 
BRANCH  12  19
ATOM     18  C   UNL     1      25.540  25.263  24.829  0.00  0.00    +0.000 C 
ATOM     19  C   UNL     1      25.753  23.772  24.935  0.00  0.00    +0.000 C 
ENDBRANCH  12  19
BRANCH  16  20
ATOM     20  C   UNL     1      30.200  22.296  26.544  0.00  0.00    +0.000 C 
ATOM     21  C   UNL     1      31.297  23.307  26.742  0.00  0.00    +0.000 C 
ENDBRANCH  16  20
ENDBRANCH   1  17
TORSDOF 3
ENDMDL
MODEL 8
REMARK VINA RESULT:      -5.9      1.192      1.809
REMARK  Name = 
REMARK  3 active torsions:
REMARK  status: ('A' for Active; 'I' for Inactive)
REMARK    1  A    between atoms: C_2  and  C_3
REMARK    2  A    between atoms: C_7  and  C_8
REMARK    3  A    between atoms: C_10  and  N_11
REMARK                            x       y       z     vdW  Elec       q    Type
REMARK                         _______ _______ _______ _____ _____    ______ ____
ROOT
ATOM      1  N   UNL     1      19.003   9.748  37.993  0.00  0.00    +0.000 NA
ATOM      2  C   UNL     1      20.053  10.665  38.268  0.00  0.00    +0.000 A 
ATOM      3  N   UNL     1      19.953  11.637  39.196  0.00  0.00    +0.000 NA
ATOM      4  C   UNL     1      20.995  12.491  39.430  0.00  0.00    +0.000 A 
ATOM      5  N   UNL     1      22.145  12.369  38.726  0.00  0.00    +0.000 NA
ATOM      6  C   UNL     1      22.306  11.419  37.787  0.00  0.00    +0.000 A 
ATOM      7  C   UNL     1      21.236  10.563  37.566  0.00  0.00    +0.000 A 
ATOM      8  C   UNL     1      21.666   9.701  36.567  0.00  0.00    +0.000 A 
ATOM      9  N   UNL     1      22.939  10.061  36.236  0.00  0.00    +0.000 NA
ATOM     10  N   UNL     1      23.322  11.090  36.968  0.00  0.00    +0.000 N 
ATOM     11  C   UNL     1      24.627  11.707  36.850  0.00  0.00    +0.000 C 
ENDROOT
BRANCH   1  17
ATOM     12  C   UNL     1      16.749  10.549  38.071  0.00  0.00    +0.000 A 
ATOM     13  C   UNL     1      15.517  10.685  38.655  0.00  0.00    +0.000 A 
ATOM     14  C   UNL     1      15.301  10.074  39.880  0.00  0.00    +0.000 A 
ATOM     15  C   UNL     1      16.307   9.355  40.479  0.00  0.00    +0.000 A 
ATOM     16  C   UNL     1      17.538   9.214  39.902  0.00  0.00    +0.000 A 
ATOM     17  C   UNL     1      17.767   9.817  38.684  0.00  0.00    +0.000 A 
BRANCH  12  19
ATOM     18  C   UNL     1      16.873  12.700  36.841  0.00  0.00    +0.000 C 
ATOM     19  C   UNL     1      16.987  11.197  36.751  0.00  0.00    +0.000 C 
ENDBRANCH  12  19
BRANCH  16  20
ATOM     20  C   UNL     1      18.646   8.445  40.521  0.00  0.00    +0.000 C 
ATOM     21  C   UNL     1      18.471   6.970  40.276  0.00  0.00    +0.000 C 
ENDBRANCH  16  20
ENDBRANCH   1  17
TORSDOF 3
ENDMDL
MODEL 9
REMARK VINA RESULT:      -5.9     20.369     22.599
REMARK  Name = 
REMARK  3 active torsions:
REMARK  status: ('A' for Active; 'I' for Inactive)
REMARK    1  A    between atoms: C_2  and  C_3
REMARK    2  A    between atoms: C_7  and  C_8
REMARK    3  A    between atoms: C_10  and  N_11
REMARK                            x       y       z     vdW  Elec       q    Type
REMARK                         _______ _______ _______ _____ _____    ______ ____
ROOT
ATOM      1  N   UNL     1      29.170  23.831  23.375  0.00  0.00    +0.000 NA
ATOM      2  C   UNL     1      29.199  25.245  23.241  0.00  0.00    +0.000 A 
ATOM      3  N   UNL     1      29.094  26.083  24.292  0.00  0.00    +0.000 NA
ATOM      4  C   UNL     1      29.134  27.438  24.114  0.00  0.00    +0.000 A 
ATOM      5  N   UNL     1      29.281  27.956  22.871  0.00  0.00    +0.000 NA
ATOM      6  C   UNL     1      29.391  27.171  21.783  0.00  0.00    +0.000 A 
ATOM      7  C   UNL     1      29.347  25.800  21.987  0.00  0.00    +0.000 A 
ATOM      8  C   UNL     1      29.479  25.244  20.723  0.00  0.00    +0.000 A 
ATOM      9  N   UNL     1      29.595  26.272  19.834  0.00  0.00    +0.000 NA
ATOM     10  N   UNL     1      29.542  27.427  20.470  0.00  0.00    +0.000 N 
ATOM     11  C   UNL     1      29.636  28.708  19.801  0.00  0.00    +0.000 C 
ENDROOT
BRANCH   1  17
ATOM     12  C   UNL     1      27.702  23.027  25.087  0.00  0.00    +0.000 A 
ATOM     13  C   UNL     1      27.438  22.448  26.300  0.00  0.00    +0.000 A 
ATOM     14  C   UNL     1      28.509  22.047  27.083  0.00  0.00    +0.000 A 
ATOM     15  C   UNL     1      29.795  22.234  26.640  0.00  0.00    +0.000 A 
ATOM     16  C   UNL     1      30.067  22.812  25.431  0.00  0.00    +0.000 A 
ATOM     17  C   UNL     1      29.012  23.216  24.642  0.00  0.00    +0.000 A 
BRANCH  12  19
ATOM     18  C   UNL     1      25.772  24.572  24.881  0.00  0.00    +0.000 C 
ATOM     19  C   UNL     1      26.557  23.455  24.236  0.00  0.00    +0.000 C 
ENDBRANCH  12  19
BRANCH  16  20
ATOM     20  C   UNL     1      31.445  23.028  24.923  0.00  0.00    +0.000 C 
ATOM     21  C   UNL     1      32.090  24.197  25.617  0.00  0.00    +0.000 C 
ENDBRANCH  16  20
ENDBRANCH   1  17
TORSDOF 3
ENDMDL
MODEL 10
REMARK VINA RESULT:      -5.8      2.261      5.259
REMARK  Name = 
REMARK  3 active torsions:
REMARK  status: ('A' for Active; 'I' for Inactive)
REMARK    1  A    between atoms: C_2  and  C_3
REMARK    2  A    between atoms: C_7  and  C_8
REMARK    3  A    between atoms: C_10  and  N_11
REMARK                            x       y       z     vdW  Elec       q    Type
REMARK                         _______ _______ _______ _____ _____    ______ ____
ROOT
ATOM      1  N   UNL     1      18.829   9.821  37.325  0.00  0.00    +0.000 NA
ATOM      2  C   UNL     1      17.960  10.831  36.833  0.00  0.00    +0.000 A 
ATOM      3  N   UNL     1      17.685  11.958  37.519  0.00  0.00    +0.000 NA
ATOM      4  C   UNL     1      16.846  12.906  37.000  0.00  0.00    +0.000 A 
ATOM      5  N   UNL     1      16.280  12.720  35.784  0.00  0.00    +0.000 NA
ATOM      6  C   UNL     1      16.517  11.616  35.051  0.00  0.00    +0.000 A 
ATOM      7  C   UNL     1      17.370  10.668  35.597  0.00  0.00    +0.000 A 
ATOM      8  C   UNL     1      17.434   9.656  34.651  0.00  0.00    +0.000 A 
ATOM      9  N   UNL     1      16.641  10.023  33.603  0.00  0.00    +0.000 NA
ATOM     10  N   UNL     1      16.092  11.199  33.844  0.00  0.00    +0.000 N 
ATOM     11  C   UNL     1      15.195  11.862  32.920  0.00  0.00    +0.000 C 
ENDROOT
BRANCH   1  17
ATOM     12  C   UNL     1      20.781  10.374  38.596  0.00  0.00    +0.000 A 
ATOM     13  C   UNL     1      21.480  10.519  39.766  0.00  0.00    +0.000 A 
ATOM     14  C   UNL     1      20.834  10.224  40.957  0.00  0.00    +0.000 A 
ATOM     15  C   UNL     1      19.528   9.800  40.946  0.00  0.00    +0.000 A 
ATOM     16  C   UNL     1      18.824   9.653  39.784  0.00  0.00    +0.000 A 
ATOM     17  C   UNL     1      19.453   9.941  38.592  0.00  0.00    +0.000 A 
BRANCH  12  19
ATOM     18  C   UNL     1      22.387   9.580  36.881  0.00  0.00    +0.000 C 
ATOM     19  C   UNL     1      21.464  10.694  37.313  0.00  0.00    +0.000 C 
ENDBRANCH  12  19
BRANCH  16  20
ATOM     20  C   UNL     1      17.413   9.197  39.737  0.00  0.00    +0.000 C 
ATOM     21  C   UNL     1      17.110   8.287  40.898  0.00  0.00    +0.000 C 
ENDBRANCH  16  20
ENDBRANCH   1  17
TORSDOF 3
ENDMDL
