MODEL 1
REMARK VINA RESULT:      -6.6      0.000      0.000
REMARK  Name = 
REMARK  5 active torsions:
REMARK  status: ('A' for Active; 'I' for Inactive)
REMARK    1  A    between atoms: O_2  and  C_3
REMARK    2  A    between atoms: C_5  and  C_6
REMARK    3  A    between atoms: C_6  and  C_7
REMARK    4  A    between atoms: C_16  and  N_17
REMARK    5  A    between atoms: C_21  and  O_22
REMARK                            x       y       z     vdW  Elec       q    Type
REMARK                         _______ _______ _______ _____ _____    ______ ____
ROOT
ATOM      1  C   UNL     1      29.808  22.413  25.775  0.00  0.00    +0.000 A 
ATOM      2  C   UNL     1      28.462  22.513  25.992  0.00  0.00    +0.000 A 
ATOM      3  C   UNL     1      27.555  23.023  25.044  0.00  0.00    +0.000 A 
ATOM      4  C   UNL     1      28.013  23.451  23.830  0.00  0.00    +0.000 A 
ATOM      5  C   UNL     1      29.403  23.342  23.615  0.00  0.00    +0.000 A 
ATOM      6  C   UNL     1      30.265  22.844  24.547  0.00  0.00    +0.000 A 
ENDROOT
BRANCH   4   7
ATOM      7  N   UNL     1      27.225  24.045  22.806  0.00  0.00    +0.000 N 
ATOM      8  O   UNL     1      27.156  25.315  22.828  0.00  0.00    +0.000 OA
ATOM      9  O   UNL     1      26.564  23.413  21.850  0.00  0.00    +0.000 OA
ENDBRANCH   4   7
BRANCH   1  11
ATOM     10  C   UNL     1      31.064  22.649  27.869  0.00  0.00    +0.000 C 
ATOM     11  O   UNL     1      30.688  21.902  26.737  0.00  0.00    +0.000 OA
ENDBRANCH   1  11
BRANCH   6  12
ATOM     12  O   UNL     1      31.649  22.741  24.318  0.00  0.00    +0.000 OA
ATOM     13  C   UNL     1      32.407  23.901  24.596  0.00  0.00    +0.000 C 
ENDBRANCH   6  12
BRANCH   3  14
ATOM     14  C   UNL     1      26.109  23.010  25.356  0.00  0.00    +0.000 C 
BRANCH  14  15
ATOM     15  C   UNL     1      25.785  23.750  26.599  0.00  0.00    +0.000 A 
ATOM     16  N   UNL     1      26.171  23.567  27.849  0.00  0.00    +0.000 NA
ATOM     17  C   UNL     1      25.653  24.460  28.699  0.00  0.00    +0.000 A 
ATOM     18  C   UNL     1      25.716  24.721  30.045  0.00  0.00    +0.000 A 
ATOM     19  C   UNL     1      25.012  25.784  30.609  0.00  0.00    +0.000 A 
ATOM     20  C   UNL     1      24.237  26.596  29.842  0.00  0.00    +0.000 A 
ATOM     21  C   UNL     1      24.158  26.354  28.490  0.00  0.00    +0.000 A 
ATOM     22  C   UNL     1      24.867  25.286  27.929  0.00  0.00    +0.000 A 
ATOM     23  N   UNL     1      24.962  24.839  26.668  0.00  0.00    +0.000 NA
ENDBRANCH  14  15
ENDBRANCH   3  14
TORSDOF 5
ENDMDL
MODEL 2
REMARK VINA RESULT:      -6.4      3.361      6.205
REMARK  Name = 
REMARK  5 active torsions:
REMARK  status: ('A' for Active; 'I' for Inactive)
REMARK    1  A    between atoms: O_2  and  C_3
REMARK    2  A    between atoms: C_5  and  C_6
REMARK    3  A    between atoms: C_6  and  C_7
REMARK    4  A    between atoms: C_16  and  N_17
REMARK    5  A    between atoms: C_21  and  O_22
REMARK                            x       y       z     vdW  Elec       q    Type
REMARK                         _______ _______ _______ _____ _____    ______ ____
ROOT
ATOM      1  C   UNL     1      29.744  22.871  25.252  0.00  0.00    +0.000 A 
ATOM      2  C   UNL     1      29.651  23.055  23.901  0.00  0.00    +0.000 A 
ATOM      3  C   UNL     1      28.433  23.267  23.226  0.00  0.00    +0.000 A 
ATOM      4  C   UNL     1      27.263  23.294  23.930  0.00  0.00    +0.000 A 
ATOM      5  C   UNL     1      27.371  23.105  25.324  0.00  0.00    +0.000 A 
ATOM      6  C   UNL     1      28.561  22.902  25.959  0.00  0.00    +0.000 A 
ENDROOT
BRANCH   4   7
ATOM      7  N   UNL     1      25.961  23.433  23.375  0.00  0.00    +0.000 N 
ATOM      8  O   UNL     1      25.183  24.235  23.983  0.00  0.00    +0.000 OA
ATOM      9  O   UNL     1      25.488  22.815  22.305  0.00  0.00    +0.000 OA
ENDBRANCH   4   7
BRANCH   1  11
ATOM     10  C   UNL     1      31.832  23.727  26.215  0.00  0.00    +0.000 C 
ATOM     11  O   UNL     1      30.969  22.661  25.899  0.00  0.00    +0.000 OA
ENDBRANCH   1  11
BRANCH   6  12
ATOM     12  O   UNL     1      28.652  22.715  27.350  0.00  0.00    +0.000 OA
ATOM     13  C   UNL     1      28.132  23.758  28.148  0.00  0.00    +0.000 C 
ENDBRANCH   6  12
BRANCH   3  14
ATOM     14  C   UNL     1      28.458  23.535  21.771  0.00  0.00    +0.000 C 
BRANCH  14  15
ATOM     15  C   UNL     1      28.747  24.954  21.455  0.00  0.00    +0.000 A 
ATOM     16  N   UNL     1      28.411  26.072  22.074  0.00  0.00    +0.000 NA
ATOM     17  C   UNL     1      28.870  27.171  21.468  0.00  0.00    +0.000 A 
ATOM     18  C   UNL     1      28.818  28.528  21.671  0.00  0.00    +0.000 A 
ATOM     19  C   UNL     1      29.440  29.415  20.795  0.00  0.00    +0.000 A 
ATOM     20  C   UNL     1      30.120  28.963  19.707  0.00  0.00    +0.000 A 
ATOM     21  C   UNL     1      30.186  27.607  19.482  0.00  0.00    +0.000 A 
ATOM     22  C   UNL     1      29.560  26.722  20.366  0.00  0.00    +0.000 A 
ATOM     23  N   UNL     1      29.472  25.383  20.379  0.00  0.00    +0.000 NA
ENDBRANCH  14  15
ENDBRANCH   3  14
TORSDOF 5
ENDMDL
MODEL 3
REMARK VINA RESULT:      -6.4      2.703      6.054
REMARK  Name = 
REMARK  5 active torsions:
REMARK  status: ('A' for Active; 'I' for Inactive)
REMARK    1  A    between atoms: O_2  and  C_3
REMARK    2  A    between atoms: C_5  and  C_6
REMARK    3  A    between atoms: C_6  and  C_7
REMARK    4  A    between atoms: C_16  and  N_17
REMARK    5  A    between atoms: C_21  and  O_22
REMARK                            x       y       z     vdW  Elec       q    Type
REMARK                         _______ _______ _______ _____ _____    ______ ____
ROOT
ATOM      1  C   UNL     1      26.967  23.565  26.894  0.00  0.00    +0.000 A 
ATOM      2  C   UNL     1      27.955  23.137  26.052  0.00  0.00    +0.000 A 
ATOM      3  C   UNL     1      27.851  23.171  24.648  0.00  0.00    +0.000 A 
ATOM      4  C   UNL     1      26.714  23.651  24.064  0.00  0.00    +0.000 A 
ATOM      5  C   UNL     1      25.701  24.092  24.941  0.00  0.00    +0.000 A 
ATOM      6  C   UNL     1      25.822  24.052  26.299  0.00  0.00    +0.000 A 
ENDROOT
BRANCH   4   7
ATOM      7  N   UNL     1      26.446  23.684  22.667  0.00  0.00    +0.000 N 
ATOM      8  O   UNL     1      25.565  22.865  22.253  0.00  0.00    +0.000 OA
ATOM      9  O   UNL     1      27.019  24.471  21.771  0.00  0.00    +0.000 OA
ENDBRANCH   4   7
BRANCH   1  11
ATOM     10  C   UNL     1      27.604  22.386  28.949  0.00  0.00    +0.000 C 
ATOM     11  O   UNL     1      27.096  23.520  28.288  0.00  0.00    +0.000 OA
ENDBRANCH   1  11
BRANCH   6  12
ATOM     12  O   UNL     1      24.803  24.495  27.162  0.00  0.00    +0.000 OA
ATOM     13  C   UNL     1      24.144  25.684  26.778  0.00  0.00    +0.000 C 
ENDBRANCH   6  12
BRANCH   3  14
ATOM     14  C   UNL     1      29.015  22.757  23.833  0.00  0.00    +0.000 C 
BRANCH  14  15
ATOM     15  C   UNL     1      30.248  23.503  24.176  0.00  0.00    +0.000 A 
ATOM     16  N   UNL     1      31.512  23.122  24.236  0.00  0.00    +0.000 NA
ATOM     17  C   UNL     1      32.346  24.105  24.590  0.00  0.00    +0.000 A 
ATOM     18  C   UNL     1      33.695  24.254  24.796  0.00  0.00    +0.000 A 
ATOM     19  C   UNL     1      34.237  25.480  25.174  0.00  0.00    +0.000 A 
ATOM     20  C   UNL     1      33.445  26.571  25.354  0.00  0.00    +0.000 A 
ATOM     21  C   UNL     1      32.089  26.446  25.154  0.00  0.00    +0.000 A 
ATOM     22  C   UNL     1      31.551  25.212  24.773  0.00  0.00    +0.000 A 
ATOM     23  N   UNL     1      30.292  24.826  24.519  0.00  0.00    +0.000 NA
ENDBRANCH  14  15
ENDBRANCH   3  14
TORSDOF 5
ENDMDL
MODEL 4
REMARK VINA RESULT:      -6.2      3.049      6.512
REMARK  Name = 
REMARK  5 active torsions:
REMARK  status: ('A' for Active; 'I' for Inactive)
REMARK    1  A    between atoms: O_2  and  C_3
REMARK    2  A    between atoms: C_5  and  C_6
REMARK    3  A    between atoms: C_6  and  C_7
REMARK    4  A    between atoms: C_16  and  N_17
REMARK    5  A    between atoms: C_21  and  O_22
REMARK                            x       y       z     vdW  Elec       q    Type
REMARK                         _______ _______ _______ _____ _____    ______ ____
ROOT
ATOM      1  C   UNL     1      25.893  23.804  29.795  0.00  0.00    +0.000 A 
ATOM      2  C   UNL     1      25.991  23.539  28.458  0.00  0.00    +0.000 A 
ATOM      3  C   UNL     1      25.582  24.437  27.454  0.00  0.00    +0.000 A 
ATOM      4  C   UNL     1      25.053  25.647  27.801  0.00  0.00    +0.000 A 
ATOM      5  C   UNL     1      24.958  25.911  29.184  0.00  0.00    +0.000 A 
ATOM      6  C   UNL     1      25.361  25.028  30.142  0.00  0.00    +0.000 A 
ENDROOT
BRANCH   4   7
ATOM      7  N   UNL     1      24.541  26.621  26.900  0.00  0.00    +0.000 N 
ATOM      8  O   UNL     1      23.289  26.569  26.682  0.00  0.00    +0.000 OA
ATOM      9  O   UNL     1      25.233  27.559  26.274  0.00  0.00    +0.000 OA
ENDBRANCH   4   7
BRANCH   1  11
ATOM     10  C   UNL     1      26.483  21.525  30.487  0.00  0.00    +0.000 C 
ATOM     11  O   UNL     1      26.307  22.891  30.774  0.00  0.00    +0.000 OA
ENDBRANCH   1  11
BRANCH   6  12
ATOM     12  O   UNL     1      25.260  25.305  31.516  0.00  0.00    +0.000 OA
ATOM     13  C   UNL     1      24.457  26.415  31.864  0.00  0.00    +0.000 C 
ENDBRANCH   6  12
BRANCH   3  14
ATOM     14  C   UNL     1      25.810  24.078  26.036  0.00  0.00    +0.000 C 
BRANCH  14  15
ATOM     15  C   UNL     1      27.247  24.053  25.676  0.00  0.00    +0.000 A 
ATOM     16  N   UNL     1      28.125  25.027  25.518  0.00  0.00    +0.000 NA
ATOM     17  C   UNL     1      29.345  24.592  25.187  0.00  0.00    +0.000 A 
ATOM     18  C   UNL     1      30.571  25.147  24.915  0.00  0.00    +0.000 A 
ATOM     19  C   UNL     1      31.669  24.352  24.592  0.00  0.00    +0.000 A 
ATOM     20  C   UNL     1      31.560  22.997  24.534  0.00  0.00    +0.000 A 
ATOM     21  C   UNL     1      30.341  22.418  24.802  0.00  0.00    +0.000 A 
ATOM     22  C   UNL     1      29.242  23.222  25.127  0.00  0.00    +0.000 A 
ATOM     23  N   UNL     1      27.970  22.920  25.425  0.00  0.00    +0.000 NA
ENDBRANCH  14  15
ENDBRANCH   3  14
TORSDOF 5
ENDMDL
MODEL 5
REMARK VINA RESULT:      -6.2     16.711     18.813
REMARK  Name = 
REMARK  5 active torsions:
REMARK  status: ('A' for Active; 'I' for Inactive)
REMARK    1  A    between atoms: O_2  and  C_3
REMARK    2  A    between atoms: C_5  and  C_6
REMARK    3  A    between atoms: C_6  and  C_7
REMARK    4  A    between atoms: C_16  and  N_17
REMARK    5  A    between atoms: C_21  and  O_22
REMARK                            x       y       z     vdW  Elec       q    Type
REMARK                         _______ _______ _______ _____ _____    ______ ____
ROOT
ATOM      1  C   UNL     1      20.583  14.099  38.593  0.00  0.00    +0.000 A 
ATOM      2  C   UNL     1      19.598  13.161  38.466  0.00  0.00    +0.000 A 
ATOM      3  C   UNL     1      19.848  11.784  38.308  0.00  0.00    +0.000 A 
ATOM      4  C   UNL     1      21.136  11.329  38.275  0.00  0.00    +0.000 A 
ATOM      5  C   UNL     1      22.145  12.306  38.409  0.00  0.00    +0.000 A 
ATOM      6  C   UNL     1      21.881  13.635  38.562  0.00  0.00    +0.000 A 
ENDROOT
BRANCH   4   7
ATOM      7  N   UNL     1      21.537   9.982  38.058  0.00  0.00    +0.000 N 
ATOM      8  O   UNL     1      21.608   9.615  36.842  0.00  0.00    +0.000 OA
ATOM      9  O   UNL     1      21.835   9.087  38.985  0.00  0.00    +0.000 OA
ENDBRANCH   4   7
BRANCH   1  11
ATOM     10  C   UNL     1      19.569  15.950  39.844  0.00  0.00    +0.000 C 
ATOM     11  O   UNL     1      20.306  15.464  38.749  0.00  0.00    +0.000 OA
ENDBRANCH   1  11
BRANCH   6  12
ATOM     12  O   UNL     1      22.898  14.597  38.695  0.00  0.00    +0.000 OA
ATOM     13  C   UNL     1      24.162  14.233  38.178  0.00  0.00    +0.000 C 
ENDBRANCH   6  12
BRANCH   3  14
ATOM     14  C   UNL     1      18.703  10.849  38.260  0.00  0.00    +0.000 C 
BRANCH  14  15
ATOM     15  C   UNL     1      17.919  10.968  37.008  0.00  0.00    +0.000 A 
ATOM     16  N   UNL     1      16.825  11.653  36.726  0.00  0.00    +0.000 NA
ATOM     17  C   UNL     1      16.415  11.499  35.462  0.00  0.00    +0.000 A 
ATOM     18  C   UNL     1      15.389  11.957  34.675  0.00  0.00    +0.000 A 
ATOM     19  C   UNL     1      15.271  11.569  33.342  0.00  0.00    +0.000 A 
ATOM     20  C   UNL     1      16.171  10.720  32.778  0.00  0.00    +0.000 A 
ATOM     21  C   UNL     1      17.209  10.247  33.547  0.00  0.00    +0.000 A 
ATOM     22  C   UNL     1      17.323  10.641  34.885  0.00  0.00    +0.000 A 
ATOM     23  N   UNL     1      18.218  10.335  35.835  0.00  0.00    +0.000 NA
ENDBRANCH  14  15
ENDBRANCH   3  14
TORSDOF 5
ENDMDL
MODEL 6
REMARK VINA RESULT:      -6.1      2.842      6.380
REMARK  Name = 
REMARK  5 active torsions:
REMARK  status: ('A' for Active; 'I' for Inactive)
REMARK    1  A    between atoms: O_2  and  C_3
REMARK    2  A    between atoms: C_5  and  C_6
REMARK    3  A    between atoms: C_6  and  C_7
REMARK    4  A    between atoms: C_16  and  N_17
REMARK    5  A    between atoms: C_21  and  O_22
REMARK                            x       y       z     vdW  Elec       q    Type
REMARK                         _______ _______ _______ _____ _____    ______ ____
ROOT
ATOM      1  C   UNL     1      25.931  24.238  29.805  0.00  0.00    +0.000 A 
ATOM      2  C   UNL     1      26.763  23.279  29.298  0.00  0.00    +0.000 A 
ATOM      3  C   UNL     1      26.934  23.045  27.920  0.00  0.00    +0.000 A 
ATOM      4  C   UNL     1      26.243  23.799  27.014  0.00  0.00    +0.000 A 
ATOM      5  C   UNL     1      25.389  24.787  27.547  0.00  0.00    +0.000 A 
ATOM      6  C   UNL     1      25.239  24.998  28.886  0.00  0.00    +0.000 A 
ENDROOT
BRANCH   4   7
ATOM      7  N   UNL     1      26.268  23.631  25.602  0.00  0.00    +0.000 N 
ATOM      8  O   UNL     1      26.969  24.474  24.956  0.00  0.00    +0.000 OA
ATOM      9  O   UNL     1      25.637  22.699  24.905  0.00  0.00    +0.000 OA
ENDBRANCH   4   7
BRANCH   1  11
ATOM     10  C   UNL     1      26.740  25.150  31.934  0.00  0.00    +0.000 C 
ATOM     11  O   UNL     1      25.780  24.449  31.181  0.00  0.00    +0.000 OA
ENDBRANCH   1  11
BRANCH   6  12
ATOM     12  O   UNL     1      24.383  25.987  29.404  0.00  0.00    +0.000 OA
ATOM     13  C   UNL     1      23.597  26.679  28.455  0.00  0.00    +0.000 C 
ENDBRANCH   6  12
BRANCH   3  14
ATOM     14  C   UNL     1      27.922  22.035  27.482  0.00  0.00    +0.000 C 
BRANCH  14  15
ATOM     15  C   UNL     1      29.187  22.641  27.004  0.00  0.00    +0.000 A 
ATOM     16  N   UNL     1      30.070  23.412  27.613  0.00  0.00    +0.000 NA
ATOM     17  C   UNL     1      31.098  23.760  26.831  0.00  0.00    +0.000 A 
ATOM     18  C   UNL     1      32.241  24.511  26.947  0.00  0.00    +0.000 A 
ATOM     19  C   UNL     1      33.120  24.660  25.877  0.00  0.00    +0.000 A 
ATOM     20  C   UNL     1      32.872  24.067  24.679  0.00  0.00    +0.000 A 
ATOM     21  C   UNL     1      31.732  23.310  24.537  0.00  0.00    +0.000 A 
ATOM     22  C   UNL     1      30.853  23.162  25.616  0.00  0.00    +0.000 A 
ATOM     23  N   UNL     1      29.697  22.495  25.744  0.00  0.00    +0.000 NA
ENDBRANCH  14  15
ENDBRANCH   3  14
TORSDOF 5
ENDMDL
MODEL 7
REMARK VINA RESULT:      -6.1      3.184      5.722
REMARK  Name = 
REMARK  5 active torsions:
REMARK  status: ('A' for Active; 'I' for Inactive)
REMARK    1  A    between atoms: O_2  and  C_3
REMARK    2  A    between atoms: C_5  and  C_6
REMARK    3  A    between atoms: C_6  and  C_7
REMARK    4  A    between atoms: C_16  and  N_17
REMARK    5  A    between atoms: C_21  and  O_22
REMARK                            x       y       z     vdW  Elec       q    Type
REMARK                         _______ _______ _______ _____ _____    ______ ____
ROOT
ATOM      1  C   UNL     1      30.114  23.032  28.397  0.00  0.00    +0.000 A 
ATOM      2  C   UNL     1      28.913  23.127  27.751  0.00  0.00    +0.000 A 
ATOM      3  C   UNL     1      27.669  23.055  28.405  0.00  0.00    +0.000 A 
ATOM      4  C   UNL     1      27.624  22.881  29.759  0.00  0.00    +0.000 A 
ATOM      5  C   UNL     1      28.869  22.786  30.417  0.00  0.00    +0.000 A 
ATOM      6  C   UNL     1      30.064  22.860  29.764  0.00  0.00    +0.000 A 
ENDROOT
BRANCH   4   7
ATOM      7  N   UNL     1      26.446  22.726  30.540  0.00  0.00    +0.000 N 
ATOM      8  O   UNL     1      25.921  23.803  30.969  0.00  0.00    +0.000 OA
ATOM      9  O   UNL     1      25.854  21.587  30.861  0.00  0.00    +0.000 OA
ENDBRANCH   4   7
BRANCH   1  11
ATOM     10  C   UNL     1      31.407  23.319  26.331  0.00  0.00    +0.000 C 
ATOM     11  O   UNL     1      31.339  23.107  27.720  0.00  0.00    +0.000 OA
ENDBRANCH   1  11
BRANCH   6  12
ATOM     12  O   UNL     1      31.298  22.764  30.433  0.00  0.00    +0.000 OA
ATOM     13  C   UNL     1      31.604  21.499  30.983  0.00  0.00    +0.000 C 
ENDBRANCH   6  12
BRANCH   3  14
ATOM     14  C   UNL     1      26.432  23.250  27.617  0.00  0.00    +0.000 C 
BRANCH  14  15
ATOM     15  C   UNL     1      26.693  23.824  26.276  0.00  0.00    +0.000 A 
ATOM     16  N   UNL     1      26.761  25.077  25.861  0.00  0.00    +0.000 NA
ATOM     17  C   UNL     1      27.021  25.189  24.555  0.00  0.00    +0.000 A 
ATOM     18  C   UNL     1      27.190  26.204  23.646  0.00  0.00    +0.000 A 
ATOM     19  C   UNL     1      27.462  25.937  22.306  0.00  0.00    +0.000 A 
ATOM     20  C   UNL     1      27.567  24.659  21.854  0.00  0.00    +0.000 A 
ATOM     21  C   UNL     1      27.401  23.624  22.745  0.00  0.00    +0.000 A 
ATOM     22  C   UNL     1      27.129  23.899  24.090  0.00  0.00    +0.000 A 
ATOM     23  N   UNL     1      26.928  23.094  25.145  0.00  0.00    +0.000 NA
ENDBRANCH  14  15
ENDBRANCH   3  14
TORSDOF 5
ENDMDL
MODEL 8
REMARK VINA RESULT:      -6.0     31.813     33.294
REMARK  Name = 
REMARK  5 active torsions:
REMARK  status: ('A' for Active; 'I' for Inactive)
REMARK    1  A    between atoms: O_2  and  C_3
REMARK    2  A    between atoms: C_5  and  C_6
REMARK    3  A    between atoms: C_6  and  C_7
REMARK    4  A    between atoms: C_16  and  N_17
REMARK    5  A    between atoms: C_21  and  O_22
REMARK                            x       y       z     vdW  Elec       q    Type
REMARK                         _______ _______ _______ _____ _____    ______ ____
ROOT
ATOM      1  C   UNL     1      20.230  -9.763  27.334  0.00  0.00    +0.000 A 
ATOM      2  C   UNL     1      20.624  -8.754  26.501  0.00  0.00    +0.000 A 
ATOM      3  C   UNL     1      19.915  -7.547  26.349  0.00  0.00    +0.000 A 
ATOM      4  C   UNL     1      18.766  -7.342  27.058  0.00  0.00    +0.000 A 
ATOM      5  C   UNL     1      18.369  -8.389  27.918  0.00  0.00    +0.000 A 
ATOM      6  C   UNL     1      19.071  -9.551  28.051  0.00  0.00    +0.000 A 
ENDROOT
BRANCH   4   7
ATOM      7  N   UNL     1      17.918  -6.205  26.958  0.00  0.00    +0.000 N 
ATOM      8  O   UNL     1      16.685  -6.413  27.191  0.00  0.00    +0.000 OA
ATOM      9  O   UNL     1      18.283  -4.972  26.646  0.00  0.00    +0.000 OA
ENDBRANCH   4   7
BRANCH   1  11
ATOM     10  C   UNL     1      22.190 -11.002  28.138  0.00  0.00    +0.000 C 
ATOM     11  O   UNL     1      20.955 -10.955  27.466  0.00  0.00    +0.000 OA
ENDBRANCH   1  11
BRANCH   6  12
ATOM     12  O   UNL     1      18.663 -10.585  28.911  0.00  0.00    +0.000 OA
ATOM     13  C   UNL     1      17.640 -10.257  29.828  0.00  0.00    +0.000 C 
ENDBRANCH   6  12
BRANCH   3  14
ATOM     14  C   UNL     1      20.477  -6.491  25.478  0.00  0.00    +0.000 C 
BRANCH  14  15
ATOM     15  C   UNL     1      21.679  -6.940  24.737  0.00  0.00    +0.000 A 
ATOM     16  N   UNL     1      21.825  -7.816  23.759  0.00  0.00    +0.000 NA
ATOM     17  C   UNL     1      23.091  -7.946  23.349  0.00  0.00    +0.000 A 
ATOM     18  C   UNL     1      23.774  -8.679  22.411  0.00  0.00    +0.000 A 
ATOM     19  C   UNL     1      25.153  -8.550  22.256  0.00  0.00    +0.000 A 
ATOM     20  C   UNL     1      25.868  -7.693  23.033  0.00  0.00    +0.000 A 
ATOM     21  C   UNL     1      25.206  -6.948  23.981  0.00  0.00    +0.000 A 
ATOM     22  C   UNL     1      23.821  -7.081  24.131  0.00  0.00    +0.000 A 
ATOM     23  N   UNL     1      22.949  -6.486  24.960  0.00  0.00    +0.000 NA
ENDBRANCH  14  15
ENDBRANCH   3  14
TORSDOF 5
ENDMDL
MODEL 9
REMARK VINA RESULT:      -6.0     32.732     34.126
REMARK  Name = 
REMARK  5 active torsions:
REMARK  status: ('A' for Active; 'I' for Inactive)
REMARK    1  A    between atoms: O_2  and  C_3
REMARK    2  A    between atoms: C_5  and  C_6
REMARK    3  A    between atoms: C_6  and  C_7
REMARK    4  A    between atoms: C_16  and  N_17
REMARK    5  A    between atoms: C_21  and  O_22
REMARK                            x       y       z     vdW  Elec       q    Type
REMARK                         _______ _______ _______ _____ _____    ______ ____
ROOT
ATOM      1  C   UNL     1      17.784  -9.564  29.179  0.00  0.00    +0.000 A 
ATOM      2  C   UNL     1      18.212  -8.456  28.503  0.00  0.00    +0.000 A 
ATOM      3  C   UNL     1      17.775  -8.116  27.208  0.00  0.00    +0.000 A 
ATOM      4  C   UNL     1      16.875  -8.917  26.565  0.00  0.00    +0.000 A 
ATOM      5  C   UNL     1      16.438 -10.057  27.272  0.00  0.00    +0.000 A 
ATOM      6  C   UNL     1      16.873 -10.368  28.527  0.00  0.00    +0.000 A 
ENDROOT
BRANCH   4   7
ATOM      7  N   UNL     1      16.397  -8.733  25.238  0.00  0.00    +0.000 N 
ATOM      8  O   UNL     1      17.123  -9.222  24.315  0.00  0.00    +0.000 OA
ATOM      9  O   UNL     1      15.288  -8.107  24.877  0.00  0.00    +0.000 OA
ENDBRANCH   4   7
BRANCH   1  11
ATOM     10  C   UNL     1      19.605  -9.868  30.796  0.00  0.00    +0.000 C 
ATOM     11  O   UNL     1      18.237  -9.879  30.467  0.00  0.00    +0.000 OA
ENDBRANCH   1  11
BRANCH   6  12
ATOM     12  O   UNL     1      16.429 -11.508  29.220  0.00  0.00    +0.000 OA
ATOM     13  C   UNL     1      15.096 -11.464  29.688  0.00  0.00    +0.000 C 
ENDBRANCH   6  12
BRANCH   3  14
ATOM     14  C   UNL     1      18.244  -6.850  26.603  0.00  0.00    +0.000 C 
BRANCH  14  15
ATOM     15  C   UNL     1      19.588  -6.971  25.991  0.00  0.00    +0.000 A 
ATOM     16  N   UNL     1      20.354  -6.083  25.381  0.00  0.00    +0.000 NA
ATOM     17  C   UNL     1      21.518  -6.588  24.960  0.00  0.00    +0.000 A 
ATOM     18  C   UNL     1      22.632  -6.132  24.301  0.00  0.00    +0.000 A 
ATOM     19  C   UNL     1      23.703  -6.977  24.019  0.00  0.00    +0.000 A 
ATOM     20  C   UNL     1      23.677  -8.286  24.388  0.00  0.00    +0.000 A 
ATOM     21  C   UNL     1      22.571  -8.767  25.050  0.00  0.00    +0.000 A 
ATOM     22  C   UNL     1      21.499  -7.912  25.331  0.00  0.00    +0.000 A 
ATOM     23  N   UNL     1      20.327  -8.120  25.949  0.00  0.00    +0.000 NA
ENDBRANCH  14  15
ENDBRANCH   3  14
TORSDOF 5
ENDMDL
MODEL 10
REMARK VINA RESULT:      -6.0      2.581      6.031
REMARK  Name = 
REMARK  5 active torsions:
REMARK  status: ('A' for Active; 'I' for Inactive)
REMARK    1  A    between atoms: O_2  and  C_3
REMARK    2  A    between atoms: C_5  and  C_6
REMARK    3  A    between atoms: C_6  and  C_7
REMARK    4  A    between atoms: C_16  and  N_17
REMARK    5  A    between atoms: C_21  and  O_22
REMARK                            x       y       z     vdW  Elec       q    Type
REMARK                         _______ _______ _______ _____ _____    ______ ____
ROOT
ATOM      1  C   UNL     1      27.630  22.704  28.640  0.00  0.00    +0.000 A 
ATOM      2  C   UNL     1      28.262  22.485  27.448  0.00  0.00    +0.000 A 
ATOM      3  C   UNL     1      27.754  22.912  26.207  0.00  0.00    +0.000 A 
ATOM      4  C   UNL     1      26.566  23.584  26.156  0.00  0.00    +0.000 A 
ATOM      5  C   UNL     1      25.922  23.806  27.392  0.00  0.00    +0.000 A 
ATOM      6  C   UNL     1      26.433  23.385  28.585  0.00  0.00    +0.000 A 
ENDROOT
BRANCH   4   7
ATOM      7  N   UNL     1      25.904  24.016  24.974  0.00  0.00    +0.000 N 
ATOM      8  O   UNL     1      25.322  23.106  24.302  0.00  0.00    +0.000 OA
ATOM      9  O   UNL     1      25.840  25.254  24.511  0.00  0.00    +0.000 OA
ENDBRANCH   4   7
BRANCH   1  11
ATOM     10  C   UNL     1      29.236  22.927  30.483  0.00  0.00    +0.000 C 
ATOM     11  O   UNL     1      28.159  22.266  29.862  0.00  0.00    +0.000 OA
ENDBRANCH   1  11
BRANCH   6  12
ATOM     12  O   UNL     1      25.780  23.613  29.809  0.00  0.00    +0.000 OA
ATOM     13  C   UNL     1      25.669  24.965  30.205  0.00  0.00    +0.000 C 
ENDBRANCH   6  12
BRANCH   3  14
ATOM     14  C   UNL     1      28.562  22.692  24.987  0.00  0.00    +0.000 C 
BRANCH  14  15
ATOM     15  C   UNL     1      29.841  23.440  25.005  0.00  0.00    +0.000 A 
ATOM     16  N   UNL     1      31.087  23.043  24.817  0.00  0.00    +0.000 NA
ATOM     17  C   UNL     1      31.979  24.035  24.915  0.00  0.00    +0.000 A 
ATOM     18  C   UNL     1      33.340  24.176  24.816  0.00  0.00    +0.000 A 
ATOM     19  C   UNL     1      33.953  25.416  24.984  0.00  0.00    +0.000 A 
ATOM     20  C   UNL     1      33.219  26.529  25.256  0.00  0.00    +0.000 A 
ATOM     21  C   UNL     1      31.853  26.412  25.361  0.00  0.00    +0.000 A 
ATOM     22  C   UNL     1      31.243  25.164  25.190  0.00  0.00    +0.000 A 
ATOM     23  N   UNL     1      29.958  24.781  25.239  0.00  0.00    +0.000 NA
ENDBRANCH  14  15
ENDBRANCH   3  14
TORSDOF 5
ENDMDL
