MODEL 1
REMARK VINA RESULT:      -7.6      0.000      0.000
REMARK  Name = 
REMARK  2 active torsions:
REMARK  status: ('A' for Active; 'I' for Inactive)
REMARK    1  A    between atoms: O_2  and  C_3
REMARK    2  A    between atoms: C_5  and  C_6
REMARK                            x       y       z     vdW  Elec       q    Type
REMARK                         _______ _______ _______ _____ _____    ______ ____
ROOT
ATOM      1  C   UNL     1      14.889  10.768  38.294  0.00  0.00    +0.000 A 
ATOM      2  C   UNL     1      14.627  11.403  37.087  0.00  0.00    +0.000 A 
ATOM      3  C   UNL     1      15.393  11.464  35.956  0.00  0.00    +0.000 A 
ATOM      4  C   UNL     1      16.605  10.849  35.723  0.00  0.00    +0.000 A 
ATOM      5  C   UNL     1      17.520  10.482  36.718  0.00  0.00    +0.000 A 
ATOM      6  O   UNL     1      18.736  10.427  36.375  0.00  0.00    +0.000 OA
ATOM      7  C   UNL     1      17.284  10.165  38.039  0.00  0.00    +0.000 A 
ATOM      8  C   UNL     1      18.217   9.648  38.909  0.00  0.00    +0.000 A 
ATOM      9  C   UNL     1      19.647   9.350  38.548  0.00  0.00    +0.000 C 
ATOM     10  O   UNL     1      17.639   9.478  40.064  0.00  0.00    +0.000 OA
ATOM     11  C   UNL     1      16.373   9.846  40.024  0.00  0.00    +0.000 A 
ATOM     12  C   UNL     1      15.399   9.792  41.162  0.00  0.00    +0.000 C 
ATOM     13  C   UNL     1      16.106  10.293  38.746  0.00  0.00    +0.000 A 
ENDROOT
BRANCH   3  14
ATOM     14  C   UNL     1      14.895  12.272  34.844  0.00  0.00    +0.000 A 
ATOM     15  C   UNL     1      14.136  13.400  35.072  0.00  0.00    +0.000 A 
ATOM     16  C   UNL     1      13.667  14.159  34.018  0.00  0.00    +0.000 A 
ATOM     17  C   UNL     1      13.926  13.840  32.702  0.00  0.00    +0.000 A 
ATOM     18  O   UNL     1      13.460  14.597  31.633  0.00  0.00    +0.000 OA
ATOM     19  C   UNL     1      14.690  12.704  32.481  0.00  0.00    +0.000 A 
ATOM     20  C   UNL     1      15.161  11.941  33.531  0.00  0.00    +0.000 A 
ENDBRANCH   3  14
BRANCH   1  22
ATOM     21  C   UNL     1      12.536  10.445  38.668  0.00  0.00    +0.000 C 
ATOM     22  O   UNL     1      13.850  10.566  39.171  0.00  0.00    +0.000 OA
ENDBRANCH   1  22
TORSDOF 2
ENDMDL
MODEL 2
REMARK VINA RESULT:      -7.2      1.846      4.066
REMARK  Name = 
REMARK  2 active torsions:
REMARK  status: ('A' for Active; 'I' for Inactive)
REMARK    1  A    between atoms: O_2  and  C_3
REMARK    2  A    between atoms: C_5  and  C_6
REMARK                            x       y       z     vdW  Elec       q    Type
REMARK                         _______ _______ _______ _____ _____    ______ ____
ROOT
ATOM      1  C   UNL     1      19.200   9.709  37.825  0.00  0.00    +0.000 A 
ATOM      2  C   UNL     1      18.532  10.068  36.663  0.00  0.00    +0.000 A 
ATOM      3  C   UNL     1      17.268  10.567  36.509  0.00  0.00    +0.000 A 
ATOM      4  C   UNL     1      16.363  10.894  37.496  0.00  0.00    +0.000 A 
ATOM      5  C   UNL     1      16.335  10.323  38.775  0.00  0.00    +0.000 A 
ATOM      6  O   UNL     1      15.214  10.304  39.362  0.00  0.00    +0.000 OA
ATOM      7  C   UNL     1      17.368   9.769  39.501  0.00  0.00    +0.000 A 
ATOM      8  C   UNL     1      17.293   9.384  40.821  0.00  0.00    +0.000 A 
ATOM      9  C   UNL     1      16.062   9.508  41.677  0.00  0.00    +0.000 C 
ATOM     10  O   UNL     1      18.454   8.907  41.167  0.00  0.00    +0.000 OA
ATOM     11  C   UNL     1      19.308   8.949  40.162  0.00  0.00    +0.000 A 
ATOM     12  C   UNL     1      20.733   8.487  40.191  0.00  0.00    +0.000 C 
ATOM     13  C   UNL     1      18.653   9.494  39.077  0.00  0.00    +0.000 A 
ENDROOT
BRANCH   3  14
ATOM     14  C   UNL     1      16.791  10.794  35.146  0.00  0.00    +0.000 A 
ATOM     15  C   UNL     1      17.407  10.189  34.071  0.00  0.00    +0.000 A 
ATOM     16  C   UNL     1      16.953  10.406  32.785  0.00  0.00    +0.000 A 
ATOM     17  C   UNL     1      15.879  11.224  32.505  0.00  0.00    +0.000 A 
ATOM     18  O   UNL     1      15.413  11.449  31.215  0.00  0.00    +0.000 OA
ATOM     19  C   UNL     1      15.265  11.829  33.592  0.00  0.00    +0.000 A 
ATOM     20  C   UNL     1      15.715  11.615  34.880  0.00  0.00    +0.000 A 
ENDBRANCH   3  14
BRANCH   1  22
ATOM     21  C   UNL     1      21.261   9.893  36.602  0.00  0.00    +0.000 C 
ATOM     22  O   UNL     1      20.563   9.536  37.776  0.00  0.00    +0.000 OA
ENDBRANCH   1  22
TORSDOF 2
ENDMDL
MODEL 3
REMARK VINA RESULT:      -7.1     18.225     20.501
REMARK  Name = 
REMARK  2 active torsions:
REMARK  status: ('A' for Active; 'I' for Inactive)
REMARK    1  A    between atoms: O_2  and  C_3
REMARK    2  A    between atoms: C_5  and  C_6
REMARK                            x       y       z     vdW  Elec       q    Type
REMARK                         _______ _______ _______ _____ _____    ______ ____
ROOT
ATOM      1  C   UNL     1      25.718  25.470  27.067  0.00  0.00    +0.000 A 
ATOM      2  C   UNL     1      26.407  25.324  25.871  0.00  0.00    +0.000 A 
ATOM      3  C   UNL     1      27.151  24.268  25.423  0.00  0.00    +0.000 A 
ATOM      4  C   UNL     1      27.348  23.051  26.040  0.00  0.00    +0.000 A 
ATOM      5  C   UNL     1      27.273  22.835  27.423  0.00  0.00    +0.000 A 
ATOM      6  O   UNL     1      27.955  21.874  27.882  0.00  0.00    +0.000 OA
ATOM      7  C   UNL     1      26.552  23.528  28.371  0.00  0.00    +0.000 A 
ATOM      8  C   UNL     1      26.398  23.146  29.685  0.00  0.00    +0.000 A 
ATOM      9  C   UNL     1      26.999  21.906  30.289  0.00  0.00    +0.000 C 
ATOM     10  O   UNL     1      25.658  24.039  30.279  0.00  0.00    +0.000 OA
ATOM     11  C   UNL     1      25.303  24.997  29.445  0.00  0.00    +0.000 A 
ATOM     12  C   UNL     1      24.454  26.188  29.773  0.00  0.00    +0.000 C 
ATOM     13  C   UNL     1      25.854  24.709  28.214  0.00  0.00    +0.000 A 
ENDROOT
BRANCH   3  14
ATOM     14  C   UNL     1      27.832  24.416  24.137  0.00  0.00    +0.000 A 
ATOM     15  C   UNL     1      27.553  23.566  23.087  0.00  0.00    +0.000 A 
ATOM     16  C   UNL     1      28.199  23.709  21.875  0.00  0.00    +0.000 A 
ATOM     17  C   UNL     1      29.141  24.690  21.647  0.00  0.00    +0.000 A 
ATOM     18  O   UNL     1      29.796  24.844  20.431  0.00  0.00    +0.000 OA
ATOM     19  C   UNL     1      29.415  25.541  22.708  0.00  0.00    +0.000 A 
ATOM     20  C   UNL     1      28.772  25.402  23.923  0.00  0.00    +0.000 A 
ENDBRANCH   3  14
BRANCH   1  22
ATOM     21  C   UNL     1      23.850  26.655  26.128  0.00  0.00    +0.000 C 
ATOM     22  O   UNL     1      24.782  26.472  27.172  0.00  0.00    +0.000 OA
ENDBRANCH   1  22
TORSDOF 2
ENDMDL
MODEL 4
REMARK VINA RESULT:      -6.8      2.561      6.324
REMARK  Name = 
REMARK  2 active torsions:
REMARK  status: ('A' for Active; 'I' for Inactive)
REMARK    1  A    between atoms: O_2  and  C_3
REMARK    2  A    between atoms: C_5  and  C_6
REMARK                            x       y       z     vdW  Elec       q    Type
REMARK                         _______ _______ _______ _____ _____    ______ ____
ROOT
ATOM      1  C   UNL     1      17.171  10.851  37.442  0.00  0.00    +0.000 A 
ATOM      2  C   UNL     1      18.546  10.850  37.248  0.00  0.00    +0.000 A 
ATOM      3  C   UNL     1      19.521  10.212  37.963  0.00  0.00    +0.000 A 
ATOM      4  C   UNL     1      19.361   9.355  39.031  0.00  0.00    +0.000 A 
ATOM      5  C   UNL     1      18.267   9.363  39.906  0.00  0.00    +0.000 A 
ATOM      6  O   UNL     1      18.476   8.929  41.076  0.00  0.00    +0.000 OA
ATOM      7  C   UNL     1      16.974   9.781  39.673  0.00  0.00    +0.000 A 
ATOM      8  C   UNL     1      15.915   9.596  40.534  0.00  0.00    +0.000 A 
ATOM      9  C   UNL     1      16.009   8.907  41.869  0.00  0.00    +0.000 C 
ATOM     10  O   UNL     1      14.856  10.119  39.985  0.00  0.00    +0.000 OA
ATOM     11  C   UNL     1      15.136  10.642  38.807  0.00  0.00    +0.000 A 
ATOM     12  C   UNL     1      14.169  11.327  37.889  0.00  0.00    +0.000 C 
ATOM     13  C   UNL     1      16.481  10.447  38.570  0.00  0.00    +0.000 A 
ENDROOT
BRANCH   3  14
ATOM     14  C   UNL     1      20.910  10.447  37.573  0.00  0.00    +0.000 A 
ATOM     15  C   UNL     1      21.486   9.732  36.544  0.00  0.00    +0.000 A 
ATOM     16  C   UNL     1      22.799   9.957  36.179  0.00  0.00    +0.000 A 
ATOM     17  C   UNL     1      23.595  10.890  36.809  0.00  0.00    +0.000 A 
ATOM     18  O   UNL     1      24.917  11.125  36.449  0.00  0.00    +0.000 OA
ATOM     19  C   UNL     1      23.008  11.605  37.843  0.00  0.00    +0.000 A 
ATOM     20  C   UNL     1      21.695  11.384  38.212  0.00  0.00    +0.000 A 
ENDBRANCH   3  14
BRANCH   1  22
ATOM     21  C   UNL     1      16.680  10.951  35.091  0.00  0.00    +0.000 C 
ATOM     22  O   UNL     1      16.361  11.294  36.423  0.00  0.00    +0.000 OA
ENDBRANCH   1  22
TORSDOF 2
ENDMDL
MODEL 5
REMARK VINA RESULT:      -6.6      3.815      6.159
REMARK  Name = 
REMARK  2 active torsions:
REMARK  status: ('A' for Active; 'I' for Inactive)
REMARK    1  A    between atoms: O_2  and  C_3
REMARK    2  A    between atoms: C_5  and  C_6
REMARK                            x       y       z     vdW  Elec       q    Type
REMARK                         _______ _______ _______ _____ _____    ______ ____
ROOT
ATOM      1  C   UNL     1      21.337  13.023  38.662  0.00  0.00    +0.000 A 
ATOM      2  C   UNL     1      19.999  12.753  38.410  0.00  0.00    +0.000 A 
ATOM      3  C   UNL     1      19.426  11.626  37.889  0.00  0.00    +0.000 A 
ATOM      4  C   UNL     1      20.048  10.447  37.538  0.00  0.00    +0.000 A 
ATOM      5  C   UNL     1      21.393  10.334  37.161  0.00  0.00    +0.000 A 
ATOM      6  O   UNL     1      21.686   9.370  36.396  0.00  0.00    +0.000 OA
ATOM      7  C   UNL     1      22.461  11.133  37.508  0.00  0.00    +0.000 A 
ATOM      8  C   UNL     1      23.781  10.855  37.233  0.00  0.00    +0.000 A 
ATOM      9  C   UNL     1      24.262   9.629  36.506  0.00  0.00    +0.000 C 
ATOM     10  O   UNL     1      24.504  11.830  37.708  0.00  0.00    +0.000 OA
ATOM     11  C   UNL     1      23.752  12.745  38.287  0.00  0.00    +0.000 A 
ATOM     12  C   UNL     1      24.235  14.004  38.942  0.00  0.00    +0.000 C 
ATOM     13  C   UNL     1      22.438  12.338  38.181  0.00  0.00    +0.000 A 
ENDROOT
BRANCH   3  14
ATOM     14  C   UNL     1      17.981  11.642  37.665  0.00  0.00    +0.000 A 
ATOM     15  C   UNL     1      17.386  12.669  36.963  0.00  0.00    +0.000 A 
ATOM     16  C   UNL     1      16.021  12.681  36.754  0.00  0.00    +0.000 A 
ATOM     17  C   UNL     1      15.190  11.687  37.225  0.00  0.00    +0.000 A 
ATOM     18  O   UNL     1      13.815  11.688  37.020  0.00  0.00    +0.000 OA
ATOM     19  C   UNL     1      15.797  10.658  37.930  0.00  0.00    +0.000 A 
ATOM     20  C   UNL     1      17.161  10.641  38.142  0.00  0.00    +0.000 A 
ENDBRANCH   3  14
BRANCH   1  22
ATOM     21  C   UNL     1      20.697  15.100  39.689  0.00  0.00    +0.000 C 
ATOM     22  O   UNL     1      21.654  14.082  39.479  0.00  0.00    +0.000 OA
ENDBRANCH   1  22
TORSDOF 2
ENDMDL
MODEL 6
REMARK VINA RESULT:      -6.5     18.952     20.738
REMARK  Name = 
REMARK  2 active torsions:
REMARK  status: ('A' for Active; 'I' for Inactive)
REMARK    1  A    between atoms: O_2  and  C_3
REMARK    2  A    between atoms: C_5  and  C_6
REMARK                            x       y       z     vdW  Elec       q    Type
REMARK                         _______ _______ _______ _____ _____    ______ ____
ROOT
ATOM      1  C   UNL     1      27.235  23.619  27.634  0.00  0.00    +0.000 A 
ATOM      2  C   UNL     1      27.638  23.844  26.324  0.00  0.00    +0.000 A 
ATOM      3  C   UNL     1      28.815  23.516  25.712  0.00  0.00    +0.000 A 
ATOM      4  C   UNL     1      29.878  22.818  26.244  0.00  0.00    +0.000 A 
ATOM      5  C   UNL     1      30.192  22.757  27.609  0.00  0.00    +0.000 A 
ATOM      6  O   UNL     1      31.406  22.555  27.901  0.00  0.00    +0.000 OA
ATOM      7  C   UNL     1      29.356  22.887  28.697  0.00  0.00    +0.000 A 
ATOM      8  C   UNL     1      29.714  22.644  30.004  0.00  0.00    +0.000 A 
ATOM      9  C   UNL     1      31.081  22.198  30.446  0.00  0.00    +0.000 C 
ATOM     10  O   UNL     1      28.673  22.870  30.754  0.00  0.00    +0.000 OA
ATOM     11  C   UNL     1      27.636  23.249  30.032  0.00  0.00    +0.000 A 
ATOM     12  C   UNL     1      26.273  23.594  30.551  0.00  0.00    +0.000 C 
ATOM     13  C   UNL     1      28.031  23.273  28.710  0.00  0.00    +0.000 A 
ENDROOT
BRANCH   3  14
ATOM     14  C   UNL     1      28.999  23.941  24.325  0.00  0.00    +0.000 A 
ATOM     15  C   UNL     1      29.706  25.087  24.025  0.00  0.00    +0.000 A 
ATOM     16  C   UNL     1      29.876  25.486  22.713  0.00  0.00    +0.000 A 
ATOM     17  C   UNL     1      29.361  24.776  21.649  0.00  0.00    +0.000 A 
ATOM     18  O   UNL     1      29.528  25.167  20.326  0.00  0.00    +0.000 OA
ATOM     19  C   UNL     1      28.652  23.625  21.960  0.00  0.00    +0.000 A 
ATOM     20  C   UNL     1      28.478  23.222  23.270  0.00  0.00    +0.000 A 
ENDBRANCH   3  14
BRANCH   1  22
ATOM     21  C   UNL     1      25.090  24.601  27.170  0.00  0.00    +0.000 C 
ATOM     22  O   UNL     1      25.901  23.743  27.944  0.00  0.00    +0.000 OA
ENDBRANCH   1  22
TORSDOF 2
ENDMDL
MODEL 7
REMARK VINA RESULT:      -6.5      2.264      3.731
REMARK  Name = 
REMARK  2 active torsions:
REMARK  status: ('A' for Active; 'I' for Inactive)
REMARK    1  A    between atoms: O_2  and  C_3
REMARK    2  A    between atoms: C_5  and  C_6
REMARK                            x       y       z     vdW  Elec       q    Type
REMARK                         _______ _______ _______ _____ _____    ______ ____
ROOT
ATOM      1  C   UNL     1      17.772   9.123  40.404  0.00  0.00    +0.000 A 
ATOM      2  C   UNL     1      16.880   9.813  39.594  0.00  0.00    +0.000 A 
ATOM      3  C   UNL     1      17.065  10.320  38.338  0.00  0.00    +0.000 A 
ATOM      4  C   UNL     1      18.184  10.213  37.540  0.00  0.00    +0.000 A 
ATOM      5  C   UNL     1      19.490  10.032  38.015  0.00  0.00    +0.000 A 
ATOM      6  O   UNL     1      20.424  10.462  37.278  0.00  0.00    +0.000 OA
ATOM      7  C   UNL     1      19.912   9.445  39.188  0.00  0.00    +0.000 A 
ATOM      8  C   UNL     1      21.221   9.153  39.502  0.00  0.00    +0.000 A 
ATOM      9  C   UNL     1      22.397   9.435  38.607  0.00  0.00    +0.000 C 
ATOM     10  O   UNL     1      21.239   8.607  40.685  0.00  0.00    +0.000 OA
ATOM     11  C   UNL     1      20.022   8.512  41.186  0.00  0.00    +0.000 A 
ATOM     12  C   UNL     1      19.656   7.938  42.521  0.00  0.00    +0.000 C 
ATOM     13  C   UNL     1      19.144   9.037  40.260  0.00  0.00    +0.000 A 
ENDROOT
BRANCH   3  14
ATOM     14  C   UNL     1      15.961  11.070  37.741  0.00  0.00    +0.000 A 
ATOM     15  C   UNL     1      14.688  10.991  38.264  0.00  0.00    +0.000 A 
ATOM     16  C   UNL     1      13.648  11.702  37.696  0.00  0.00    +0.000 A 
ATOM     17  C   UNL     1      13.819  12.515  36.597  0.00  0.00    +0.000 A 
ATOM     18  O   UNL     1      12.780  13.236  36.018  0.00  0.00    +0.000 OA
ATOM     19  C   UNL     1      15.103  12.589  36.077  0.00  0.00    +0.000 A 
ATOM     20  C   UNL     1      16.146  11.881  36.640  0.00  0.00    +0.000 A 
ENDBRANCH   3  14
BRANCH   1  22
ATOM     21  C   UNL     1      16.110   7.657  41.336  0.00  0.00    +0.000 C 
ATOM     22  O   UNL     1      17.281   8.432  41.487  0.00  0.00    +0.000 OA
ENDBRANCH   1  22
TORSDOF 2
ENDMDL
MODEL 8
REMARK VINA RESULT:      -6.5     18.857     20.423
REMARK  Name = 
REMARK  2 active torsions:
REMARK  status: ('A' for Active; 'I' for Inactive)
REMARK    1  A    between atoms: O_2  and  C_3
REMARK    2  A    between atoms: C_5  and  C_6
REMARK                            x       y       z     vdW  Elec       q    Type
REMARK                         _______ _______ _______ _____ _____    ______ ____
ROOT
ATOM      1  C   UNL     1      28.779  22.669  28.844  0.00  0.00    +0.000 A 
ATOM      2  C   UNL     1      28.255  22.753  27.561  0.00  0.00    +0.000 A 
ATOM      3  C   UNL     1      28.907  22.799  26.360  0.00  0.00    +0.000 A 
ATOM      4  C   UNL     1      30.264  22.713  26.132  0.00  0.00    +0.000 A 
ATOM      5  C   UNL     1      31.255  23.073  27.056  0.00  0.00    +0.000 A 
ATOM      6  O   UNL     1      32.367  23.438  26.578  0.00  0.00    +0.000 OA
ATOM      7  C   UNL     1      31.192  23.086  28.433  0.00  0.00    +0.000 A 
ATOM      8  C   UNL     1      32.264  23.288  29.272  0.00  0.00    +0.000 A 
ATOM      9  C   UNL     1      33.677  23.529  28.812  0.00  0.00    +0.000 C 
ATOM     10  O   UNL     1      31.830  23.234  30.499  0.00  0.00    +0.000 OA
ATOM     11  C   UNL     1      30.531  23.006  30.537  0.00  0.00    +0.000 A 
ATOM     12  C   UNL     1      29.689  22.880  31.770  0.00  0.00    +0.000 C 
ATOM     13  C   UNL     1      30.084  22.905  29.235  0.00  0.00    +0.000 A 
ENDROOT
BRANCH   3  14
ATOM     14  C   UNL     1      28.096  22.959  25.154  0.00  0.00    +0.000 A 
ATOM     15  C   UNL     1      26.720  22.897  25.214  0.00  0.00    +0.000 A 
ATOM     16  C   UNL     1      25.957  23.048  24.073  0.00  0.00    +0.000 A 
ATOM     17  C   UNL     1      26.516  23.265  22.831  0.00  0.00    +0.000 A 
ATOM     18  O   UNL     1      25.758  23.420  21.676  0.00  0.00    +0.000 OA
ATOM     19  C   UNL     1      27.900  23.327  22.780  0.00  0.00    +0.000 A 
ATOM     20  C   UNL     1      28.668  23.176  23.918  0.00  0.00    +0.000 A 
ENDBRANCH   3  14
BRANCH   1  22
ATOM     21  C   UNL     1      26.551  22.494  29.728  0.00  0.00    +0.000 C 
ATOM     22  O   UNL     1      27.944  22.313  29.876  0.00  0.00    +0.000 OA
ENDBRANCH   1  22
TORSDOF 2
ENDMDL
MODEL 9
REMARK VINA RESULT:      -6.4     21.211     23.491
REMARK  Name = 
REMARK  2 active torsions:
REMARK  status: ('A' for Active; 'I' for Inactive)
REMARK    1  A    between atoms: O_2  and  C_3
REMARK    2  A    between atoms: C_5  and  C_6
REMARK                            x       y       z     vdW  Elec       q    Type
REMARK                         _______ _______ _______ _____ _____    ______ ____
ROOT
ATOM      1  C   UNL     1      29.385  23.738  23.920  0.00  0.00    +0.000 A 
ATOM      2  C   UNL     1      30.691  24.196  24.026  0.00  0.00    +0.000 A 
ATOM      3  C   UNL     1      31.565  24.083  25.072  0.00  0.00    +0.000 A 
ATOM      4  C   UNL     1      31.373  23.424  26.267  0.00  0.00    +0.000 A 
ATOM      5  C   UNL     1      30.124  23.191  26.859  0.00  0.00    +0.000 A 
ATOM      6  O   UNL     1      30.110  23.070  28.118  0.00  0.00    +0.000 OA
ATOM      7  C   UNL     1      28.889  23.071  26.259  0.00  0.00    +0.000 A 
ATOM      8  C   UNL     1      27.735  22.671  26.895  0.00  0.00    +0.000 A 
ATOM      9  C   UNL     1      27.646  22.304  28.351  0.00  0.00    +0.000 C 
ATOM     10  O   UNL     1      26.771  22.677  26.019  0.00  0.00    +0.000 OA
ATOM     11  C   UNL     1      27.206  23.053  24.832  0.00  0.00    +0.000 A 
ATOM     12  C   UNL     1      26.383  23.178  23.585  0.00  0.00    +0.000 C 
ATOM     13  C   UNL     1      28.556  23.315  24.943  0.00  0.00    +0.000 A 
ENDROOT
BRANCH   3  14
ATOM     14  C   UNL     1      32.870  24.729  24.936  0.00  0.00    +0.000 A 
ATOM     15  C   UNL     1      33.031  26.068  25.226  0.00  0.00    +0.000 A 
ATOM     16  C   UNL     1      34.265  26.674  25.095  0.00  0.00    +0.000 A 
ATOM     17  C   UNL     1      35.387  25.989  24.676  0.00  0.00    +0.000 A 
ATOM     18  O   UNL     1      36.634  26.589  24.542  0.00  0.00    +0.000 OA
ATOM     19  C   UNL     1      35.216  24.644  24.387  0.00  0.00    +0.000 A 
ATOM     20  C   UNL     1      33.984  24.033  24.515  0.00  0.00    +0.000 A 
ENDBRANCH   3  14
BRANCH   1  22
ATOM     21  C   UNL     1      29.218  24.593  21.679  0.00  0.00    +0.000 C 
ATOM     22  O   UNL     1      28.807  23.678  22.673  0.00  0.00    +0.000 OA
ENDBRANCH   1  22
TORSDOF 2
ENDMDL
MODEL 10
REMARK VINA RESULT:      -6.4     19.409     20.555
REMARK  Name = 
REMARK  2 active torsions:
REMARK  status: ('A' for Active; 'I' for Inactive)
REMARK    1  A    between atoms: O_2  and  C_3
REMARK    2  A    between atoms: C_5  and  C_6
REMARK                            x       y       z     vdW  Elec       q    Type
REMARK                         _______ _______ _______ _____ _____    ______ ____
ROOT
ATOM      1  C   UNL     1      34.062   2.617  37.149  0.00  0.00    +0.000 A 
ATOM      2  C   UNL     1      34.368   3.948  36.899  0.00  0.00    +0.000 A 
ATOM      3  C   UNL     1      34.321   4.640  35.721  0.00  0.00    +0.000 A 
ATOM      4  C   UNL     1      33.894   4.187  34.491  0.00  0.00    +0.000 A 
ATOM      5  C   UNL     1      33.914   2.847  34.081  0.00  0.00    +0.000 A 
ATOM      6  O   UNL     1      34.003   2.638  32.837  0.00  0.00    +0.000 OA
ATOM      7  C   UNL     1      33.851   1.705  34.849  0.00  0.00    +0.000 A 
ATOM      8  C   UNL     1      33.704   0.427  34.358  0.00  0.00    +0.000 A 
ATOM      9  C   UNL     1      33.592   0.081  32.898  0.00  0.00    +0.000 C 
ATOM     10  O   UNL     1      33.685  -0.393  35.370  0.00  0.00    +0.000 OA
ATOM     11  C   UNL     1      33.807   0.255  36.513  0.00  0.00    +0.000 A 
ATOM     12  C   UNL     1      33.826  -0.357  37.881  0.00  0.00    +0.000 C 
ATOM     13  C   UNL     1      33.916   1.599  36.224  0.00  0.00    +0.000 A 
ENDROOT
BRANCH   3  14
ATOM     14  C   UNL     1      34.772   6.031  35.735  0.00  0.00    +0.000 A 
ATOM     15  C   UNL     1      35.938   6.403  35.100  0.00  0.00    +0.000 A 
ATOM     16  C   UNL     1      36.360   7.718  35.116  0.00  0.00    +0.000 A 
ATOM     17  C   UNL     1      35.654   8.716  35.754  0.00  0.00    +0.000 A 
ATOM     18  O   UNL     1      36.069  10.043  35.776  0.00  0.00    +0.000 OA
ATOM     19  C   UNL     1      34.482   8.333  36.390  0.00  0.00    +0.000 A 
ATOM     20  C   UNL     1      34.056   7.020  36.377  0.00  0.00    +0.000 A 
ENDBRANCH   3  14
BRANCH   1  22
ATOM     21  C   UNL     1      33.962   3.175  39.485  0.00  0.00    +0.000 C 
ATOM     22  O   UNL     1      33.872   2.218  38.451  0.00  0.00    +0.000 OA
ENDBRANCH   1  22
TORSDOF 2
ENDMDL
