MODEL 1
REMARK VINA RESULT:      -7.2      0.000      0.000
REMARK  Name = 
REMARK  1 active torsions:
REMARK  status: ('A' for Active; 'I' for Inactive)
REMARK    1  A    between atoms: C_3  and  C_5
REMARK                            x       y       z     vdW  Elec       q    Type
REMARK                         _______ _______ _______ _____ _____    ______ ____
ROOT
ATOM      1  N   UNL     1      15.033  11.143  37.170  0.00  0.00    +0.000 NA
ATOM      2  N   UNL     1      16.024  11.147  36.196  0.00  0.00    +0.000 N 
ATOM      3  C   UNL     1      17.350  10.844  36.532  0.00  0.00    +0.000 C 
ATOM      4  O   UNL     1      18.237  10.850  35.660  0.00  0.00    +0.000 OA
ATOM      5  C   UNL     1      15.607  11.474  34.854  0.00  0.00    +0.000 A 
ATOM      6  N   UNL     1      14.973  12.559  34.464  0.00  0.00    +0.000 NA
ATOM      7  C   UNL     1      14.657  12.715  33.197  0.00  0.00    +0.000 A 
ATOM      8  C   UNL     1      13.977  13.818  32.619  0.00  0.00    +0.000 A 
ATOM      9  C   UNL     1      13.727  13.825  31.295  0.00  0.00    +0.000 A 
ATOM     10  C   UNL     1      14.073  12.838  30.401  0.00  0.00    +0.000 A 
ATOM     11  C   UNL     1      14.739  11.753  30.959  0.00  0.00    +0.000 A 
ATOM     12  C   UNL     1      15.014  11.716  32.336  0.00  0.00    +0.000 A 
ATOM     13  S   UNL     1      15.785  10.608  33.395  0.00  0.00    +0.000 S 
ENDROOT
BRANCH   3  14
ATOM     14  C   UNL     1      17.702  10.517  37.920  0.00  0.00    +0.000 C 
ATOM     15  C   UNL     1      18.789  11.408  38.479  0.00  0.00    +0.000 C 
ATOM     16  C   UNL     1      19.911  10.577  39.013  0.00  0.00    +0.000 C 
ATOM     17  C   UNL     1      19.439   9.596  40.069  0.00  0.00    +0.000 C 
ATOM     18  C   UNL     1      18.354   8.712  39.441  0.00  0.00    +0.000 C 
ATOM     19  C   UNL     1      18.161   9.068  37.987  0.00  0.00    +0.000 C 
ENDBRANCH   3  14
TORSDOF 1
ENDMDL
MODEL 2
REMARK VINA RESULT:      -6.0     19.059     20.513
REMARK  Name = 
REMARK  1 active torsions:
REMARK  status: ('A' for Active; 'I' for Inactive)
REMARK    1  A    between atoms: C_3  and  C_5
REMARK                            x       y       z     vdW  Elec       q    Type
REMARK                         _______ _______ _______ _____ _____    ______ ____
ROOT
ATOM      1  N   UNL     1      34.472   1.466  37.508  0.00  0.00    +0.000 NA
ATOM      2  N   UNL     1      34.213   2.099  36.298  0.00  0.00    +0.000 N 
ATOM      3  C   UNL     1      33.774   1.360  35.192  0.00  0.00    +0.000 C 
ATOM      4  O   UNL     1      33.543   1.926  34.109  0.00  0.00    +0.000 OA
ATOM      5  C   UNL     1      34.420   3.526  36.260  0.00  0.00    +0.000 A 
ATOM      6  N   UNL     1      35.523   4.175  36.563  0.00  0.00    +0.000 NA
ATOM      7  C   UNL     1      35.557   5.488  36.480  0.00  0.00    +0.000 A 
ATOM      8  C   UNL     1      36.660   6.330  36.771  0.00  0.00    +0.000 A 
ATOM      9  C   UNL     1      36.532   7.664  36.635  0.00  0.00    +0.000 A 
ATOM     10  C   UNL     1      35.400   8.330  36.226  0.00  0.00    +0.000 A 
ATOM     11  C   UNL     1      34.313   7.512  35.939  0.00  0.00    +0.000 A 
ATOM     12  C   UNL     1      34.416   6.117  36.072  0.00  0.00    +0.000 A 
ATOM     13  S   UNL     1      33.356   4.790  35.831  0.00  0.00    +0.000 S 
ENDROOT
BRANCH   3  14
ATOM     14  C   UNL     1      33.581  -0.092  35.304  0.00  0.00    +0.000 C 
ATOM     15  C   UNL     1      34.522  -0.882  34.422  0.00  0.00    +0.000 C 
ATOM     16  C   UNL     1      33.747  -1.817  33.551  0.00  0.00    +0.000 C 
ATOM     17  C   UNL     1      32.871  -2.754  34.361  0.00  0.00    +0.000 C 
ATOM     18  C   UNL     1      31.931  -1.900  35.220  0.00  0.00    +0.000 C 
ATOM     19  C   UNL     1      32.146  -0.433  34.935  0.00  0.00    +0.000 C 
ENDBRANCH   3  14
TORSDOF 1
ENDMDL
MODEL 3
REMARK VINA RESULT:      -6.0     19.547     21.286
REMARK  Name = 
REMARK  1 active torsions:
REMARK  status: ('A' for Active; 'I' for Inactive)
REMARK    1  A    between atoms: C_3  and  C_5
REMARK                            x       y       z     vdW  Elec       q    Type
REMARK                         _______ _______ _______ _____ _____    ______ ____
ROOT
ATOM      1  N   UNL     1      32.287  -0.754  36.155  0.00  0.00    +0.000 NA
ATOM      2  N   UNL     1      33.215  -0.348  35.204  0.00  0.00    +0.000 N 
ATOM      3  C   UNL     1      33.829  -1.290  34.367  0.00  0.00    +0.000 C 
ATOM      4  O   UNL     1      34.661  -0.928  33.517  0.00  0.00    +0.000 OA
ATOM      5  C   UNL     1      33.495   1.065  35.137  0.00  0.00    +0.000 A 
ATOM      6  N   UNL     1      33.903   1.839  36.120  0.00  0.00    +0.000 NA
ATOM      7  C   UNL     1      34.115   3.119  35.903  0.00  0.00    +0.000 A 
ATOM      8  C   UNL     1      34.552   4.081  36.849  0.00  0.00    +0.000 A 
ATOM      9  C   UNL     1      34.722   5.361  36.466  0.00  0.00    +0.000 A 
ATOM     10  C   UNL     1      34.511   5.861  35.202  0.00  0.00    +0.000 A 
ATOM     11  C   UNL     1      34.083   4.924  34.267  0.00  0.00    +0.000 A 
ATOM     12  C   UNL     1      33.896   3.583  34.637  0.00  0.00    +0.000 A 
ATOM     13  S   UNL     1      33.395   2.155  33.828  0.00  0.00    +0.000 S 
ENDROOT
BRANCH   3  14
ATOM     14  C   UNL     1      33.493  -2.715  34.489  0.00  0.00    +0.000 C 
ATOM     15  C   UNL     1      34.422  -3.463  35.420  0.00  0.00    +0.000 C 
ATOM     16  C   UNL     1      35.005  -4.649  34.722  0.00  0.00    +0.000 C 
ATOM     17  C   UNL     1      33.932  -5.578  34.188  0.00  0.00    +0.000 C 
ATOM     18  C   UNL     1      33.036  -4.771  33.241  0.00  0.00    +0.000 C 
ATOM     19  C   UNL     1      33.546  -3.356  33.111  0.00  0.00    +0.000 C 
ENDBRANCH   3  14
TORSDOF 1
ENDMDL
MODEL 4
REMARK VINA RESULT:      -5.8      6.598      8.058
REMARK  Name = 
REMARK  1 active torsions:
REMARK  status: ('A' for Active; 'I' for Inactive)
REMARK    1  A    between atoms: C_3  and  C_5
REMARK                            x       y       z     vdW  Elec       q    Type
REMARK                         _______ _______ _______ _____ _____    ______ ____
ROOT
ATOM      1  N   UNL     1      20.475  10.292  41.349  0.00  0.00    +0.000 NA
ATOM      2  N   UNL     1      20.266   9.732  40.095  0.00  0.00    +0.000 N 
ATOM      3  C   UNL     1      19.084   9.033  39.819  0.00  0.00    +0.000 C 
ATOM      4  O   UNL     1      18.897   8.530  38.697  0.00  0.00    +0.000 OA
ATOM      5  C   UNL     1      21.317   9.916  39.124  0.00  0.00    +0.000 A 
ATOM      6  N   UNL     1      22.583   9.583  39.254  0.00  0.00    +0.000 NA
ATOM      7  C   UNL     1      23.428   9.817  38.273  0.00  0.00    +0.000 A 
ATOM      8  C   UNL     1      24.815   9.522  38.257  0.00  0.00    +0.000 A 
ATOM      9  C   UNL     1      25.547   9.828  37.168  0.00  0.00    +0.000 A 
ATOM     10  C   UNL     1      25.078  10.420  36.019  0.00  0.00    +0.000 A 
ATOM     11  C   UNL     1      23.718  10.713  36.026  0.00  0.00    +0.000 A 
ATOM     12  C   UNL     1      22.929  10.407  37.147  0.00  0.00    +0.000 A 
ATOM     13  S   UNL     1      21.274  10.593  37.558  0.00  0.00    +0.000 S 
ENDROOT
BRANCH   3  14
ATOM     14  C   UNL     1      18.054   8.888  40.857  0.00  0.00    +0.000 C 
ATOM     15  C   UNL     1      17.922   7.468  41.363  0.00  0.00    +0.000 C 
ATOM     16  C   UNL     1      16.504   7.011  41.250  0.00  0.00    +0.000 C 
ATOM     17  C   UNL     1      15.550   7.928  41.993  0.00  0.00    +0.000 C 
ATOM     18  C   UNL     1      15.716   9.343  41.427  0.00  0.00    +0.000 C 
ATOM     19  C   UNL     1      16.716   9.343  40.295  0.00  0.00    +0.000 C 
ENDBRANCH   3  14
TORSDOF 1
ENDMDL
MODEL 5
REMARK VINA RESULT:      -5.7     21.699     23.874
REMARK  Name = 
REMARK  1 active torsions:
REMARK  status: ('A' for Active; 'I' for Inactive)
REMARK    1  A    between atoms: C_3  and  C_5
REMARK                            x       y       z     vdW  Elec       q    Type
REMARK                         _______ _______ _______ _____ _____    ______ ____
ROOT
ATOM      1  N   UNL     1      29.632  24.706  20.656  0.00  0.00    +0.000 NA
ATOM      2  N   UNL     1      29.002  25.334  21.723  0.00  0.00    +0.000 N 
ATOM      3  C   UNL     1      28.499  26.635  21.582  0.00  0.00    +0.000 C 
ATOM      4  O   UNL     1      27.936  27.198  22.538  0.00  0.00    +0.000 OA
ATOM      5  C   UNL     1      28.903  24.580  22.948  0.00  0.00    +0.000 A 
ATOM      6  N   UNL     1      29.891  24.035  23.626  0.00  0.00    +0.000 NA
ATOM      7  C   UNL     1      29.640  23.371  24.733  0.00  0.00    +0.000 A 
ATOM      8  C   UNL     1      30.586  22.729  25.572  0.00  0.00    +0.000 A 
ATOM      9  C   UNL     1      30.165  22.086  26.678  0.00  0.00    +0.000 A 
ATOM     10  C   UNL     1      28.862  21.979  27.105  0.00  0.00    +0.000 A 
ATOM     11  C   UNL     1      27.927  22.607  26.288  0.00  0.00    +0.000 A 
ATOM     12  C   UNL     1      28.336  23.284  25.127  0.00  0.00    +0.000 A 
ATOM     13  S   UNL     1      27.540  24.160  23.885  0.00  0.00    +0.000 S 
ENDROOT
BRANCH   3  14
ATOM     14  C   UNL     1      28.632  27.343  20.302  0.00  0.00    +0.000 C 
ATOM     15  C   UNL     1      29.852  28.236  20.246  0.00  0.00    +0.000 C 
ATOM     16  C   UNL     1      29.454  29.628  19.874  0.00  0.00    +0.000 C 
ATOM     17  C   UNL     1      28.707  29.671  18.554  0.00  0.00    +0.000 C 
ATOM     18  C   UNL     1      27.476  28.764  18.677  0.00  0.00    +0.000 C 
ATOM     19  C   UNL     1      27.387  28.183  20.068  0.00  0.00    +0.000 C 
ENDBRANCH   3  14
TORSDOF 1
ENDMDL
MODEL 6
REMARK VINA RESULT:      -5.7     22.662     24.901
REMARK  Name = 
REMARK  1 active torsions:
REMARK  status: ('A' for Active; 'I' for Inactive)
REMARK    1  A    between atoms: C_3  and  C_5
REMARK                            x       y       z     vdW  Elec       q    Type
REMARK                         _______ _______ _______ _____ _____    ______ ____
ROOT
ATOM      1  N   UNL     1      28.893  28.464  21.645  0.00  0.00    +0.000 NA
ATOM      2  N   UNL     1      29.094  27.140  21.274  0.00  0.00    +0.000 N 
ATOM      3  C   UNL     1      29.676  26.833  20.036  0.00  0.00    +0.000 C 
ATOM      4  O   UNL     1      29.854  25.648  19.703  0.00  0.00    +0.000 OA
ATOM      5  C   UNL     1      28.676  26.134  22.219  0.00  0.00    +0.000 A 
ATOM      6  N   UNL     1      27.478  25.988  22.743  0.00  0.00    +0.000 NA
ATOM      7  C   UNL     1      27.249  25.017  23.599  0.00  0.00    +0.000 A 
ATOM      8  C   UNL     1      26.023  24.727  24.249  0.00  0.00    +0.000 A 
ATOM      9  C   UNL     1      25.953  23.689  25.105  0.00  0.00    +0.000 A 
ATOM     10  C   UNL     1      26.985  22.840  25.433  0.00  0.00    +0.000 A 
ATOM     11  C   UNL     1      28.191  23.117  24.799  0.00  0.00    +0.000 A 
ATOM     12  C   UNL     1      28.295  24.193  23.903  0.00  0.00    +0.000 A 
ATOM     13  S   UNL     1      29.550  24.860  22.942  0.00  0.00    +0.000 S 
ENDROOT
BRANCH   3  14
ATOM     14  C   UNL     1      30.081  27.910  19.123  0.00  0.00    +0.000 C 
ATOM     15  C   UNL     1      28.974  28.333  18.184  0.00  0.00    +0.000 C 
ATOM     16  C   UNL     1      29.447  28.264  16.767  0.00  0.00    +0.000 C 
ATOM     17  C   UNL     1      30.686  29.109  16.540  0.00  0.00    +0.000 C 
ATOM     18  C   UNL     1      31.774  28.623  17.505  0.00  0.00    +0.000 C 
ATOM     19  C   UNL     1      31.278  27.446  18.308  0.00  0.00    +0.000 C 
ENDBRANCH   3  14
TORSDOF 1
ENDMDL
MODEL 7
REMARK VINA RESULT:      -5.5     18.827     20.767
REMARK  Name = 
REMARK  1 active torsions:
REMARK  status: ('A' for Active; 'I' for Inactive)
REMARK    1  A    between atoms: C_3  and  C_5
REMARK                            x       y       z     vdW  Elec       q    Type
REMARK                         _______ _______ _______ _____ _____    ______ ____
ROOT
ATOM      1  N   UNL     1      29.049  25.255  27.160  0.00  0.00    +0.000 NA
ATOM      2  N   UNL     1      29.468  23.941  26.988  0.00  0.00    +0.000 N 
ATOM      3  C   UNL     1      29.307  23.303  25.750  0.00  0.00    +0.000 C 
ATOM      4  O   UNL     1      29.681  22.127  25.597  0.00  0.00    +0.000 OA
ATOM      5  C   UNL     1      30.062  23.298  28.134  0.00  0.00    +0.000 A 
ATOM      6  N   UNL     1      29.528  23.156  29.328  0.00  0.00    +0.000 NA
ATOM      7  C   UNL     1      30.199  22.543  30.279  0.00  0.00    +0.000 A 
ATOM      8  C   UNL     1      29.768  22.311  31.610  0.00  0.00    +0.000 A 
ATOM      9  C   UNL     1      30.579  21.664  32.468  0.00  0.00    +0.000 A 
ATOM     10  C   UNL     1      31.836  21.181  32.185  0.00  0.00    +0.000 A 
ATOM     11  C   UNL     1      32.267  21.405  30.882  0.00  0.00    +0.000 A 
ATOM     12  C   UNL     1      31.443  22.077  29.964  0.00  0.00    +0.000 A 
ATOM     13  S   UNL     1      31.582  22.545  28.319  0.00  0.00    +0.000 S 
ENDROOT
BRANCH   3  14
ATOM     14  C   UNL     1      28.696  24.021  24.624  0.00  0.00    +0.000 C 
ATOM     15  C   UNL     1      27.185  23.947  24.627  0.00  0.00    +0.000 C 
ATOM     16  C   UNL     1      26.693  23.430  23.314  0.00  0.00    +0.000 C 
ATOM     17  C   UNL     1      27.177  24.277  22.153  0.00  0.00    +0.000 C 
ATOM     18  C   UNL     1      28.710  24.301  22.191  0.00  0.00    +0.000 C 
ATOM     19  C   UNL     1      29.221  23.439  23.321  0.00  0.00    +0.000 C 
ENDBRANCH   3  14
TORSDOF 1
ENDMDL
MODEL 8
REMARK VINA RESULT:      -5.5      2.119      3.159
REMARK  Name = 
REMARK  1 active torsions:
REMARK  status: ('A' for Active; 'I' for Inactive)
REMARK    1  A    between atoms: C_3  and  C_5
REMARK                            x       y       z     vdW  Elec       q    Type
REMARK                         _______ _______ _______ _____ _____    ______ ____
ROOT
ATOM      1  N   UNL     1      17.089   9.524  39.345  0.00  0.00    +0.000 NA
ATOM      2  N   UNL     1      17.990   9.723  38.307  0.00  0.00    +0.000 N 
ATOM      3  C   UNL     1      19.367   9.583  38.528  0.00  0.00    +0.000 C 
ATOM      4  O   UNL     1      20.174   9.763  37.600  0.00  0.00    +0.000 OA
ATOM      5  C   UNL     1      17.430  10.074  37.025  0.00  0.00    +0.000 A 
ATOM      6  N   UNL     1      16.632  11.085  36.759  0.00  0.00    +0.000 NA
ATOM      7  C   UNL     1      16.199  11.275  35.531  0.00  0.00    +0.000 A 
ATOM      8  C   UNL     1      15.338  12.309  35.083  0.00  0.00    +0.000 A 
ATOM      9  C   UNL     1      14.986  12.365  33.784  0.00  0.00    +0.000 A 
ATOM     10  C   UNL     1      15.387  11.491  32.799  0.00  0.00    +0.000 A 
ATOM     11  C   UNL     1      16.232  10.474  33.230  0.00  0.00    +0.000 A 
ATOM     12  C   UNL     1      16.616  10.389  34.578  0.00  0.00    +0.000 A 
ATOM     13  S   UNL     1      17.605   9.332  35.498  0.00  0.00    +0.000 S 
ENDROOT
BRANCH   3  14
ATOM     14  C   UNL     1      19.867   9.221  39.861  0.00  0.00    +0.000 C 
ATOM     15  C   UNL     1      21.324   9.572  40.061  0.00  0.00    +0.000 C 
ATOM     16  C   UNL     1      22.089   8.367  40.503  0.00  0.00    +0.000 C 
ATOM     17  C   UNL     1      21.513   7.763  41.770  0.00  0.00    +0.000 C 
ATOM     18  C   UNL     1      20.044   7.412  41.502  0.00  0.00    +0.000 C 
ATOM     19  C   UNL     1      19.681   7.726  40.071  0.00  0.00    +0.000 C 
ENDBRANCH   3  14
TORSDOF 1
ENDMDL
MODEL 9
REMARK VINA RESULT:      -5.5     21.732     23.067
REMARK  Name = 
REMARK  1 active torsions:
REMARK  status: ('A' for Active; 'I' for Inactive)
REMARK    1  A    between atoms: C_3  and  C_5
REMARK                            x       y       z     vdW  Elec       q    Type
REMARK                         _______ _______ _______ _____ _____    ______ ____
ROOT
ATOM      1  N   UNL     1      15.546 -10.668  27.348  0.00  0.00    +0.000 NA
ATOM      2  N   UNL     1      15.442  -9.520  26.571  0.00  0.00    +0.000 N 
ATOM      3  C   UNL     1      14.199  -9.120  26.063  0.00  0.00    +0.000 C 
ATOM      4  O   UNL     1      14.106  -8.094  25.366  0.00  0.00    +0.000 OA
ATOM      5  C   UNL     1      16.663  -8.792  26.330  0.00  0.00    +0.000 A 
ATOM      6  N   UNL     1      17.774  -9.259  25.803  0.00  0.00    +0.000 NA
ATOM      7  C   UNL     1      18.812  -8.466  25.647  0.00  0.00    +0.000 A 
ATOM      8  C   UNL     1      20.073  -8.813  25.100  0.00  0.00    +0.000 A 
ATOM      9  C   UNL     1      21.039  -7.878  25.009  0.00  0.00    +0.000 A 
ATOM     10  C   UNL     1      20.933  -6.565  25.406  0.00  0.00    +0.000 A 
ATOM     11  C   UNL     1      19.699  -6.216  25.944  0.00  0.00    +0.000 A 
ATOM     12  C   UNL     1      18.673  -7.169  26.052  0.00  0.00    +0.000 A 
ATOM     13  S   UNL     1      17.059  -7.160  26.634  0.00  0.00    +0.000 S 
ENDROOT
BRANCH   3  14
ATOM     14  C   UNL     1      12.994  -9.910  26.352  0.00  0.00    +0.000 C 
ATOM     15  C   UNL     1      12.349 -10.478  25.107  0.00  0.00    +0.000 C 
ATOM     16  C   UNL     1      10.908 -10.086  25.050  0.00  0.00    +0.000 C 
ATOM     17  C   UNL     1      10.150 -10.529  26.287  0.00  0.00    +0.000 C 
ATOM     18  C   UNL     1      10.837  -9.910  27.510  0.00  0.00    +0.000 C 
ATOM     19  C   UNL     1      11.988  -9.033  27.080  0.00  0.00    +0.000 C 
ENDBRANCH   3  14
TORSDOF 1
ENDMDL
MODEL 10
REMARK VINA RESULT:      -5.4     23.919     25.862
REMARK  Name = 
REMARK  1 active torsions:
REMARK  status: ('A' for Active; 'I' for Inactive)
REMARK    1  A    between atoms: C_3  and  C_5
REMARK                            x       y       z     vdW  Elec       q    Type
REMARK                         _______ _______ _______ _____ _____    ______ ____
ROOT
ATOM      1  N   UNL     1      28.161   5.244  13.146  0.00  0.00    +0.000 NA
ATOM      2  N   UNL     1      28.369   6.610  13.290  0.00  0.00    +0.000 N 
ATOM      3  C   UNL     1      28.222   7.220  14.543  0.00  0.00    +0.000 C 
ATOM      4  O   UNL     1      28.407   8.443  14.672  0.00  0.00    +0.000 OA
ATOM      5  C   UNL     1      28.735   7.336  12.099  0.00  0.00    +0.000 A 
ATOM      6  N   UNL     1      28.073   7.380  10.963  0.00  0.00    +0.000 NA
ATOM      7  C   UNL     1      28.538   8.090   9.958  0.00  0.00    +0.000 A 
ATOM      8  C   UNL     1      27.949   8.239   8.677  0.00  0.00    +0.000 A 
ATOM      9  C   UNL     1      28.555   9.007   7.751  0.00  0.00    +0.000 A 
ATOM     10  C   UNL     1      29.735   9.695   7.919  0.00  0.00    +0.000 A 
ATOM     11  C   UNL     1      30.319   9.555   9.173  0.00  0.00    +0.000 A 
ATOM     12  C   UNL     1      29.711   8.760  10.158  0.00  0.00    +0.000 A 
ATOM     13  S   UNL     1      30.082   8.332  11.777  0.00  0.00    +0.000 S 
ENDROOT
BRANCH   3  14
ATOM     14  C   UNL     1      27.850   6.416  15.716  0.00  0.00    +0.000 C 
ATOM     15  C   UNL     1      26.369   6.462  16.015  0.00  0.00    +0.000 C 
ATOM     16  C   UNL     1      26.143   6.880  17.433  0.00  0.00    +0.000 C 
ATOM     17  C   UNL     1      26.853   5.967  18.414  0.00  0.00    +0.000 C 
ATOM     18  C   UNL     1      28.348   5.975  18.072  0.00  0.00    +0.000 C 
ATOM     19  C   UNL     1      28.621   6.920  16.926  0.00  0.00    +0.000 C 
ENDBRANCH   3  14
TORSDOF 1
ENDMDL
