MODEL 1
REMARK VINA RESULT:      -9.4      0.000      0.000
REMARK  Name = 
REMARK  6 active torsions:
REMARK  status: ('A' for Active; 'I' for Inactive)
REMARK    1  A    between atoms: O_2  and  C_3
REMARK    2  A    between atoms: C_9  and  C_10
REMARK    3  A    between atoms: N_12  and  C_13
REMARK    4  A    between atoms: C_13  and  C_14
REMARK    5  A    between atoms: N_26  and  C_27
REMARK    6  A    between atoms: C_27  and  C_28
REMARK                            x       y       z     vdW  Elec       q    Type
REMARK                         _______ _______ _______ _____ _____    ______ ____
ROOT
ATOM      1  C   UNL     1      40.760   0.691  13.221  0.00  0.00    +0.000 A 
ATOM      2  C   UNL     1      40.318  -0.607  13.349  0.00  0.00    +0.000 A 
ATOM      3  C   UNL     1      39.206  -0.968  14.069  0.00  0.00    +0.000 A 
ATOM      4  C   UNL     1      38.467   0.037  14.717  0.00  0.00    +0.000 A 
ATOM      5  C   UNL     1      38.906   1.328  14.592  0.00  0.00    +0.000 A 
ATOM      6  C   UNL     1      40.040   1.677  13.855  0.00  0.00    +0.000 A 
ATOM      7  C   UNL     1      38.040   2.146  15.303  0.00  0.00    +0.000 A 
ATOM      8  C   UNL     1      37.107   1.290  15.830  0.00  0.00    +0.000 A 
ATOM      9  C   UNL     1      35.975   1.784  16.681  0.00  0.00    +0.000 C 
ATOM     10  N   UNL     1      37.377   0.030  15.471  0.00  0.00    +0.000 N 
ENDROOT
BRANCH   7  11
ATOM     11  C   UNL     1      38.132   3.601  15.439  0.00  0.00    +0.000 C 
ATOM     12  O   UNL     1      37.723   4.322  14.495  0.00  0.00    +0.000 OA
ATOM     13  N   UNL     1      38.659   4.219  16.584  0.00  0.00    +0.000 NA
BRANCH  13  14
ATOM     14  C   UNL     1      38.780   5.628  16.788  0.00  0.00    +0.000 C 
BRANCH  14  15
ATOM     15  C   UNL     1      39.803   5.998  17.775  0.00  0.00    +0.000 A 
ATOM     16  C   UNL     1      39.470   6.047  19.106  0.00  0.00    +0.000 A 
ATOM     17  C   UNL     1      40.449   6.402  20.050  0.00  0.00    +0.000 A 
ATOM     18  C   UNL     1      41.732   6.699  19.657  0.00  0.00    +0.000 A 
ATOM     19  C   UNL     1      42.060   6.650  18.333  0.00  0.00    +0.000 A 
ATOM     20  C   UNL     1      43.355   6.946  17.905  0.00  0.00    +0.000 A 
ATOM     21  C   UNL     1      43.658   6.890  16.577  0.00  0.00    +0.000 A 
ATOM     22  C   UNL     1      42.707   6.543  15.649  0.00  0.00    +0.000 A 
ATOM     23  C   UNL     1      41.445   6.257  16.089  0.00  0.00    +0.000 A 
ATOM     24  C   UNL     1      41.086   6.298  17.407  0.00  0.00    +0.000 A 
ENDBRANCH  14  15
ENDBRANCH  13  14
ENDBRANCH   7  11
BRANCH   1  26
ATOM     25  C   UNL     1      42.353   2.334  12.451  0.00  0.00    +0.000 C 
ATOM     26  O   UNL     1      41.909   0.994  12.469  0.00  0.00    +0.000 OA
ENDBRANCH   1  26
BRANCH  10  27
ATOM     27  C   UNL     1      36.593  -1.120  15.856  0.00  0.00    +0.000 C 
BRANCH  27  28
ATOM     28  C   UNL     1      37.166  -1.838  17.011  0.00  0.00    +0.000 A 
ATOM     29  C   UNL     1      37.009  -1.265  18.258  0.00  0.00    +0.000 A 
ATOM     30  C   UNL     1      37.504  -1.848  19.405  0.00  0.00    +0.000 A 
ATOM     31  C   UNL     1      38.194  -3.061  19.346  0.00  0.00    +0.000 A 
ATOM     32  C   UNL     1      38.345  -3.625  18.099  0.00  0.00    +0.000 A 
ATOM     33  C   UNL     1      37.838  -3.021  16.942  0.00  0.00    +0.000 A 
ATOM     34  O   UNL     1      39.053  -4.810  18.299  0.00  0.00    +0.000 OA
ATOM     35  C   UNL     1      39.089  -5.137  19.677  0.00  0.00    +0.000 C 
ATOM     36  O   UNL     1      38.791  -3.874  20.282  0.00  0.00    +0.000 OA
ENDBRANCH  27  28
ENDBRANCH  10  27
TORSDOF 6
ENDMDL
MODEL 2
REMARK VINA RESULT:      -9.3      1.270      2.285
REMARK  Name = 
REMARK  6 active torsions:
REMARK  status: ('A' for Active; 'I' for Inactive)
REMARK    1  A    between atoms: O_2  and  C_3
REMARK    2  A    between atoms: C_9  and  C_10
REMARK    3  A    between atoms: N_12  and  C_13
REMARK    4  A    between atoms: C_13  and  C_14
REMARK    5  A    between atoms: N_26  and  C_27
REMARK    6  A    between atoms: C_27  and  C_28
REMARK                            x       y       z     vdW  Elec       q    Type
REMARK                         _______ _______ _______ _____ _____    ______ ____
ROOT
ATOM      1  C   UNL     1      38.949   1.032  12.252  0.00  0.00    +0.000 A 
ATOM      2  C   UNL     1      38.550  -0.286  12.247  0.00  0.00    +0.000 A 
ATOM      3  C   UNL     1      37.692  -0.827  13.173  0.00  0.00    +0.000 A 
ATOM      4  C   UNL     1      37.185   0.002  14.188  0.00  0.00    +0.000 A 
ATOM      5  C   UNL     1      37.582   1.312  14.194  0.00  0.00    +0.000 A 
ATOM      6  C   UNL     1      38.455   1.846  13.245  0.00  0.00    +0.000 A 
ATOM      7  C   UNL     1      36.969   1.940  15.269  0.00  0.00    +0.000 A 
ATOM      8  C   UNL     1      36.221   0.958  15.865  0.00  0.00    +0.000 A 
ATOM      9  C   UNL     1      35.391   1.229  17.085  0.00  0.00    +0.000 C 
ATOM     10  N   UNL     1      36.361  -0.198  15.207  0.00  0.00    +0.000 N 
ENDROOT
BRANCH   7  11
ATOM     11  C   UNL     1      37.112   3.346  15.652  0.00  0.00    +0.000 C 
ATOM     12  O   UNL     1      36.323   4.189  15.158  0.00  0.00    +0.000 OA
ATOM     13  N   UNL     1      38.098   3.786  16.550  0.00  0.00    +0.000 NA
BRANCH  13  14
ATOM     14  C   UNL     1      38.297   5.136  16.970  0.00  0.00    +0.000 C 
BRANCH  14  15
ATOM     15  C   UNL     1      39.672   5.618  16.783  0.00  0.00    +0.000 A 
ATOM     16  C   UNL     1      40.204   5.670  15.519  0.00  0.00    +0.000 A 
ATOM     17  C   UNL     1      41.519   6.131  15.340  0.00  0.00    +0.000 A 
ATOM     18  C   UNL     1      42.278   6.531  16.415  0.00  0.00    +0.000 A 
ATOM     19  C   UNL     1      41.747   6.479  17.671  0.00  0.00    +0.000 A 
ATOM     20  C   UNL     1      42.493   6.878  18.781  0.00  0.00    +0.000 A 
ATOM     21  C   UNL     1      41.940   6.817  20.026  0.00  0.00    +0.000 A 
ATOM     22  C   UNL     1      40.655   6.368  20.207  0.00  0.00    +0.000 A 
ATOM     23  C   UNL     1      39.942   5.981  19.107  0.00  0.00    +0.000 A 
ATOM     24  C   UNL     1      40.445   6.021  17.837  0.00  0.00    +0.000 A 
ENDBRANCH  14  15
ENDBRANCH  13  14
ENDBRANCH   7  11
BRANCH   1  26
ATOM     25  C   UNL     1      40.971   0.749  10.963  0.00  0.00    +0.000 C 
ATOM     26  O   UNL     1      39.832   1.524  11.275  0.00  0.00    +0.000 OA
ENDBRANCH   1  26
BRANCH  10  27
ATOM     27  C   UNL     1      35.711  -1.434  15.571  0.00  0.00    +0.000 C 
BRANCH  27  28
ATOM     28  C   UNL     1      36.567  -2.304  16.402  0.00  0.00    +0.000 A 
ATOM     29  C   UNL     1      37.134  -3.407  15.794  0.00  0.00    +0.000 A 
ATOM     30  C   UNL     1      37.948  -4.287  16.474  0.00  0.00    +0.000 A 
ATOM     31  C   UNL     1      38.235  -4.090  17.827  0.00  0.00    +0.000 A 
ATOM     32  C   UNL     1      37.665  -2.988  18.425  0.00  0.00    +0.000 A 
ATOM     33  C   UNL     1      36.838  -2.103  17.721  0.00  0.00    +0.000 A 
ATOM     34  O   UNL     1      38.092  -3.010  19.752  0.00  0.00    +0.000 OA
ATOM     35  C   UNL     1      39.150  -3.938  19.915  0.00  0.00    +0.000 C 
ATOM     36  O   UNL     1      38.988  -4.767  18.759  0.00  0.00    +0.000 OA
ENDBRANCH  27  28
ENDBRANCH  10  27
TORSDOF 6
ENDMDL
MODEL 3
REMARK VINA RESULT:      -9.3      1.341      2.374
REMARK  Name = 
REMARK  6 active torsions:
REMARK  status: ('A' for Active; 'I' for Inactive)
REMARK    1  A    between atoms: O_2  and  C_3
REMARK    2  A    between atoms: C_9  and  C_10
REMARK    3  A    between atoms: N_12  and  C_13
REMARK    4  A    between atoms: C_13  and  C_14
REMARK    5  A    between atoms: N_26  and  C_27
REMARK    6  A    between atoms: C_27  and  C_28
REMARK                            x       y       z     vdW  Elec       q    Type
REMARK                         _______ _______ _______ _____ _____    ______ ____
ROOT
ATOM      1  C   UNL     1      40.401   1.147  13.364  0.00  0.00    +0.000 A 
ATOM      2  C   UNL     1      40.035  -0.176  13.480  0.00  0.00    +0.000 A 
ATOM      3  C   UNL     1      38.934  -0.606  14.180  0.00  0.00    +0.000 A 
ATOM      4  C   UNL     1      38.125   0.350  14.818  0.00  0.00    +0.000 A 
ATOM      5  C   UNL     1      38.488   1.666  14.704  0.00  0.00    +0.000 A 
ATOM      6  C   UNL     1      39.611   2.085  13.989  0.00  0.00    +0.000 A 
ATOM      7  C   UNL     1      37.562   2.427  15.402  0.00  0.00    +0.000 A 
ATOM      8  C   UNL     1      36.674   1.514  15.910  0.00  0.00    +0.000 A 
ATOM      9  C   UNL     1      35.499   1.936  16.743  0.00  0.00    +0.000 C 
ATOM     10  N   UNL     1      37.024   0.275  15.552  0.00  0.00    +0.000 N 
ENDROOT
BRANCH   7  11
ATOM     11  C   UNL     1      37.564   3.885  15.544  0.00  0.00    +0.000 C 
ATOM     12  O   UNL     1      36.803   4.563  14.810  0.00  0.00    +0.000 OA
ATOM     13  N   UNL     1      38.384   4.550  16.470  0.00  0.00    +0.000 NA
BRANCH  13  14
ATOM     14  C   UNL     1      38.440   5.964  16.664  0.00  0.00    +0.000 C 
BRANCH  14  15
ATOM     15  C   UNL     1      39.106   6.365  17.911  0.00  0.00    +0.000 A 
ATOM     16  C   UNL     1      40.289   5.768  18.267  0.00  0.00    +0.000 A 
ATOM     17  C   UNL     1      40.925   6.151  19.460  0.00  0.00    +0.000 A 
ATOM     18  C   UNL     1      40.379   7.117  20.271  0.00  0.00    +0.000 A 
ATOM     19  C   UNL     1      39.203   7.710  19.914  0.00  0.00    +0.000 A 
ATOM     20  C   UNL     1      38.624   8.694  20.718  0.00  0.00    +0.000 A 
ATOM     21  C   UNL     1      37.448   9.272  20.340  0.00  0.00    +0.000 A 
ATOM     22  C   UNL     1      36.821   8.902  19.175  0.00  0.00    +0.000 A 
ATOM     23  C   UNL     1      37.404   7.936  18.403  0.00  0.00    +0.000 A 
ATOM     24  C   UNL     1      38.581   7.324  18.733  0.00  0.00    +0.000 A 
ENDBRANCH  14  15
ENDBRANCH  13  14
ENDBRANCH   7  11
BRANCH   1  26
ATOM     25  C   UNL     1      42.800   1.086  13.105  0.00  0.00    +0.000 C 
ATOM     26  O   UNL     1      41.542   1.521  12.634  0.00  0.00    +0.000 OA
ENDBRANCH   1  26
BRANCH  10  27
ATOM     27  C   UNL     1      36.304  -0.921  15.920  0.00  0.00    +0.000 C 
BRANCH  27  28
ATOM     28  C   UNL     1      36.934  -1.641  17.044  0.00  0.00    +0.000 A 
ATOM     29  C   UNL     1      36.748  -1.126  18.312  0.00  0.00    +0.000 A 
ATOM     30  C   UNL     1      37.290  -1.717  19.434  0.00  0.00    +0.000 A 
ATOM     31  C   UNL     1      38.059  -2.877  19.327  0.00  0.00    +0.000 A 
ATOM     32  C   UNL     1      38.239  -3.383  18.058  0.00  0.00    +0.000 A 
ATOM     33  C   UNL     1      37.683  -2.773  16.927  0.00  0.00    +0.000 A 
ATOM     34  O   UNL     1      39.028  -4.523  18.210  0.00  0.00    +0.000 OA
ATOM     35  C   UNL     1      39.096  -4.898  19.575  0.00  0.00    +0.000 C 
ATOM     36  O   UNL     1      38.718  -3.682  20.228  0.00  0.00    +0.000 OA
ENDBRANCH  27  28
ENDBRANCH  10  27
TORSDOF 6
ENDMDL
MODEL 4
REMARK VINA RESULT:      -9.0      1.733      1.977
REMARK  Name = 
REMARK  6 active torsions:
REMARK  status: ('A' for Active; 'I' for Inactive)
REMARK    1  A    between atoms: O_2  and  C_3
REMARK    2  A    between atoms: C_9  and  C_10
REMARK    3  A    between atoms: N_12  and  C_13
REMARK    4  A    between atoms: C_13  and  C_14
REMARK    5  A    between atoms: N_26  and  C_27
REMARK    6  A    between atoms: C_27  and  C_28
REMARK                            x       y       z     vdW  Elec       q    Type
REMARK                         _______ _______ _______ _____ _____    ______ ____
ROOT
ATOM      1  C   UNL     1      38.715   1.492  11.479  0.00  0.00    +0.000 A 
ATOM      2  C   UNL     1      37.915   0.390  11.684  0.00  0.00    +0.000 A 
ATOM      3  C   UNL     1      37.118   0.220  12.789  0.00  0.00    +0.000 A 
ATOM      4  C   UNL     1      37.109   1.223  13.774  0.00  0.00    +0.000 A 
ATOM      5  C   UNL     1      37.905   2.318  13.572  0.00  0.00    +0.000 A 
ATOM      6  C   UNL     1      38.710   2.475  12.442  0.00  0.00    +0.000 A 
ATOM      7  C   UNL     1      37.744   3.171  14.655  0.00  0.00    +0.000 A 
ATOM      8  C   UNL     1      36.843   2.533  15.468  0.00  0.00    +0.000 A 
ATOM      9  C   UNL     1      36.392   3.131  16.768  0.00  0.00    +0.000 C 
ATOM     10  N   UNL     1      36.472   1.367  14.929  0.00  0.00    +0.000 N 
ENDROOT
BRANCH   7  11
ATOM     11  C   UNL     1      38.406   4.462  14.852  0.00  0.00    +0.000 C 
ATOM     12  O   UNL     1      37.925   5.478  14.292  0.00  0.00    +0.000 OA
ATOM     13  N   UNL     1      39.558   4.604  15.643  0.00  0.00    +0.000 NA
BRANCH  13  14
ATOM     14  C   UNL     1      40.257   5.827  15.880  0.00  0.00    +0.000 C 
BRANCH  14  15
ATOM     15  C   UNL     1      40.545   6.080  17.299  0.00  0.00    +0.000 A 
ATOM     16  C   UNL     1      39.540   5.953  18.225  0.00  0.00    +0.000 A 
ATOM     17  C   UNL     1      39.815   6.195  19.581  0.00  0.00    +0.000 A 
ATOM     18  C   UNL     1      41.078   6.556  19.991  0.00  0.00    +0.000 A 
ATOM     19  C   UNL     1      42.075   6.681  19.068  0.00  0.00    +0.000 A 
ATOM     20  C   UNL     1      43.366   7.045  19.453  0.00  0.00    +0.000 A 
ATOM     21  C   UNL     1      44.346   7.164  18.512  0.00  0.00    +0.000 A 
ATOM     22  C   UNL     1      44.083   6.929  17.185  0.00  0.00    +0.000 A 
ATOM     23  C   UNL     1      42.812   6.573  16.828  0.00  0.00    +0.000 A 
ATOM     24  C   UNL     1      41.793   6.440  17.729  0.00  0.00    +0.000 A 
ENDBRANCH  14  15
ENDBRANCH  13  14
ENDBRANCH   7  11
BRANCH   1  26
ATOM     25  C   UNL     1      38.977   2.304   9.220  0.00  0.00    +0.000 C 
ATOM     26  O   UNL     1      39.510   1.604  10.325  0.00  0.00    +0.000 OA
ENDBRANCH   1  26
BRANCH  10  27
ATOM     27  C   UNL     1      35.536   0.445  15.526  0.00  0.00    +0.000 C 
BRANCH  27  28
ATOM     28  C   UNL     1      36.110  -0.287  16.672  0.00  0.00    +0.000 A 
ATOM     29  C   UNL     1      35.527  -0.091  17.908  0.00  0.00    +0.000 A 
ATOM     30  C   UNL     1      35.982  -0.722  19.046  0.00  0.00    +0.000 A 
ATOM     31  C   UNL     1      37.068  -1.599  18.988  0.00  0.00    +0.000 A 
ATOM     32  C   UNL     1      37.642  -1.788  17.751  0.00  0.00    +0.000 A 
ATOM     33  C   UNL     1      37.171  -1.139  16.603  0.00  0.00    +0.000 A 
ATOM     34  O   UNL     1      38.688  -2.690  17.950  0.00  0.00    +0.000 OA
ATOM     35  C   UNL     1      38.587  -3.288  19.230  0.00  0.00    +0.000 C 
ATOM     36  O   UNL     1      37.739  -2.361  19.917  0.00  0.00    +0.000 OA
ENDBRANCH  27  28
ENDBRANCH  10  27
TORSDOF 6
ENDMDL
MODEL 5
REMARK VINA RESULT:      -8.6      2.381      5.103
REMARK  Name = 
REMARK  6 active torsions:
REMARK  status: ('A' for Active; 'I' for Inactive)
REMARK    1  A    between atoms: O_2  and  C_3
REMARK    2  A    between atoms: C_9  and  C_10
REMARK    3  A    between atoms: N_12  and  C_13
REMARK    4  A    between atoms: C_13  and  C_14
REMARK    5  A    between atoms: N_26  and  C_27
REMARK    6  A    between atoms: C_27  and  C_28
REMARK                            x       y       z     vdW  Elec       q    Type
REMARK                         _______ _______ _______ _____ _____    ______ ____
ROOT
ATOM      1  C   UNL     1      35.767   0.271  16.996  0.00  0.00    +0.000 A 
ATOM      2  C   UNL     1      35.820  -0.822  16.161  0.00  0.00    +0.000 A 
ATOM      3  C   UNL     1      36.367  -0.795  14.901  0.00  0.00    +0.000 A 
ATOM      4  C   UNL     1      36.907   0.413  14.427  0.00  0.00    +0.000 A 
ATOM      5  C   UNL     1      36.854   1.501  15.257  0.00  0.00    +0.000 A 
ATOM      6  C   UNL     1      36.294   1.455  16.534  0.00  0.00    +0.000 A 
ATOM      7  C   UNL     1      37.437   2.572  14.595  0.00  0.00    +0.000 A 
ATOM      8  C   UNL     1      37.817   2.065  13.379  0.00  0.00    +0.000 A 
ATOM      9  C   UNL     1      38.496   2.916  12.347  0.00  0.00    +0.000 C 
ATOM     10  N   UNL     1      37.493   0.771  13.293  0.00  0.00    +0.000 N 
ENDROOT
BRANCH   7  11
ATOM     11  C   UNL     1      37.594   3.933  15.113  0.00  0.00    +0.000 C 
ATOM     12  O   UNL     1      36.783   4.817  14.743  0.00  0.00    +0.000 OA
ATOM     13  N   UNL     1      38.617   4.284  16.008  0.00  0.00    +0.000 NA
BRANCH  13  14
ATOM     14  C   UNL     1      38.833   5.586  16.555  0.00  0.00    +0.000 C 
BRANCH  14  15
ATOM     15  C   UNL     1      40.249   5.967  16.637  0.00  0.00    +0.000 A 
ATOM     16  C   UNL     1      40.989   6.071  15.485  0.00  0.00    +0.000 A 
ATOM     17  C   UNL     1      42.344   6.436  15.564  0.00  0.00    +0.000 A 
ATOM     18  C   UNL     1      42.935   6.691  16.779  0.00  0.00    +0.000 A 
ATOM     19  C   UNL     1      42.198   6.587  17.922  0.00  0.00    +0.000 A 
ATOM     20  C   UNL     1      42.771   6.840  19.169  0.00  0.00    +0.000 A 
ATOM     21  C   UNL     1      42.014   6.730  20.298  0.00  0.00    +0.000 A 
ATOM     22  C   UNL     1      40.689   6.375  20.228  0.00  0.00    +0.000 A 
ATOM     23  C   UNL     1      40.147   6.131  18.997  0.00  0.00    +0.000 A 
ATOM     24  C   UNL     1      40.859   6.226  17.834  0.00  0.00    +0.000 A 
ENDBRANCH  14  15
ENDBRANCH  13  14
ENDBRANCH   7  11
BRANCH   1  26
ATOM     25  C   UNL     1      35.901  -0.532  19.269  0.00  0.00    +0.000 C 
ATOM     26  O   UNL     1      35.191   0.177  18.276  0.00  0.00    +0.000 OA
ENDBRANCH   1  26
BRANCH  10  27
ATOM     27  C   UNL     1      37.751  -0.066  12.145  0.00  0.00    +0.000 C 
BRANCH  27  28
ATOM     28  C   UNL     1      39.018  -0.814  12.259  0.00  0.00    +0.000 A 
ATOM     29  C   UNL     1      38.945  -2.130  12.674  0.00  0.00    +0.000 A 
ATOM     30  C   UNL     1      40.065  -2.921  12.816  0.00  0.00    +0.000 A 
ATOM     31  C   UNL     1      41.337  -2.412  12.540  0.00  0.00    +0.000 A 
ATOM     32  C   UNL     1      41.399  -1.099  12.128  0.00  0.00    +0.000 A 
ATOM     33  C   UNL     1      40.253  -0.306  11.989  0.00  0.00    +0.000 A 
ATOM     34  O   UNL     1      42.751  -0.829  11.920  0.00  0.00    +0.000 OA
ATOM     35  C   UNL     1      43.500  -2.031  11.912  0.00  0.00    +0.000 C 
ATOM     36  O   UNL     1      42.610  -2.930  12.583  0.00  0.00    +0.000 OA
ENDBRANCH  27  28
ENDBRANCH  10  27
TORSDOF 6
ENDMDL
MODEL 6
REMARK VINA RESULT:      -8.5      2.796      5.348
REMARK  Name = 
REMARK  6 active torsions:
REMARK  status: ('A' for Active; 'I' for Inactive)
REMARK    1  A    between atoms: O_2  and  C_3
REMARK    2  A    between atoms: C_9  and  C_10
REMARK    3  A    between atoms: N_12  and  C_13
REMARK    4  A    between atoms: C_13  and  C_14
REMARK    5  A    between atoms: N_26  and  C_27
REMARK    6  A    between atoms: C_27  and  C_28
REMARK                            x       y       z     vdW  Elec       q    Type
REMARK                         _______ _______ _______ _____ _____    ______ ____
ROOT
ATOM      1  C   UNL     1      35.835   0.739  17.010  0.00  0.00    +0.000 A 
ATOM      2  C   UNL     1      35.925  -0.352  16.174  0.00  0.00    +0.000 A 
ATOM      3  C   UNL     1      36.287  -0.273  14.852  0.00  0.00    +0.000 A 
ATOM      4  C   UNL     1      36.586   0.988  14.308  0.00  0.00    +0.000 A 
ATOM      5  C   UNL     1      36.496   2.073  15.138  0.00  0.00    +0.000 A 
ATOM      6  C   UNL     1      36.126   1.975  16.481  0.00  0.00    +0.000 A 
ATOM      7  C   UNL     1      36.829   3.202  14.403  0.00  0.00    +0.000 A 
ATOM      8  C   UNL     1      37.107   2.730  13.147  0.00  0.00    +0.000 A 
ATOM      9  C   UNL     1      37.516   3.647  12.032  0.00  0.00    +0.000 C 
ATOM     10  N   UNL     1      36.957   1.402  13.105  0.00  0.00    +0.000 N 
ENDROOT
BRANCH   7  11
ATOM     11  C   UNL     1      36.866   4.581  14.896  0.00  0.00    +0.000 C 
ATOM     12  O   UNL     1      35.924   5.355  14.594  0.00  0.00    +0.000 OA
ATOM     13  N   UNL     1      37.915   5.068  15.693  0.00  0.00    +0.000 NA
BRANCH  13  14
ATOM     14  C   UNL     1      38.019   6.396  16.209  0.00  0.00    +0.000 C 
BRANCH  14  15
ATOM     15  C   UNL     1      38.706   6.477  17.504  0.00  0.00    +0.000 A 
ATOM     16  C   UNL     1      39.730   5.605  17.781  0.00  0.00    +0.000 A 
ATOM     17  C   UNL     1      40.387   5.683  19.021  0.00  0.00    +0.000 A 
ATOM     18  C   UNL     1      40.019   6.620  19.957  0.00  0.00    +0.000 A 
ATOM     19  C   UNL     1      39.001   7.486  19.679  0.00  0.00    +0.000 A 
ATOM     20  C   UNL     1      38.606   8.448  20.609  0.00  0.00    +0.000 A 
ATOM     21  C   UNL     1      37.586   9.302  20.308  0.00  0.00    +0.000 A 
ATOM     22  C   UNL     1      36.939   9.232  19.098  0.00  0.00    +0.000 A 
ATOM     23  C   UNL     1      37.342   8.282  18.201  0.00  0.00    +0.000 A 
ATOM     24  C   UNL     1      38.357   7.401  18.451  0.00  0.00    +0.000 A 
ENDBRANCH  14  15
ENDBRANCH  13  14
ENDBRANCH   7  11
BRANCH   1  26
ATOM     25  C   UNL     1      36.099  -0.412  19.115  0.00  0.00    +0.000 C 
ATOM     26  O   UNL     1      35.457   0.590  18.355  0.00  0.00    +0.000 OA
ENDBRANCH   1  26
BRANCH  10  27
ATOM     27  C   UNL     1      37.170   0.587  11.932  0.00  0.00    +0.000 C 
BRANCH  27  28
ATOM     28  C   UNL     1      38.488  -0.076  11.932  0.00  0.00    +0.000 A 
ATOM     29  C   UNL     1      39.558   0.634  11.423  0.00  0.00    +0.000 A 
ATOM     30  C   UNL     1      40.833   0.113  11.373  0.00  0.00    +0.000 A 
ATOM     31  C   UNL     1      41.094  -1.176  11.844  0.00  0.00    +0.000 A 
ATOM     32  C   UNL     1      40.021  -1.877  12.350  0.00  0.00    +0.000 A 
ATOM     33  C   UNL     1      38.731  -1.335  12.394  0.00  0.00    +0.000 A 
ATOM     34  O   UNL     1      40.527  -3.113  12.750  0.00  0.00    +0.000 OA
ATOM     35  C   UNL     1      41.943  -3.083  12.772  0.00  0.00    +0.000 C 
ATOM     36  O   UNL     1      42.222  -1.959  11.931  0.00  0.00    +0.000 OA
ENDBRANCH  27  28
ENDBRANCH  10  27
TORSDOF 6
ENDMDL
MODEL 7
REMARK VINA RESULT:      -8.5      2.478      4.839
REMARK  Name = 
REMARK  6 active torsions:
REMARK  status: ('A' for Active; 'I' for Inactive)
REMARK    1  A    between atoms: O_2  and  C_3
REMARK    2  A    between atoms: C_9  and  C_10
REMARK    3  A    between atoms: N_12  and  C_13
REMARK    4  A    between atoms: C_13  and  C_14
REMARK    5  A    between atoms: N_26  and  C_27
REMARK    6  A    between atoms: C_27  and  C_28
REMARK                            x       y       z     vdW  Elec       q    Type
REMARK                         _______ _______ _______ _____ _____    ______ ____
ROOT
ATOM      1  C   UNL     1      35.577  -0.332  16.455  0.00  0.00    +0.000 A 
ATOM      2  C   UNL     1      36.013  -1.357  15.645  0.00  0.00    +0.000 A 
ATOM      3  C   UNL     1      36.947  -1.201  14.651  0.00  0.00    +0.000 A 
ATOM      4  C   UNL     1      37.499   0.074  14.439  0.00  0.00    +0.000 A 
ATOM      5  C   UNL     1      37.067   1.094  15.243  0.00  0.00    +0.000 A 
ATOM      6  C   UNL     1      36.115   0.917  16.250  0.00  0.00    +0.000 A 
ATOM      7  C   UNL     1      37.734   2.250  14.864  0.00  0.00    +0.000 A 
ATOM      8  C   UNL     1      38.548   1.859  13.833  0.00  0.00    +0.000 A 
ATOM      9  C   UNL     1      39.452   2.829  13.130  0.00  0.00    +0.000 C 
ATOM     10  N   UNL     1      38.396   0.553  13.589  0.00  0.00    +0.000 N 
ENDROOT
BRANCH   7  11
ATOM     11  C   UNL     1      37.578   3.579  15.459  0.00  0.00    +0.000 C 
ATOM     12  O   UNL     1      36.697   4.346  14.999  0.00  0.00    +0.000 OA
ATOM     13  N   UNL     1      38.376   4.025  16.525  0.00  0.00    +0.000 NA
BRANCH  13  14
ATOM     14  C   UNL     1      38.283   5.304  17.155  0.00  0.00    +0.000 C 
BRANCH  14  15
ATOM     15  C   UNL     1      39.518   5.726  17.828  0.00  0.00    +0.000 A 
ATOM     16  C   UNL     1      39.541   5.828  19.196  0.00  0.00    +0.000 A 
ATOM     17  C   UNL     1      40.724   6.231  19.840  0.00  0.00    +0.000 A 
ATOM     18  C   UNL     1      41.855   6.523  19.115  0.00  0.00    +0.000 A 
ATOM     19  C   UNL     1      41.830   6.421  17.755  0.00  0.00    +0.000 A 
ATOM     20  C   UNL     1      42.964   6.711  16.994  0.00  0.00    +0.000 A 
ATOM     21  C   UNL     1      42.914   6.601  15.636  0.00  0.00    +0.000 A 
ATOM     22  C   UNL     1      41.761   6.207  15.001  0.00  0.00    +0.000 A 
ATOM     23  C   UNL     1      40.662   5.928  15.765  0.00  0.00    +0.000 A 
ATOM     24  C   UNL     1      40.656   6.021  17.128  0.00  0.00    +0.000 A 
ENDBRANCH  14  15
ENDBRANCH  13  14
ENDBRANCH   7  11
BRANCH   1  26
ATOM     25  C   UNL     1      33.826  -1.726  17.361  0.00  0.00    +0.000 C 
ATOM     26  O   UNL     1      34.616  -0.559  17.455  0.00  0.00    +0.000 OA
ENDBRANCH   1  26
BRANCH  10  27
ATOM     27  C   UNL     1      39.104  -0.180  12.566  0.00  0.00    +0.000 C 
BRANCH  27  28
ATOM     28  C   UNL     1      40.445  -0.615  13.003  0.00  0.00    +0.000 A 
ATOM     29  C   UNL     1      40.519  -1.422  14.122  0.00  0.00    +0.000 A 
ATOM     30  C   UNL     1      41.719  -1.886  14.618  0.00  0.00    +0.000 A 
ATOM     31  C   UNL     1      42.924  -1.550  13.996  0.00  0.00    +0.000 A 
ATOM     32  C   UNL     1      42.840  -0.746  12.881  0.00  0.00    +0.000 A 
ATOM     33  C   UNL     1      41.614  -0.281  12.388  0.00  0.00    +0.000 A 
ATOM     34  O   UNL     1      44.152  -0.555  12.448  0.00  0.00    +0.000 OA
ATOM     35  C   UNL     1      45.023  -1.464  13.098  0.00  0.00    +0.000 C 
ATOM     36  O   UNL     1      44.246  -1.844  14.238  0.00  0.00    +0.000 OA
ENDBRANCH  27  28
ENDBRANCH  10  27
TORSDOF 6
ENDMDL
MODEL 8
REMARK VINA RESULT:      -8.2      3.570      9.235
REMARK  Name = 
REMARK  6 active torsions:
REMARK  status: ('A' for Active; 'I' for Inactive)
REMARK    1  A    between atoms: O_2  and  C_3
REMARK    2  A    between atoms: C_9  and  C_10
REMARK    3  A    between atoms: N_12  and  C_13
REMARK    4  A    between atoms: C_13  and  C_14
REMARK    5  A    between atoms: N_26  and  C_27
REMARK    6  A    between atoms: C_27  and  C_28
REMARK                            x       y       z     vdW  Elec       q    Type
REMARK                         _______ _______ _______ _____ _____    ______ ____
ROOT
ATOM      1  C   UNL     1      42.581   6.580  14.478  0.00  0.00    +0.000 A 
ATOM      2  C   UNL     1      43.187   7.091  15.604  0.00  0.00    +0.000 A 
ATOM      3  C   UNL     1      42.671   6.970  16.871  0.00  0.00    +0.000 A 
ATOM      4  C   UNL     1      41.454   6.287  17.040  0.00  0.00    +0.000 A 
ATOM      5  C   UNL     1      40.851   5.778  15.921  0.00  0.00    +0.000 A 
ATOM      6  C   UNL     1      41.390   5.911  14.640  0.00  0.00    +0.000 A 
ATOM      7  C   UNL     1      39.677   5.151  16.315  0.00  0.00    +0.000 A 
ATOM      8  C   UNL     1      39.634   5.318  17.675  0.00  0.00    +0.000 A 
ATOM      9  C   UNL     1      38.503   4.777  18.500  0.00  0.00    +0.000 C 
ATOM     10  N   UNL     1      40.704   5.999  18.095  0.00  0.00    +0.000 N 
ENDROOT
BRANCH   7  11
ATOM     11  C   UNL     1      38.720   4.471  15.441  0.00  0.00    +0.000 C 
ATOM     12  O   UNL     1      38.031   5.160  14.648  0.00  0.00    +0.000 OA
ATOM     13  N   UNL     1      38.544   3.077  15.457  0.00  0.00    +0.000 NA
BRANCH  13  14
ATOM     14  C   UNL     1      37.632   2.345  14.636  0.00  0.00    +0.000 C 
BRANCH  14  15
ATOM     15  C   UNL     1      36.687   1.515  15.395  0.00  0.00    +0.000 A 
ATOM     16  C   UNL     1      35.873   2.103  16.331  0.00  0.00    +0.000 A 
ATOM     17  C   UNL     1      34.969   1.309  17.057  0.00  0.00    +0.000 A 
ATOM     18  C   UNL     1      34.889  -0.046  16.839  0.00  0.00    +0.000 A 
ATOM     19  C   UNL     1      35.699  -0.628  15.908  0.00  0.00    +0.000 A 
ATOM     20  C   UNL     1      35.641  -2.001  15.666  0.00  0.00    +0.000 A 
ATOM     21  C   UNL     1      36.461  -2.559  14.729  0.00  0.00    +0.000 A 
ATOM     22  C   UNL     1      37.347  -1.789  14.017  0.00  0.00    +0.000 A 
ATOM     23  C   UNL     1      37.388  -0.446  14.269  0.00  0.00    +0.000 A 
ATOM     24  C   UNL     1      36.590   0.165  15.195  0.00  0.00    +0.000 A 
ENDBRANCH  14  15
ENDBRANCH  13  14
ENDBRANCH   7  11
BRANCH   1  26
ATOM     25  C   UNL     1      44.528   7.097  13.146  0.00  0.00    +0.000 C 
ATOM     26  O   UNL     1      43.163   6.740  13.208  0.00  0.00    +0.000 OA
ENDBRANCH   1  26
BRANCH  10  27
ATOM     27  C   UNL     1      40.969   6.348  19.471  0.00  0.00    +0.000 C 
BRANCH  27  28
ATOM     28  C   UNL     1      40.377   7.645  19.854  0.00  0.00    +0.000 A 
ATOM     29  C   UNL     1      39.113   7.626  20.412  0.00  0.00    +0.000 A 
ATOM     30  C   UNL     1      38.465   8.777  20.806  0.00  0.00    +0.000 A 
ATOM     31  C   UNL     1      39.073  10.025  20.652  0.00  0.00    +0.000 A 
ATOM     32  C   UNL     1      40.331  10.033  20.094  0.00  0.00    +0.000 A 
ATOM     33  C   UNL     1      40.979   8.856  19.697  0.00  0.00    +0.000 A 
ATOM     34  O   UNL     1      40.719  11.373  20.045  0.00  0.00    +0.000 OA
ATOM     35  C   UNL     1      39.847  12.167  20.830  0.00  0.00    +0.000 C 
ATOM     36  O   UNL     1      38.699  11.319  20.936  0.00  0.00    +0.000 OA
ENDBRANCH  27  28
ENDBRANCH  10  27
TORSDOF 6
ENDMDL
MODEL 9
REMARK VINA RESULT:      -8.2      3.462      9.302
REMARK  Name = 
REMARK  6 active torsions:
REMARK  status: ('A' for Active; 'I' for Inactive)
REMARK    1  A    between atoms: O_2  and  C_3
REMARK    2  A    between atoms: C_9  and  C_10
REMARK    3  A    between atoms: N_12  and  C_13
REMARK    4  A    between atoms: C_13  and  C_14
REMARK    5  A    between atoms: N_26  and  C_27
REMARK    6  A    between atoms: C_27  and  C_28
REMARK                            x       y       z     vdW  Elec       q    Type
REMARK                         _______ _______ _______ _____ _____    ______ ____
ROOT
ATOM      1  C   UNL     1      43.101   7.074  15.198  0.00  0.00    +0.000 A 
ATOM      2  C   UNL     1      43.513   7.546  16.424  0.00  0.00    +0.000 A 
ATOM      3  C   UNL     1      42.827   7.333  17.595  0.00  0.00    +0.000 A 
ATOM      4  C   UNL     1      41.634   6.591  17.551  0.00  0.00    +0.000 A 
ATOM      5  C   UNL     1      41.223   6.121  16.332  0.00  0.00    +0.000 A 
ATOM      6  C   UNL     1      41.933   6.348  15.152  0.00  0.00    +0.000 A 
ATOM      7  C   UNL     1      40.037   5.425  16.520  0.00  0.00    +0.000 A 
ATOM      8  C   UNL     1      39.792   5.513  17.866  0.00  0.00    +0.000 A 
ATOM      9  C   UNL     1      38.582   4.881  18.489  0.00  0.00    +0.000 C 
ATOM     10  N   UNL     1      40.756   6.214  18.470  0.00  0.00    +0.000 N 
ENDROOT
BRANCH   7  11
ATOM     11  C   UNL     1      39.249   4.756  15.483  0.00  0.00    +0.000 C 
ATOM     12  O   UNL     1      38.532   5.454  14.725  0.00  0.00    +0.000 OA
ATOM     13  N   UNL     1      39.267   3.363  15.306  0.00  0.00    +0.000 NA
BRANCH  13  14
ATOM     14  C   UNL     1      38.527   2.641  14.320  0.00  0.00    +0.000 C 
BRANCH  14  15
ATOM     15  C   UNL     1      38.147   1.285  14.739  0.00  0.00    +0.000 A 
ATOM     16  C   UNL     1      38.956   0.226  14.413  0.00  0.00    +0.000 A 
ATOM     17  C   UNL     1      38.591  -1.071  14.813  0.00  0.00    +0.000 A 
ATOM     18  C   UNL     1      37.437  -1.290  15.527  0.00  0.00    +0.000 A 
ATOM     19  C   UNL     1      36.634  -0.235  15.850  0.00  0.00    +0.000 A 
ATOM     20  C   UNL     1      35.457  -0.426  16.574  0.00  0.00    +0.000 A 
ATOM     21  C   UNL     1      34.671   0.644  16.885  0.00  0.00    +0.000 A 
ATOM     22  C   UNL     1      35.022   1.915  16.497  0.00  0.00    +0.000 A 
ATOM     23  C   UNL     1      36.179   2.080  15.788  0.00  0.00    +0.000 A 
ATOM     24  C   UNL     1      37.003   1.044  15.450  0.00  0.00    +0.000 A 
ENDBRANCH  14  15
ENDBRANCH  13  14
ENDBRANCH   7  11
BRANCH   1  26
ATOM     25  C   UNL     1      43.679   6.460  12.936  0.00  0.00    +0.000 C 
ATOM     26  O   UNL     1      43.850   7.329  14.036  0.00  0.00    +0.000 OA
ENDBRANCH   1  26
BRANCH  10  27
ATOM     27  C   UNL     1      40.804   6.496  19.885  0.00  0.00    +0.000 C 
BRANCH  27  28
ATOM     28  C   UNL     1      40.218   7.808  20.225  0.00  0.00    +0.000 A 
ATOM     29  C   UNL     1      38.861   7.852  20.476  0.00  0.00    +0.000 A 
ATOM     30  C   UNL     1      38.209   9.023  20.802  0.00  0.00    +0.000 A 
ATOM     31  C   UNL     1      38.911  10.228  20.890  0.00  0.00    +0.000 A 
ATOM     32  C   UNL     1      40.264  10.173  20.637  0.00  0.00    +0.000 A 
ATOM     33  C   UNL     1      40.913   8.977  20.307  0.00  0.00    +0.000 A 
ATOM     34  O   UNL     1      40.732  11.479  20.786  0.00  0.00    +0.000 OA
ATOM     35  C   UNL     1      39.752  12.287  21.411  0.00  0.00    +0.000 C 
ATOM     36  O   UNL     1      38.561  11.525  21.184  0.00  0.00    +0.000 OA
ENDBRANCH  27  28
ENDBRANCH  10  27
TORSDOF 6
ENDMDL
MODEL 10
REMARK VINA RESULT:      -8.1      2.125      3.107
REMARK  Name = 
REMARK  6 active torsions:
REMARK  status: ('A' for Active; 'I' for Inactive)
REMARK    1  A    between atoms: O_2  and  C_3
REMARK    2  A    between atoms: C_9  and  C_10
REMARK    3  A    between atoms: N_12  and  C_13
REMARK    4  A    between atoms: C_13  and  C_14
REMARK    5  A    between atoms: N_26  and  C_27
REMARK    6  A    between atoms: C_27  and  C_28
REMARK                            x       y       z     vdW  Elec       q    Type
REMARK                         _______ _______ _______ _____ _____    ______ ____
ROOT
ATOM      1  C   UNL     1      38.444   2.273  11.343  0.00  0.00    +0.000 A 
ATOM      2  C   UNL     1      37.915   1.007  11.465  0.00  0.00    +0.000 A 
ATOM      3  C   UNL     1      37.197   0.582  12.556  0.00  0.00    +0.000 A 
ATOM      4  C   UNL     1      36.983   1.481  13.615  0.00  0.00    +0.000 A 
ATOM      5  C   UNL     1      37.509   2.739  13.494  0.00  0.00    +0.000 A 
ATOM      6  C   UNL     1      38.237   3.155  12.378  0.00  0.00    +0.000 A 
ATOM      7  C   UNL     1      37.182   3.451  14.640  0.00  0.00    +0.000 A 
ATOM      8  C   UNL     1      36.463   2.568  15.404  0.00  0.00    +0.000 A 
ATOM      9  C   UNL     1      35.914   2.953  16.746  0.00  0.00    +0.000 C 
ATOM     10  N   UNL     1      36.352   1.393  14.778  0.00  0.00    +0.000 N 
ENDROOT
BRANCH   7  11
ATOM     11  C   UNL     1      37.542   4.839  14.934  0.00  0.00    +0.000 C 
ATOM     12  O   UNL     1      36.917   5.761  14.352  0.00  0.00    +0.000 OA
ATOM     13  N   UNL     1      38.559   5.178  15.841  0.00  0.00    +0.000 NA
BRANCH  13  14
ATOM     14  C   UNL     1      38.965   6.506  16.177  0.00  0.00    +0.000 C 
BRANCH  14  15
ATOM     15  C   UNL     1      39.478   6.640  17.547  0.00  0.00    +0.000 A 
ATOM     16  C   UNL     1      40.642   6.003  17.898  0.00  0.00    +0.000 A 
ATOM     17  C   UNL     1      41.132   6.131  19.209  0.00  0.00    +0.000 A 
ATOM     18  C   UNL     1      40.461   6.888  20.141  0.00  0.00    +0.000 A 
ATOM     19  C   UNL     1      39.305   7.521  19.789  0.00  0.00    +0.000 A 
ATOM     20  C   UNL     1      38.603   8.295  20.714  0.00  0.00    +0.000 A 
ATOM     21  C   UNL     1      37.449   8.918  20.338  0.00  0.00    +0.000 A 
ATOM     22  C   UNL     1      36.965   8.797  19.058  0.00  0.00    +0.000 A 
ATOM     23  C   UNL     1      37.668   8.033  18.168  0.00  0.00    +0.000 A 
ATOM     24  C   UNL     1      38.828   7.387  18.491  0.00  0.00    +0.000 A 
ENDBRANCH  14  15
ENDBRANCH  13  14
ENDBRANCH   7  11
BRANCH   1  26
ATOM     25  C   UNL     1      39.347   4.024   9.948  0.00  0.00    +0.000 C 
ATOM     26  O   UNL     1      39.171   2.645  10.199  0.00  0.00    +0.000 OA
ENDBRANCH   1  26
BRANCH  10  27
ATOM     27  C   UNL     1      35.657   0.242  15.305  0.00  0.00    +0.000 C 
BRANCH  27  28
ATOM     28  C   UNL     1      36.516  -0.599  16.161  0.00  0.00    +0.000 A 
ATOM     29  C   UNL     1      37.697  -1.063  15.616  0.00  0.00    +0.000 A 
ATOM     30  C   UNL     1      38.575  -1.856  16.325  0.00  0.00    +0.000 A 
ATOM     31  C   UNL     1      38.296  -2.224  17.643  0.00  0.00    +0.000 A 
ATOM     32  C   UNL     1      37.116  -1.756  18.178  0.00  0.00    +0.000 A 
ATOM     33  C   UNL     1      36.233  -0.952  17.446  0.00  0.00    +0.000 A 
ATOM     34  O   UNL     1      37.065  -2.250  19.481  0.00  0.00    +0.000 OA
ATOM     35  C   UNL     1      38.327  -2.771  19.861  0.00  0.00    +0.000 C 
ATOM     36  O   UNL     1      38.948  -2.982  18.589  0.00  0.00    +0.000 OA
ENDBRANCH  27  28
ENDBRANCH  10  27
TORSDOF 6
ENDMDL
