MODEL 1
REMARK VINA RESULT:      -6.9      0.000      0.000
REMARK  Name = 
REMARK  4 active torsions:
REMARK  status: ('A' for Active; 'I' for Inactive)
REMARK    1  A    between atoms: C_2  and  C_3
REMARK    2  A    between atoms: C_3  and  N_4
REMARK    3  A    between atoms: C_5  and  S_6
REMARK    4  A    between atoms: S_6  and  C_7
REMARK                            x       y       z     vdW  Elec       q    Type
REMARK                         _______ _______ _______ _____ _____    ______ ____
ROOT
ATOM      1  N   UNL     1      16.543  11.238  35.873  0.00  0.00    +0.000 N 
ATOM      2  C   UNL     1      16.510  10.590  34.696  0.00  0.00    +0.000 A 
ATOM      3  N   UNL     1      17.617   9.824  34.685  0.00  0.00    +0.000 NA
ATOM      4  C   UNL     1      18.315   9.991  35.824  0.00  0.00    +0.000 A 
ATOM      5  C   UNL     1      19.489   9.457  36.298  0.00  0.00    +0.000 A 
ATOM      6  C   UNL     1      19.987   9.823  37.543  0.00  0.00    +0.000 A 
ATOM      7  C   UNL     1      19.292  10.737  38.312  0.00  0.00    +0.000 A 
ATOM      8  C   UNL     1      18.111  11.282  37.844  0.00  0.00    +0.000 A 
ATOM      9  C   UNL     1      17.624  10.905  36.594  0.00  0.00    +0.000 A 
ENDROOT
BRANCH   1  10
ATOM     10  C   UNL     1      15.527  12.179  36.298  0.00  0.00    +0.000 C 
BRANCH  10  12
ATOM     11  O   UNL     1      14.582  11.369  38.319  0.00  0.00    +0.000 OA
ATOM     12  C   UNL     1      14.361  11.487  36.962  0.00  0.00    +0.000 C 
ENDBRANCH  10  12
ENDBRANCH   1  10
BRANCH   2  13
ATOM     13  S   UNL     1      15.281  10.699  33.397  0.00  0.00    +0.000 S 
BRANCH  13  14
ATOM     14  C   UNL     1      15.461  12.125  32.367  0.00  0.00    +0.000 C 
ATOM     15  C   UNL     1      16.065  11.909  31.034  0.00  0.00    +0.000 C 
ATOM     16  C   UNL     1      16.464  13.262  30.471  0.00  0.00    +0.000 C 
ATOM     17  C   UNL     1      15.297  14.233  30.459  0.00  0.00    +0.000 C 
ATOM     18  C   UNL     1      14.048  13.600  31.036  0.00  0.00    +0.000 C 
ATOM     19  C   UNL     1      14.343  13.111  32.433  0.00  0.00    +0.000 C 
ENDBRANCH  13  14
ENDBRANCH   2  13
TORSDOF 4
ENDMDL
MODEL 2
REMARK VINA RESULT:      -6.8      1.668      6.154
REMARK  Name = 
REMARK  4 active torsions:
REMARK  status: ('A' for Active; 'I' for Inactive)
REMARK    1  A    between atoms: C_2  and  C_3
REMARK    2  A    between atoms: C_3  and  N_4
REMARK    3  A    between atoms: C_5  and  S_6
REMARK    4  A    between atoms: S_6  and  C_7
REMARK                            x       y       z     vdW  Elec       q    Type
REMARK                         _______ _______ _______ _____ _____    ______ ____
ROOT
ATOM      1  N   UNL     1      15.644  11.740  34.997  0.00  0.00    +0.000 N 
ATOM      2  C   UNL     1      16.511  10.752  35.278  0.00  0.00    +0.000 A 
ATOM      3  N   UNL     1      16.792  10.182  34.092  0.00  0.00    +0.000 NA
ATOM      4  C   UNL     1      16.119  10.800  33.103  0.00  0.00    +0.000 A 
ATOM      5  C   UNL     1      16.055  10.609  31.743  0.00  0.00    +0.000 A 
ATOM      6  C   UNL     1      15.254  11.420  30.947  0.00  0.00    +0.000 A 
ATOM      7  C   UNL     1      14.512  12.429  31.532  0.00  0.00    +0.000 A 
ATOM      8  C   UNL     1      14.568  12.628  32.899  0.00  0.00    +0.000 A 
ATOM      9  C   UNL     1      15.376  11.808  33.684  0.00  0.00    +0.000 A 
ENDROOT
BRANCH   1  10
ATOM     10  C   UNL     1      15.076  12.617  35.999  0.00  0.00    +0.000 C 
BRANCH  10  12
ATOM     11  O   UNL     1      12.776  13.078  36.360  0.00  0.00    +0.000 OA
ATOM     12  C   UNL     1      13.748  12.109  36.506  0.00  0.00    +0.000 C 
ENDBRANCH  10  12
ENDBRANCH   1  10
BRANCH   2  13
ATOM     13  S   UNL     1      17.168  10.266  36.872  0.00  0.00    +0.000 S 
BRANCH  13  14
ATOM     14  C   UNL     1      18.836  10.788  37.142  0.00  0.00    +0.000 C 
ATOM     15  C   UNL     1      19.099  11.560  38.377  0.00  0.00    +0.000 C 
ATOM     16  C   UNL     1      20.463  12.213  38.244  0.00  0.00    +0.000 C 
ATOM     17  C   UNL     1      21.545  11.198  37.921  0.00  0.00    +0.000 C 
ATOM     18  C   UNL     1      20.969   9.802  37.794  0.00  0.00    +0.000 C 
ATOM     19  C   UNL     1      19.889   9.809  36.740  0.00  0.00    +0.000 C 
ENDBRANCH  13  14
ENDBRANCH   2  13
TORSDOF 4
ENDMDL
MODEL 3
REMARK VINA RESULT:      -6.2      2.847      6.710
REMARK  Name = 
REMARK  4 active torsions:
REMARK  status: ('A' for Active; 'I' for Inactive)
REMARK    1  A    between atoms: C_2  and  C_3
REMARK    2  A    between atoms: C_3  and  N_4
REMARK    3  A    between atoms: C_5  and  S_6
REMARK    4  A    between atoms: S_6  and  C_7
REMARK                            x       y       z     vdW  Elec       q    Type
REMARK                         _______ _______ _______ _____ _____    ______ ____
ROOT
ATOM      1  N   UNL     1      14.710  12.170  36.452  0.00  0.00    +0.000 N 
ATOM      2  C   UNL     1      15.769  11.793  37.188  0.00  0.00    +0.000 A 
ATOM      3  N   UNL     1      15.250  11.114  38.227  0.00  0.00    +0.000 NA
ATOM      4  C   UNL     1      13.908  11.069  38.137  0.00  0.00    +0.000 A 
ATOM      5  C   UNL     1      12.927  10.514  38.922  0.00  0.00    +0.000 A 
ATOM      6  C   UNL     1      11.585  10.628  38.575  0.00  0.00    +0.000 A 
ATOM      7  C   UNL     1      11.236  11.311  37.425  0.00  0.00    +0.000 A 
ATOM      8  C   UNL     1      12.215  11.875  36.629  0.00  0.00    +0.000 A 
ATOM      9  C   UNL     1      13.555  11.752  36.990  0.00  0.00    +0.000 A 
ENDROOT
BRANCH   1  10
ATOM     10  C   UNL     1      14.818  12.936  35.227  0.00  0.00    +0.000 C 
BRANCH  10  12
ATOM     11  O   UNL     1      14.660  12.630  32.879  0.00  0.00    +0.000 OA
ATOM     12  C   UNL     1      15.137  12.059  34.040  0.00  0.00    +0.000 C 
ENDBRANCH  10  12
ENDBRANCH   1  10
BRANCH   2  13
ATOM     13  S   UNL     1      17.507  12.111  36.888  0.00  0.00    +0.000 S 
BRANCH  13  14
ATOM     14  C   UNL     1      18.590  11.160  37.912  0.00  0.00    +0.000 C 
ATOM     15  C   UNL     1      18.545   9.691  37.742  0.00  0.00    +0.000 C 
ATOM     16  C   UNL     1      19.248   9.056  38.930  0.00  0.00    +0.000 C 
ATOM     17  C   UNL     1      20.652   9.603  39.111  0.00  0.00    +0.000 C 
ATOM     18  C   UNL     1      20.971  10.657  38.070  0.00  0.00    +0.000 C 
ATOM     19  C   UNL     1      19.938  11.755  38.149  0.00  0.00    +0.000 C 
ENDBRANCH  13  14
ENDBRANCH   2  13
TORSDOF 4
ENDMDL
MODEL 4
REMARK VINA RESULT:      -6.1     27.746     30.073
REMARK  Name = 
REMARK  4 active torsions:
REMARK  status: ('A' for Active; 'I' for Inactive)
REMARK    1  A    between atoms: C_2  and  C_3
REMARK    2  A    between atoms: C_3  and  N_4
REMARK    3  A    between atoms: C_5  and  S_6
REMARK    4  A    between atoms: S_6  and  C_7
REMARK                            x       y       z     vdW  Elec       q    Type
REMARK                         _______ _______ _______ _____ _____    ______ ____
ROOT
ATOM      1  N   UNL     1      29.871  21.376  11.402  0.00  0.00    +0.000 N 
ATOM      2  C   UNL     1      30.925  21.388  12.235  0.00  0.00    +0.000 A 
ATOM      3  N   UNL     1      30.583  22.233  13.225  0.00  0.00    +0.000 NA
ATOM      4  C   UNL     1      29.350  22.730  13.012  0.00  0.00    +0.000 A 
ATOM      5  C   UNL     1      28.556  23.612  13.705  0.00  0.00    +0.000 A 
ATOM      6  C   UNL     1      27.292  23.953  13.237  0.00  0.00    +0.000 A 
ATOM      7  C   UNL     1      26.830  23.398  12.058  0.00  0.00    +0.000 A 
ATOM      8  C   UNL     1      27.622  22.511  11.352  0.00  0.00    +0.000 A 
ATOM      9  C   UNL     1      28.886  22.179  11.835  0.00  0.00    +0.000 A 
ENDROOT
BRANCH   1  10
ATOM     10  C   UNL     1      29.817  20.588  10.188  0.00  0.00    +0.000 C 
BRANCH  10  12
ATOM     11  O   UNL     1      31.493  20.488   8.511  0.00  0.00    +0.000 OA
ATOM     12  C   UNL     1      30.495  21.285   9.034  0.00  0.00    +0.000 C 
ENDBRANCH  10  12
ENDBRANCH   1  10
BRANCH   2  13
ATOM     13  S   UNL     1      32.470  20.492  12.091  0.00  0.00    +0.000 S 
BRANCH  13  14
ATOM     14  C   UNL     1      33.765  21.427  11.332  0.00  0.00    +0.000 C 
ATOM     15  C   UNL     1      34.831  20.656  10.655  0.00  0.00    +0.000 C 
ATOM     16  C   UNL     1      36.002  21.590  10.403  0.00  0.00    +0.000 C 
ATOM     17  C   UNL     1      35.576  22.834   9.643  0.00  0.00    +0.000 C 
ATOM     18  C   UNL     1      34.088  22.824   9.360  0.00  0.00    +0.000 C 
ATOM     19  C   UNL     1      33.339  22.691  10.664  0.00  0.00    +0.000 C 
ENDBRANCH  13  14
ENDBRANCH   2  13
TORSDOF 4
ENDMDL
MODEL 5
REMARK VINA RESULT:      -6.1      2.003      6.044
REMARK  Name = 
REMARK  4 active torsions:
REMARK  status: ('A' for Active; 'I' for Inactive)
REMARK    1  A    between atoms: C_2  and  C_3
REMARK    2  A    between atoms: C_3  and  N_4
REMARK    3  A    between atoms: C_5  and  S_6
REMARK    4  A    between atoms: S_6  and  C_7
REMARK                            x       y       z     vdW  Elec       q    Type
REMARK                         _______ _______ _______ _____ _____    ______ ____
ROOT
ATOM      1  N   UNL     1      16.403  10.866  35.725  0.00  0.00    +0.000 N 
ATOM      2  C   UNL     1      17.359   9.929  35.847  0.00  0.00    +0.000 A 
ATOM      3  N   UNL     1      17.659   9.568  34.586  0.00  0.00    +0.000 NA
ATOM      4  C   UNL     1      16.913  10.262  33.707  0.00  0.00    +0.000 A 
ATOM      5  C   UNL     1      16.832  10.270  32.335  0.00  0.00    +0.000 A 
ATOM      6  C   UNL     1      15.945  11.114  31.677  0.00  0.00    +0.000 A 
ATOM      7  C   UNL     1      15.133  11.955  32.414  0.00  0.00    +0.000 A 
ATOM      8  C   UNL     1      15.204  11.954  33.796  0.00  0.00    +0.000 A 
ATOM      9  C   UNL     1      16.098  11.102  34.440  0.00  0.00    +0.000 A 
ENDROOT
BRANCH   1  10
ATOM     10  C   UNL     1      15.785  11.531  36.854  0.00  0.00    +0.000 C 
BRANCH  10  12
ATOM     11  O   UNL     1      17.709  12.917  36.948  0.00  0.00    +0.000 OA
ATOM     12  C   UNL     1      16.333  12.923  37.056  0.00  0.00    +0.000 C 
ENDBRANCH  10  12
ENDBRANCH   1  10
BRANCH   2  13
ATOM     13  S   UNL     1      18.094   9.274  37.343  0.00  0.00    +0.000 S 
BRANCH  13  14
ATOM     14  C   UNL     1      19.766   9.790  37.599  0.00  0.00    +0.000 C 
ATOM     15  C   UNL     1      20.633   9.846  36.402  0.00  0.00    +0.000 C 
ATOM     16  C   UNL     1      22.075   9.945  36.868  0.00  0.00    +0.000 C 
ATOM     17  C   UNL     1      22.280  11.108  37.822  0.00  0.00    +0.000 C 
ATOM     18  C   UNL     1      20.983  11.848  38.075  0.00  0.00    +0.000 C 
ATOM     19  C   UNL     1      19.956  10.877  38.604  0.00  0.00    +0.000 C 
ENDBRANCH  13  14
ENDBRANCH   2  13
TORSDOF 4
ENDMDL
MODEL 6
REMARK VINA RESULT:      -6.0      3.552      5.170
REMARK  Name = 
REMARK  4 active torsions:
REMARK  status: ('A' for Active; 'I' for Inactive)
REMARK    1  A    between atoms: C_2  and  C_3
REMARK    2  A    between atoms: C_3  and  N_4
REMARK    3  A    between atoms: C_5  and  S_6
REMARK    4  A    between atoms: S_6  and  C_7
REMARK                            x       y       z     vdW  Elec       q    Type
REMARK                         _______ _______ _______ _____ _____    ______ ____
ROOT
ATOM      1  N   UNL     1      21.199  11.125  37.890  0.00  0.00    +0.000 N 
ATOM      2  C   UNL     1      20.469  10.207  37.234  0.00  0.00    +0.000 A 
ATOM      3  N   UNL     1      21.335   9.598  36.403  0.00  0.00    +0.000 NA
ATOM      4  C   UNL     1      22.567  10.122  36.542  0.00  0.00    +0.000 A 
ATOM      5  C   UNL     1      23.776   9.863  35.941  0.00  0.00    +0.000 A 
ATOM      6  C   UNL     1      24.914  10.581  36.290  0.00  0.00    +0.000 A 
ATOM      7  C   UNL     1      24.827  11.569  37.253  0.00  0.00    +0.000 A 
ATOM      8  C   UNL     1      23.615  11.839  37.862  0.00  0.00    +0.000 A 
ATOM      9  C   UNL     1      22.484  11.110  37.502  0.00  0.00    +0.000 A 
ENDROOT
BRANCH   1  10
ATOM     10  C   UNL     1      20.653  12.017  38.892  0.00  0.00    +0.000 C 
BRANCH  10  12
ATOM     11  O   UNL     1      20.931  14.356  38.607  0.00  0.00    +0.000 OA
ATOM     12  C   UNL     1      20.118  13.290  38.282  0.00  0.00    +0.000 C 
ENDBRANCH  10  12
ENDBRANCH   1  10
BRANCH   2  13
ATOM     13  S   UNL     1      18.722   9.847  37.398  0.00  0.00    +0.000 S 
BRANCH  13  14
ATOM     14  C   UNL     1      17.720  10.611  36.157  0.00  0.00    +0.000 C 
ATOM     15  C   UNL     1      17.181   9.726  35.102  0.00  0.00    +0.000 C 
ATOM     16  C   UNL     1      16.678  10.598  33.964  0.00  0.00    +0.000 C 
ATOM     17  C   UNL     1      15.684  11.638  34.450  0.00  0.00    +0.000 C 
ATOM     18  C   UNL     1      15.477  11.544  35.948  0.00  0.00    +0.000 C 
ATOM     19  C   UNL     1      16.810  11.691  36.640  0.00  0.00    +0.000 C 
ENDBRANCH  13  14
ENDBRANCH   2  13
TORSDOF 4
ENDMDL
MODEL 7
REMARK VINA RESULT:      -5.7     19.465     21.440
REMARK  Name = 
REMARK  4 active torsions:
REMARK  status: ('A' for Active; 'I' for Inactive)
REMARK    1  A    between atoms: C_2  and  C_3
REMARK    2  A    between atoms: C_3  and  N_4
REMARK    3  A    between atoms: C_5  and  S_6
REMARK    4  A    between atoms: S_6  and  C_7
REMARK                            x       y       z     vdW  Elec       q    Type
REMARK                         _______ _______ _______ _____ _____    ______ ____
ROOT
ATOM      1  N   UNL     1      28.054  23.925  23.828  0.00  0.00    +0.000 N 
ATOM      2  C   UNL     1      29.038  24.122  22.935  0.00  0.00    +0.000 A 
ATOM      3  N   UNL     1      30.138  23.590  23.501  0.00  0.00    +0.000 NA
ATOM      4  C   UNL     1      29.843  23.076  24.709  0.00  0.00    +0.000 A 
ATOM      5  C   UNL     1      30.589  22.439  25.671  0.00  0.00    +0.000 A 
ATOM      6  C   UNL     1      30.004  22.005  26.856  0.00  0.00    +0.000 A 
ATOM      7  C   UNL     1      28.656  22.220  27.068  0.00  0.00    +0.000 A 
ATOM      8  C   UNL     1      27.896  22.863  26.107  0.00  0.00    +0.000 A 
ATOM      9  C   UNL     1      28.496  23.291  24.925  0.00  0.00    +0.000 A 
ENDROOT
BRANCH   1  10
ATOM     10  C   UNL     1      26.685  24.350  23.619  0.00  0.00    +0.000 C 
BRANCH  10  12
ATOM     11  O   UNL     1      25.579  22.931  22.072  0.00  0.00    +0.000 OA
ATOM     12  C   UNL     1      25.755  23.178  23.419  0.00  0.00    +0.000 C 
ENDBRANCH  10  12
ENDBRANCH   1  10
BRANCH   2  13
ATOM     13  S   UNL     1      28.947  24.919  21.333  0.00  0.00    +0.000 S 
BRANCH  13  14
ATOM     14  C   UNL     1      28.738  26.673  21.424  0.00  0.00    +0.000 C 
ATOM     15  C   UNL     1      29.239  27.339  22.646  0.00  0.00    +0.000 C 
ATOM     16  C   UNL     1      28.650  28.738  22.697  0.00  0.00    +0.000 C 
ATOM     17  C   UNL     1      28.933  29.514  21.423  0.00  0.00    +0.000 C 
ATOM     18  C   UNL     1      29.709  28.676  20.428  0.00  0.00    +0.000 C 
ATOM     19  C   UNL     1      28.937  27.411  20.142  0.00  0.00    +0.000 C 
ENDBRANCH  13  14
ENDBRANCH   2  13
TORSDOF 4
ENDMDL
MODEL 8
REMARK VINA RESULT:      -5.6     16.503     18.511
REMARK  Name = 
REMARK  4 active torsions:
REMARK  status: ('A' for Active; 'I' for Inactive)
REMARK    1  A    between atoms: C_2  and  C_3
REMARK    2  A    between atoms: C_3  and  N_4
REMARK    3  A    between atoms: C_5  and  S_6
REMARK    4  A    between atoms: S_6  and  C_7
REMARK                            x       y       z     vdW  Elec       q    Type
REMARK                         _______ _______ _______ _____ _____    ______ ____
ROOT
ATOM      1  N   UNL     1      26.534  23.888  28.556  0.00  0.00    +0.000 N 
ATOM      2  C   UNL     1      26.537  23.586  27.247  0.00  0.00    +0.000 A 
ATOM      3  N   UNL     1      25.550  24.329  26.713  0.00  0.00    +0.000 NA
ATOM      4  C   UNL     1      24.954  25.072  27.664  0.00  0.00    +0.000 A 
ATOM      5  C   UNL     1      23.918  25.975  27.645  0.00  0.00    +0.000 A 
ATOM      6  C   UNL     1      23.502  26.608  28.812  0.00  0.00    +0.000 A 
ATOM      7  C   UNL     1      24.140  26.323  30.005  0.00  0.00    +0.000 A 
ATOM      8  C   UNL     1      25.182  25.415  30.035  0.00  0.00    +0.000 A 
ATOM      9  C   UNL     1      25.587  24.789  28.858  0.00  0.00    +0.000 A 
ENDROOT
BRANCH   1  10
ATOM     10  C   UNL     1      27.449  23.303  29.515  0.00  0.00    +0.000 C 
BRANCH  10  12
ATOM     11  O   UNL     1      25.904  21.998  30.757  0.00  0.00    +0.000 OA
ATOM     12  C   UNL     1      27.013  21.921  29.940  0.00  0.00    +0.000 C 
ENDBRANCH  10  12
ENDBRANCH   1  10
BRANCH   2  13
ATOM     13  S   UNL     1      27.602  22.445  26.368  0.00  0.00    +0.000 S 
BRANCH  13  14
ATOM     14  C   UNL     1      29.231  23.071  26.081  0.00  0.00    +0.000 C 
ATOM     15  C   UNL     1      30.310  22.530  26.937  0.00  0.00    +0.000 C 
ATOM     16  C   UNL     1      31.523  23.434  26.796  0.00  0.00    +0.000 C 
ATOM     17  C   UNL     1      31.929  23.607  25.343  0.00  0.00    +0.000 C 
ATOM     18  C   UNL     1      31.000  22.850  24.417  0.00  0.00    +0.000 C 
ATOM     19  C   UNL     1      29.583  23.315  24.652  0.00  0.00    +0.000 C 
ENDBRANCH  13  14
ENDBRANCH   2  13
TORSDOF 4
ENDMDL
MODEL 9
REMARK VINA RESULT:      -5.6     16.421     18.411
REMARK  Name = 
REMARK  4 active torsions:
REMARK  status: ('A' for Active; 'I' for Inactive)
REMARK    1  A    between atoms: C_2  and  C_3
REMARK    2  A    between atoms: C_3  and  N_4
REMARK    3  A    between atoms: C_5  and  S_6
REMARK    4  A    between atoms: S_6  and  C_7
REMARK                            x       y       z     vdW  Elec       q    Type
REMARK                         _______ _______ _______ _____ _____    ______ ____
ROOT
ATOM      1  N   UNL     1      26.458  23.912  28.478  0.00  0.00    +0.000 N 
ATOM      2  C   UNL     1      26.414  23.716  27.149  0.00  0.00    +0.000 A 
ATOM      3  N   UNL     1      25.434  24.526  26.707  0.00  0.00    +0.000 NA
ATOM      4  C   UNL     1      24.889  25.207  27.732  0.00  0.00    +0.000 A 
ATOM      5  C   UNL     1      23.880  26.136  27.818  0.00  0.00    +0.000 A 
ATOM      6  C   UNL     1      23.518  26.685  29.043  0.00  0.00    +0.000 A 
ATOM      7  C   UNL     1      24.182  26.289  30.188  0.00  0.00    +0.000 A 
ATOM      8  C   UNL     1      25.197  25.353  30.114  0.00  0.00    +0.000 A 
ATOM      9  C   UNL     1      25.548  24.812  28.879  0.00  0.00    +0.000 A 
ENDROOT
BRANCH   1  10
ATOM     10  C   UNL     1      27.383  23.228  29.358  0.00  0.00    +0.000 C 
BRANCH  10  12
ATOM     11  O   UNL     1      25.982  22.001  30.829  0.00  0.00    +0.000 OA
ATOM     12  C   UNL     1      26.865  21.873  29.776  0.00  0.00    +0.000 C 
ENDBRANCH  10  12
ENDBRANCH   1  10
BRANCH   2  13
ATOM     13  S   UNL     1      27.417  22.619  26.149  0.00  0.00    +0.000 S 
BRANCH  13  14
ATOM     14  C   UNL     1      28.280  23.440  24.842  0.00  0.00    +0.000 C 
ATOM     15  C   UNL     1      29.629  22.930  24.514  0.00  0.00    +0.000 C 
ATOM     16  C   UNL     1      30.330  23.967  23.653  0.00  0.00    +0.000 C 
ATOM     17  C   UNL     1      29.506  24.333  22.431  0.00  0.00    +0.000 C 
ATOM     18  C   UNL     1      28.190  23.583  22.409  0.00  0.00    +0.000 C 
ATOM     19  C   UNL     1      27.438  23.869  23.687  0.00  0.00    +0.000 C 
ENDBRANCH  13  14
ENDBRANCH   2  13
TORSDOF 4
ENDMDL
MODEL 10
REMARK VINA RESULT:      -5.6      3.753      5.685
REMARK  Name = 
REMARK  4 active torsions:
REMARK  status: ('A' for Active; 'I' for Inactive)
REMARK    1  A    between atoms: C_2  and  C_3
REMARK    2  A    between atoms: C_3  and  N_4
REMARK    3  A    between atoms: C_5  and  S_6
REMARK    4  A    between atoms: S_6  and  C_7
REMARK                            x       y       z     vdW  Elec       q    Type
REMARK                         _______ _______ _______ _____ _____    ______ ____
ROOT
ATOM      1  N   UNL     1      20.990  11.174  38.051  0.00  0.00    +0.000 N 
ATOM      2  C   UNL     1      19.646  11.168  38.021  0.00  0.00    +0.000 A 
ATOM      3  N   UNL     1      19.283  12.430  38.318  0.00  0.00    +0.000 NA
ATOM      4  C   UNL     1      20.371  13.196  38.523  0.00  0.00    +0.000 A 
ATOM      5  C   UNL     1      20.545  14.520  38.846  0.00  0.00    +0.000 A 
ATOM      6  C   UNL     1      21.820  15.055  38.999  0.00  0.00    +0.000 A 
ATOM      7  C   UNL     1      22.924  14.243  38.825  0.00  0.00    +0.000 A 
ATOM      8  C   UNL     1      22.760  12.908  38.502  0.00  0.00    +0.000 A 
ATOM      9  C   UNL     1      21.477  12.387  38.351  0.00  0.00    +0.000 A 
ENDROOT
BRANCH   1  10
ATOM     10  C   UNL     1      21.802  10.003  37.787  0.00  0.00    +0.000 C 
BRANCH  10  12
ATOM     11  O   UNL     1      23.301  10.406  35.992  0.00  0.00    +0.000 OA
ATOM     12  C   UNL     1      22.086   9.835  36.314  0.00  0.00    +0.000 C 
ENDBRANCH  10  12
ENDBRANCH   1  10
BRANCH   2  13
ATOM     13  S   UNL     1      18.544   9.800  37.674  0.00  0.00    +0.000 S 
BRANCH  13  14
ATOM     14  C   UNL     1      17.475  10.081  36.293  0.00  0.00    +0.000 C 
ATOM     15  C   UNL     1      17.068  11.480  36.043  0.00  0.00    +0.000 C 
ATOM     16  C   UNL     1      15.895  11.466  35.079  0.00  0.00    +0.000 C 
ATOM     17  C   UNL     1      16.216  10.692  33.813  0.00  0.00    +0.000 C 
ATOM     18  C   UNL     1      17.617  10.118  33.859  0.00  0.00    +0.000 C 
ATOM     19  C   UNL     1      17.753   9.248  35.086  0.00  0.00    +0.000 C 
ENDBRANCH  13  14
ENDBRANCH   2  13
TORSDOF 4
ENDMDL
