MODEL 1
REMARK VINA RESULT:      -7.9      0.000      0.000
REMARK  Name = 
REMARK  3 active torsions:
REMARK  status: ('A' for Active; 'I' for Inactive)
REMARK    1  A    between atoms: C_7  and  N_8
REMARK    2  A    between atoms: C_9  and  C_11
REMARK    3  A    between atoms: C_16  and  N_17
REMARK                            x       y       z     vdW  Elec       q    Type
REMARK                         _______ _______ _______ _____ _____    ______ ____
ROOT
ATOM      1  N   UNL     1      16.743  11.446  35.870  0.00  0.00    +0.000 NA
ATOM      2  C   UNL     1      16.622  10.616  34.733  0.00  0.00    +0.000 C 
ATOM      3  O   UNL     1      17.000   9.427  34.797  0.00  0.00    +0.000 OA
ENDROOT
BRANCH   1  10
ATOM      4  C   UNL     1      20.636   9.753  38.304  0.00  0.00    +0.000 C 
ATOM      5  C   UNL     1      19.167  10.046  38.293  0.00  0.00    +0.000 A 
ATOM      6  C   UNL     1      18.347   9.803  39.348  0.00  0.00    +0.000 A 
ATOM      7  C   UNL     1      16.989  10.085  39.304  0.00  0.00    +0.000 A 
ATOM      8  C   UNL     1      16.471  10.628  38.150  0.00  0.00    +0.000 A 
ATOM      9  C   UNL     1      15.034  10.959  38.025  0.00  0.00    +0.000 C 
ATOM     10  C   UNL     1      17.296  10.888  37.051  0.00  0.00    +0.000 A 
ATOM     11  C   UNL     1      18.631  10.596  37.130  0.00  0.00    +0.000 A 
ENDBRANCH   1  10
BRANCH   2  12
ATOM     12  C   UNL     1      16.053  11.165  33.495  0.00  0.00    +0.000 A 
ATOM     13  C   UNL     1      16.265  10.497  32.299  0.00  0.00    +0.000 A 
ATOM     14  C   UNL     1      15.719  11.037  31.160  0.00  0.00    +0.000 A 
ATOM     15  C   UNL     1      14.982  12.198  31.185  0.00  0.00    +0.000 A 
ATOM     16  F   UNL     1      14.434  12.748  30.080  0.00  0.00    +0.000 F 
ATOM     17  C   UNL     1      14.760  12.880  32.381  0.00  0.00    +0.000 A 
ATOM     18  C   UNL     1      15.311  12.331  33.517  0.00  0.00    +0.000 A 
BRANCH  17  19
ATOM     19  N   UNL     1      13.994  14.084  32.404  0.00  0.00    +0.000 N 
ATOM     20  O   UNL     1      14.029  14.896  31.456  0.00  0.00    +0.000 OA
ATOM     21  O   UNL     1      13.182  14.388  33.490  0.00  0.00    +0.000 OA
ENDBRANCH  17  19
ENDBRANCH   2  12
TORSDOF 3
ENDMDL
MODEL 2
REMARK VINA RESULT:      -7.8      3.805      7.488
REMARK  Name = 
REMARK  3 active torsions:
REMARK  status: ('A' for Active; 'I' for Inactive)
REMARK    1  A    between atoms: C_7  and  N_8
REMARK    2  A    between atoms: C_9  and  C_11
REMARK    3  A    between atoms: C_16  and  N_17
REMARK                            x       y       z     vdW  Elec       q    Type
REMARK                         _______ _______ _______ _____ _____    ______ ____
ROOT
ATOM      1  N   UNL     1      15.444  11.268  35.551  0.00  0.00    +0.000 NA
ATOM      2  C   UNL     1      16.577  11.679  36.289  0.00  0.00    +0.000 C 
ATOM      3  O   UNL     1      17.064  12.811  36.087  0.00  0.00    +0.000 OA
ENDROOT
BRANCH   1  10
ATOM      4  C   UNL     1      12.811  15.273  34.568  0.00  0.00    +0.000 C 
ATOM      5  C   UNL     1      13.621  14.123  34.057  0.00  0.00    +0.000 A 
ATOM      6  C   UNL     1      13.858  13.901  32.738  0.00  0.00    +0.000 A 
ATOM      7  C   UNL     1      14.613  12.824  32.297  0.00  0.00    +0.000 A 
ATOM      8  C   UNL     1      15.132  11.961  33.235  0.00  0.00    +0.000 A 
ATOM      9  C   UNL     1      15.949  10.791  32.845  0.00  0.00    +0.000 C 
ATOM     10  C   UNL     1      14.902  12.169  34.599  0.00  0.00    +0.000 A 
ATOM     11  C   UNL     1      14.152  13.242  34.998  0.00  0.00    +0.000 A 
ENDBRANCH   1  10
BRANCH   2  12
ATOM     12  C   UNL     1      17.161  10.768  37.282  0.00  0.00    +0.000 A 
ATOM     13  C   UNL     1      18.339  10.102  36.979  0.00  0.00    +0.000 A 
ATOM     14  C   UNL     1      18.858   9.259  37.930  0.00  0.00    +0.000 A 
ATOM     15  C   UNL     1      18.248   9.068  39.148  0.00  0.00    +0.000 A 
ATOM     16  F   UNL     1      18.740   8.246  40.099  0.00  0.00    +0.000 F 
ATOM     17  C   UNL     1      17.064   9.732  39.467  0.00  0.00    +0.000 A 
ATOM     18  C   UNL     1      16.550  10.576  38.507  0.00  0.00    +0.000 A 
BRANCH  17  19
ATOM     19  N   UNL     1      16.433   9.534  40.731  0.00  0.00    +0.000 N 
ATOM     20  O   UNL     1      15.286   9.050  40.818  0.00  0.00    +0.000 OA
ATOM     21  O   UNL     1      17.084   9.876  41.911  0.00  0.00    +0.000 OA
ENDBRANCH  17  19
ENDBRANCH   2  12
TORSDOF 3
ENDMDL
MODEL 3
REMARK VINA RESULT:      -7.6     27.933     29.841
REMARK  Name = 
REMARK  3 active torsions:
REMARK  status: ('A' for Active; 'I' for Inactive)
REMARK    1  A    between atoms: C_7  and  N_8
REMARK    2  A    between atoms: C_9  and  C_11
REMARK    3  A    between atoms: C_16  and  N_17
REMARK                            x       y       z     vdW  Elec       q    Type
REMARK                         _______ _______ _______ _____ _____    ______ ____
ROOT
ATOM      1  N   UNL     1      30.356  22.628  11.697  0.00  0.00    +0.000 NA
ATOM      2  C   UNL     1      31.125  21.625  12.329  0.00  0.00    +0.000 C 
ATOM      3  O   UNL     1      30.845  21.281  13.496  0.00  0.00    +0.000 OA
ENDROOT
BRANCH   1  10
ATOM      4  C   UNL     1      28.812  25.691  15.186  0.00  0.00    +0.000 C 
ATOM      5  C   UNL     1      28.470  24.695  14.123  0.00  0.00    +0.000 A 
ATOM      6  C   UNL     1      27.199  24.322  13.825  0.00  0.00    +0.000 A 
ATOM      7  C   UNL     1      26.917  23.393  12.833  0.00  0.00    +0.000 A 
ATOM      8  C   UNL     1      27.968  22.842  12.136  0.00  0.00    +0.000 A 
ATOM      9  C   UNL     1      27.751  21.847  11.063  0.00  0.00    +0.000 C 
ATOM     10  C   UNL     1      29.286  23.210  12.425  0.00  0.00    +0.000 A 
ATOM     11  C   UNL     1      29.527  24.128  13.410  0.00  0.00    +0.000 A 
ENDBRANCH   1  10
BRANCH   2  12
ATOM     12  C   UNL     1      32.239  21.004  11.601  0.00  0.00    +0.000 A 
ATOM     13  C   UNL     1      32.102  20.745  10.246  0.00  0.00    +0.000 A 
ATOM     14  C   UNL     1      33.163  20.164   9.596  0.00  0.00    +0.000 A 
ATOM     15  C   UNL     1      34.330  19.842  10.249  0.00  0.00    +0.000 A 
ATOM     16  F   UNL     1      35.388  19.272   9.631  0.00  0.00    +0.000 F 
ATOM     17  C   UNL     1      34.483  20.097  11.611  0.00  0.00    +0.000 A 
ATOM     18  C   UNL     1      33.414  20.680  12.255  0.00  0.00    +0.000 A 
BRANCH  17  19
ATOM     19  N   UNL     1      35.695  19.763  12.286  0.00  0.00    +0.000 N 
ATOM     20  O   UNL     1      36.679  20.532  12.274  0.00  0.00    +0.000 OA
ATOM     21  O   UNL     1      35.815  18.565  12.980  0.00  0.00    +0.000 OA
ENDBRANCH  17  19
ENDBRANCH   2  12
TORSDOF 3
ENDMDL
MODEL 4
REMARK VINA RESULT:      -7.3     27.621     29.729
REMARK  Name = 
REMARK  3 active torsions:
REMARK  status: ('A' for Active; 'I' for Inactive)
REMARK    1  A    between atoms: C_7  and  N_8
REMARK    2  A    between atoms: C_9  and  C_11
REMARK    3  A    between atoms: C_16  and  N_17
REMARK                            x       y       z     vdW  Elec       q    Type
REMARK                         _______ _______ _______ _____ _____    ______ ____
ROOT
ATOM      1  N   UNL     1      31.689  22.038  10.961  0.00  0.00    +0.000 NA
ATOM      2  C   UNL     1      30.758  21.470  11.859  0.00  0.00    +0.000 C 
ATOM      3  O   UNL     1      30.893  20.280  12.213  0.00  0.00    +0.000 OA
ENDROOT
BRANCH   1  10
ATOM      4  C   UNL     1      36.037  19.933  11.738  0.00  0.00    +0.000 C 
ATOM      5  C   UNL     1      34.880  20.166  10.817  0.00  0.00    +0.000 A 
ATOM      6  C   UNL     1      34.800  19.642   9.566  0.00  0.00    +0.000 A 
ATOM      7  C   UNL     1      33.713  19.879   8.737  0.00  0.00    +0.000 A 
ATOM      8  C   UNL     1      32.692  20.671   9.209  0.00  0.00    +0.000 A 
ATOM      9  C   UNL     1      31.498  20.970   8.387  0.00  0.00    +0.000 C 
ATOM     10  C   UNL     1      32.752  21.222  10.493  0.00  0.00    +0.000 A 
ATOM     11  C   UNL     1      33.839  20.967  11.283  0.00  0.00    +0.000 A 
ENDBRANCH   1  10
BRANCH   2  12
ATOM     12  C   UNL     1      29.647  22.289  12.361  0.00  0.00    +0.000 A 
ATOM     13  C   UNL     1      29.782  22.939  13.578  0.00  0.00    +0.000 A 
ATOM     14  C   UNL     1      28.725  23.697  14.018  0.00  0.00    +0.000 A 
ATOM     15  C   UNL     1      27.563  23.821  13.291  0.00  0.00    +0.000 A 
ATOM     16  F   UNL     1      26.511  24.561  13.701  0.00  0.00    +0.000 F 
ATOM     17  C   UNL     1      27.413  23.173  12.065  0.00  0.00    +0.000 A 
ATOM     18  C   UNL     1      28.479  22.415  11.632  0.00  0.00    +0.000 A 
BRANCH  17  19
ATOM     19  N   UNL     1      26.208  23.304  11.312  0.00  0.00    +0.000 N 
ATOM     20  O   UNL     1      25.782  22.372  10.599  0.00  0.00    +0.000 OA
ATOM     21  O   UNL     1      25.470  24.481  11.353  0.00  0.00    +0.000 OA
ENDBRANCH  17  19
ENDBRANCH   2  12
TORSDOF 3
ENDMDL
MODEL 5
REMARK VINA RESULT:      -7.2     27.697     30.439
REMARK  Name = 
REMARK  3 active torsions:
REMARK  status: ('A' for Active; 'I' for Inactive)
REMARK    1  A    between atoms: C_7  and  N_8
REMARK    2  A    between atoms: C_9  and  C_11
REMARK    3  A    between atoms: C_16  and  N_17
REMARK                            x       y       z     vdW  Elec       q    Type
REMARK                         _______ _______ _______ _____ _____    ______ ____
ROOT
ATOM      1  N   UNL     1      30.599  21.593   9.137  0.00  0.00    +0.000 NA
ATOM      2  C   UNL     1      30.025  21.109  10.334  0.00  0.00    +0.000 C 
ATOM      3  O   UNL     1      29.986  19.879  10.544  0.00  0.00    +0.000 OA
ENDROOT
BRANCH   1  10
ATOM      4  C   UNL     1      29.837  18.447   5.468  0.00  0.00    +0.000 C 
ATOM      5  C   UNL     1      30.801  19.094   6.414  0.00  0.00    +0.000 A 
ATOM      6  C   UNL     1      32.131  18.820   6.431  0.00  0.00    +0.000 A 
ATOM      7  C   UNL     1      32.998  19.437   7.322  0.00  0.00    +0.000 A 
ATOM      8  C   UNL     1      32.480  20.351   8.211  0.00  0.00    +0.000 A 
ATOM      9  C   UNL     1      33.338  21.053   9.191  0.00  0.00    +0.000 C 
ATOM     10  C   UNL     1      31.113  20.649   8.212  0.00  0.00    +0.000 A 
ATOM     11  C   UNL     1      30.288  20.022   7.319  0.00  0.00    +0.000 A 
ENDBRANCH   1  10
BRANCH   2  12
ATOM     12  C   UNL     1      29.483  22.062  11.312  0.00  0.00    +0.000 A 
ATOM     13  C   UNL     1      30.358  22.786  12.108  0.00  0.00    +0.000 A 
ATOM     14  C   UNL     1      29.819  23.668  13.011  0.00  0.00    +0.000 A 
ATOM     15  C   UNL     1      28.460  23.843  13.138  0.00  0.00    +0.000 A 
ATOM     16  F   UNL     1      27.906  24.706  14.017  0.00  0.00    +0.000 F 
ATOM     17  C   UNL     1      27.568  23.123  12.345  0.00  0.00    +0.000 A 
ATOM     18  C   UNL     1      28.118  22.240  11.441  0.00  0.00    +0.000 A 
BRANCH  17  19
ATOM     19  N   UNL     1      26.159  23.307  12.477  0.00  0.00    +0.000 N 
ATOM     20  O   UNL     1      25.477  22.585  13.232  0.00  0.00    +0.000 OA
ATOM     21  O   UNL     1      25.504  24.304  11.763  0.00  0.00    +0.000 OA
ENDBRANCH  17  19
ENDBRANCH   2  12
TORSDOF 3
ENDMDL
MODEL 6
REMARK VINA RESULT:      -6.9     28.027     30.393
REMARK  Name = 
REMARK  3 active torsions:
REMARK  status: ('A' for Active; 'I' for Inactive)
REMARK    1  A    between atoms: C_7  and  N_8
REMARK    2  A    between atoms: C_9  and  C_11
REMARK    3  A    between atoms: C_16  and  N_17
REMARK                            x       y       z     vdW  Elec       q    Type
REMARK                         _______ _______ _______ _____ _____    ______ ____
ROOT
ATOM      1  N   UNL     1      30.721  22.788  11.745  0.00  0.00    +0.000 NA
ATOM      2  C   UNL     1      31.413  21.686  12.295  0.00  0.00    +0.000 C 
ATOM      3  O   UNL     1      30.987  21.152  13.340  0.00  0.00    +0.000 OA
ENDROOT
BRANCH   1  10
ATOM      4  C   UNL     1      28.662  25.647  15.140  0.00  0.00    +0.000 C 
ATOM      5  C   UNL     1      28.491  24.625  14.059  0.00  0.00    +0.000 A 
ATOM      6  C   UNL     1      27.285  24.119  13.691  0.00  0.00    +0.000 A 
ATOM      7  C   UNL     1      27.162  23.171  12.685  0.00  0.00    +0.000 A 
ATOM      8  C   UNL     1      28.303  22.740  12.049  0.00  0.00    +0.000 A 
ATOM      9  C   UNL     1      28.255  21.733  10.966  0.00  0.00    +0.000 C 
ATOM     10  C   UNL     1      29.556  23.246  12.411  0.00  0.00    +0.000 A 
ATOM     11  C   UNL     1      29.640  24.180  13.408  0.00  0.00    +0.000 A 
ENDBRANCH   1  10
BRANCH   2  12
ATOM     12  C   UNL     1      32.624  21.188  11.628  0.00  0.00    +0.000 A 
ATOM     13  C   UNL     1      33.522  20.413  12.346  0.00  0.00    +0.000 A 
ATOM     14  C   UNL     1      34.642  19.963  11.693  0.00  0.00    +0.000 A 
ATOM     15  C   UNL     1      34.884  20.258  10.371  0.00  0.00    +0.000 A 
ATOM     16  F   UNL     1      35.977  19.826   9.706  0.00  0.00    +0.000 F 
ATOM     17  C   UNL     1      33.990  21.035   9.636  0.00  0.00    +0.000 A 
ATOM     18  C   UNL     1      32.868  21.483  10.300  0.00  0.00    +0.000 A 
BRANCH  17  19
ATOM     19  N   UNL     1      34.242  21.340   8.265  0.00  0.00    +0.000 N 
ATOM     20  O   UNL     1      33.760  20.646   7.345  0.00  0.00    +0.000 OA
ATOM     21  O   UNL     1      35.035  22.425   7.912  0.00  0.00    +0.000 OA
ENDBRANCH  17  19
ENDBRANCH   2  12
TORSDOF 3
ENDMDL
MODEL 7
REMARK VINA RESULT:      -6.9      3.210      7.419
REMARK  Name = 
REMARK  3 active torsions:
REMARK  status: ('A' for Active; 'I' for Inactive)
REMARK    1  A    between atoms: C_7  and  N_8
REMARK    2  A    between atoms: C_9  and  C_11
REMARK    3  A    between atoms: C_16  and  N_17
REMARK                            x       y       z     vdW  Elec       q    Type
REMARK                         _______ _______ _______ _____ _____    ______ ____
ROOT
ATOM      1  N   UNL     1      16.504  11.540  34.120  0.00  0.00    +0.000 NA
ATOM      2  C   UNL     1      15.876  11.427  35.381  0.00  0.00    +0.000 C 
ATOM      3  O   UNL     1      14.663  11.702  35.490  0.00  0.00    +0.000 OA
ENDROOT
BRANCH   1  10
ATOM      4  C   UNL     1      13.427  14.795  32.151  0.00  0.00    +0.000 C 
ATOM      5  C   UNL     1      14.210  13.528  32.000  0.00  0.00    +0.000 A 
ATOM      6  C   UNL     1      14.204  12.773  30.871  0.00  0.00    +0.000 A 
ATOM      7  C   UNL     1      14.941  11.602  30.765  0.00  0.00    +0.000 A 
ATOM      8  C   UNL     1      15.697  11.205  31.844  0.00  0.00    +0.000 A 
ATOM      9  C   UNL     1      16.512   9.971  31.809  0.00  0.00    +0.000 C 
ATOM     10  C   UNL     1      15.720  11.966  33.018  0.00  0.00    +0.000 A 
ATOM     11  C   UNL     1      14.980  13.115  33.087  0.00  0.00    +0.000 A 
ENDBRANCH   1  10
BRANCH   2  12
ATOM     12  C   UNL     1      16.662  10.987  36.542  0.00  0.00    +0.000 A 
ATOM     13  C   UNL     1      16.006  10.672  37.722  0.00  0.00    +0.000 A 
ATOM     14  C   UNL     1      16.770  10.264  38.788  0.00  0.00    +0.000 A 
ATOM     15  C   UNL     1      18.140  10.164  38.707  0.00  0.00    +0.000 A 
ATOM     16  F   UNL     1      18.912   9.764  39.740  0.00  0.00    +0.000 F 
ATOM     17  C   UNL     1      18.813  10.477  37.527  0.00  0.00    +0.000 A 
ATOM     18  C   UNL     1      18.038  10.885  36.463  0.00  0.00    +0.000 A 
BRANCH  17  19
ATOM     19  N   UNL     1      20.233  10.371  37.445  0.00  0.00    +0.000 N 
ATOM     20  O   UNL     1      20.783   9.616  36.617  0.00  0.00    +0.000 OA
ATOM     21  O   UNL     1      21.050  11.112  38.291  0.00  0.00    +0.000 OA
ENDBRANCH  17  19
ENDBRANCH   2  12
TORSDOF 3
ENDMDL
MODEL 8
REMARK VINA RESULT:      -6.8      5.227      7.764
REMARK  Name = 
REMARK  3 active torsions:
REMARK  status: ('A' for Active; 'I' for Inactive)
REMARK    1  A    between atoms: C_7  and  N_8
REMARK    2  A    between atoms: C_9  and  C_11
REMARK    3  A    between atoms: C_16  and  N_17
REMARK                            x       y       z     vdW  Elec       q    Type
REMARK                         _______ _______ _______ _____ _____    ______ ____
ROOT
ATOM      1  N   UNL     1      19.109   9.923  37.743  0.00  0.00    +0.000 NA
ATOM      2  C   UNL     1      20.085  10.893  38.064  0.00  0.00    +0.000 C 
ATOM      3  O   UNL     1      19.777  11.856  38.795  0.00  0.00    +0.000 OA
ENDROOT
BRANCH   1  10
ATOM      4  C   UNL     1      15.945   9.287  41.421  0.00  0.00    +0.000 C 
ATOM      5  C   UNL     1      16.208   9.803  40.040  0.00  0.00    +0.000 A 
ATOM      6  C   UNL     1      15.265  10.413  39.275  0.00  0.00    +0.000 A 
ATOM      7  C   UNL     1      15.542  10.878  37.998  0.00  0.00    +0.000 A 
ATOM      8  C   UNL     1      16.815  10.712  37.503  0.00  0.00    +0.000 A 
ATOM      9  C   UNL     1      17.190  11.183  36.151  0.00  0.00    +0.000 C 
ATOM     10  C   UNL     1      17.803  10.087  38.272  0.00  0.00    +0.000 A 
ATOM     11  C   UNL     1      17.494   9.640  39.527  0.00  0.00    +0.000 A 
ENDBRANCH   1  10
BRANCH   2  12
ATOM     12  C   UNL     1      21.447  10.750  37.532  0.00  0.00    +0.000 A 
ATOM     13  C   UNL     1      21.711   9.753  36.605  0.00  0.00    +0.000 A 
ATOM     14  C   UNL     1      22.994   9.648  36.128  0.00  0.00    +0.000 A 
ATOM     15  C   UNL     1      23.997  10.494  36.541  0.00  0.00    +0.000 A 
ATOM     16  F   UNL     1      25.266  10.411  36.085  0.00  0.00    +0.000 F 
ATOM     17  C   UNL     1      23.747  11.501  37.471  0.00  0.00    +0.000 A 
ATOM     18  C   UNL     1      22.457  11.599  37.945  0.00  0.00    +0.000 A 
BRANCH  17  19
ATOM     19  N   UNL     1      24.789  12.378  37.897  0.00  0.00    +0.000 N 
ATOM     20  O   UNL     1      25.540  12.082  38.850  0.00  0.00    +0.000 OA
ATOM     21  O   UNL     1      24.999  13.594  37.258  0.00  0.00    +0.000 OA
ENDBRANCH  17  19
ENDBRANCH   2  12
TORSDOF 3
ENDMDL
MODEL 9
REMARK VINA RESULT:      -6.8     18.873     19.813
REMARK  Name = 
REMARK  3 active torsions:
REMARK  status: ('A' for Active; 'I' for Inactive)
REMARK    1  A    between atoms: C_7  and  N_8
REMARK    2  A    between atoms: C_9  and  C_11
REMARK    3  A    between atoms: C_16  and  N_17
REMARK                            x       y       z     vdW  Elec       q    Type
REMARK                         _______ _______ _______ _____ _____    ______ ____
ROOT
ATOM      1  N   UNL     1      28.763  22.563  26.880  0.00  0.00    +0.000 NA
ATOM      2  C   UNL     1      28.863  23.729  26.088  0.00  0.00    +0.000 C 
ATOM      3  O   UNL     1      29.541  24.694  26.498  0.00  0.00    +0.000 OA
ENDROOT
BRANCH   1  10
ATOM      4  C   UNL     1      32.926  22.014  29.391  0.00  0.00    +0.000 C 
ATOM      5  C   UNL     1      31.452  22.278  29.408  0.00  0.00    +0.000 A 
ATOM      6  C   UNL     1      30.742  22.491  30.546  0.00  0.00    +0.000 A 
ATOM      7  C   UNL     1      29.376  22.733  30.526  0.00  0.00    +0.000 A 
ATOM      8  C   UNL     1      28.733  22.755  29.310  0.00  0.00    +0.000 A 
ATOM      9  C   UNL     1      27.279  23.008  29.204  0.00  0.00    +0.000 C 
ATOM     10  C   UNL     1      29.443  22.538  28.124  0.00  0.00    +0.000 A 
ATOM     11  C   UNL     1      30.790  22.303  28.181  0.00  0.00    +0.000 A 
ENDBRANCH   1  10
BRANCH   2  12
ATOM     12  C   UNL     1      28.170  23.785  24.794  0.00  0.00    +0.000 A 
ATOM     13  C   UNL     1      26.891  23.259  24.688  0.00  0.00    +0.000 A 
ATOM     14  C   UNL     1      26.272  23.328  23.464  0.00  0.00    +0.000 A 
ATOM     15  C   UNL     1      26.880  23.896  22.369  0.00  0.00    +0.000 A 
ATOM     16  F   UNL     1      26.291  23.977  21.157  0.00  0.00    +0.000 F 
ATOM     17  C   UNL     1      28.165  24.430  22.461  0.00  0.00    +0.000 A 
ATOM     18  C   UNL     1      28.779  24.356  23.692  0.00  0.00    +0.000 A 
BRANCH  17  19
ATOM     19  N   UNL     1      28.794  25.020  21.324  0.00  0.00    +0.000 N 
ATOM     20  O   UNL     1      29.689  24.423  20.692  0.00  0.00    +0.000 OA
ATOM     21  O   UNL     1      28.424  26.286  20.885  0.00  0.00    +0.000 OA
ENDBRANCH  17  19
ENDBRANCH   2  12
TORSDOF 3
ENDMDL
MODEL 10
REMARK VINA RESULT:      -6.8      3.924      7.493
REMARK  Name = 
REMARK  3 active torsions:
REMARK  status: ('A' for Active; 'I' for Inactive)
REMARK    1  A    between atoms: C_7  and  N_8
REMARK    2  A    between atoms: C_9  and  C_11
REMARK    3  A    between atoms: C_16  and  N_17
REMARK                            x       y       z     vdW  Elec       q    Type
REMARK                         _______ _______ _______ _____ _____    ______ ____
ROOT
ATOM      1  N   UNL     1      16.126  10.708  35.971  0.00  0.00    +0.000 NA
ATOM      2  C   UNL     1      17.203  11.241  36.714  0.00  0.00    +0.000 C 
ATOM      3  O   UNL     1      17.637  12.378  36.439  0.00  0.00    +0.000 OA
ENDROOT
BRANCH   1  10
ATOM      4  C   UNL     1      15.998  11.931  31.235  0.00  0.00    +0.000 C 
ATOM      5  C   UNL     1      15.470  12.140  32.620  0.00  0.00    +0.000 A 
ATOM      6  C   UNL     1      14.502  13.042  32.925  0.00  0.00    +0.000 A 
ATOM      7  C   UNL     1      14.035  13.212  34.221  0.00  0.00    +0.000 A 
ATOM      8  C   UNL     1      14.578  12.435  35.218  0.00  0.00    +0.000 A 
ATOM      9  C   UNL     1      14.134  12.554  36.624  0.00  0.00    +0.000 C 
ATOM     10  C   UNL     1      15.577  11.499  34.929  0.00  0.00    +0.000 A 
ATOM     11  C   UNL     1      16.013  11.359  33.639  0.00  0.00    +0.000 A 
ENDBRANCH   1  10
BRANCH   2  12
ATOM     12  C   UNL     1      17.793  10.446  37.801  0.00  0.00    +0.000 A 
ATOM     13  C   UNL     1      19.142  10.133  37.754  0.00  0.00    +0.000 A 
ATOM     14  C   UNL     1      19.662   9.390  38.785  0.00  0.00    +0.000 A 
ATOM     15  C   UNL     1      18.887   8.962  39.838  0.00  0.00    +0.000 A 
ATOM     16  F   UNL     1      19.375   8.232  40.864  0.00  0.00    +0.000 F 
ATOM     17  C   UNL     1      17.529   9.270  39.899  0.00  0.00    +0.000 A 
ATOM     18  C   UNL     1      17.016  10.016  38.861  0.00  0.00    +0.000 A 
BRANCH  17  19
ATOM     19  N   UNL     1      16.727   8.826  40.993  0.00  0.00    +0.000 N 
ATOM     20  O   UNL     1      16.312   7.651  41.061  0.00  0.00    +0.000 OA
ATOM     21  O   UNL     1      16.385   9.697  42.021  0.00  0.00    +0.000 OA
ENDBRANCH  17  19
ENDBRANCH   2  12
TORSDOF 3
ENDMDL
