MODEL 1
REMARK VINA RESULT:      -5.2      0.000      0.000
REMARK  Name = 
REMARK  6 active torsions:
REMARK  status: ('A' for Active; 'I' for Inactive)
REMARK    1  A    between atoms: C_2  and  N_3
REMARK    2  A    between atoms: C_2  and  C_15
REMARK    3  A    between atoms: N_3  and  C_4
REMARK    4  A    between atoms: C_4  and  N_6
REMARK    5  A    between atoms: N_6  and  C_7
REMARK    6  A    between atoms: C_10  and  C_11
REMARK                            x       y       z     vdW  Elec       q    Type
REMARK                         _______ _______ _______ _____ _____    ______ ____
ROOT
ATOM      1  C   UNL     1      29.908  22.703  28.567  0.00  0.00    +0.000 C 
ATOM      2  S   UNL     1      31.296  23.375  29.063  0.00  0.00    +0.000 S 
ENDROOT
BRANCH   1   3
ATOM      3  N   UNL     1      28.742  22.867  29.334  0.00  0.00    +0.000 NA
BRANCH   3   5
ATOM      4  C   UNL     1      28.069  24.376  30.983  0.00  0.00    +0.000 C 
ATOM      5  C   UNL     1      28.048  24.262  29.325  0.00  0.00    +0.000 C 
BRANCH   5   6
ATOM      6  C   UNL     1      26.504  23.690  29.320  0.00  0.00    +0.000 C 
ATOM      7  C   UNL     1      25.726  24.739  30.133  0.00  0.00    +0.000 C 
ATOM      8  C   UNL     1      26.445  22.423  30.022  0.00  0.00    +0.000 C 
ATOM      9  C   UNL     1      25.991  23.762  27.940  0.00  0.00    +0.000 C 
ENDBRANCH   5   6
ENDBRANCH   3   5
ENDBRANCH   1   3
BRANCH   1  10
ATOM     10  N   UNL     1      29.877  21.957  27.380  0.00  0.00    +0.000 NA
BRANCH  10  11
ATOM     11  C   UNL     1      29.769  22.505  26.083  0.00  0.00    +0.000 A 
ATOM     12  C   UNL     1      28.552  22.726  25.484  0.00  0.00    +0.000 A 
ATOM     13  C   UNL     1      28.392  23.258  24.221  0.00  0.00    +0.000 A 
ATOM     14  C   UNL     1      29.546  23.580  23.537  0.00  0.00    +0.000 A 
ATOM     15  C   UNL     1      30.782  23.370  24.114  0.00  0.00    +0.000 A 
ATOM     16  C   UNL     1      30.903  22.836  25.381  0.00  0.00    +0.000 A 
BRANCH  14  17
ATOM     17  C   UNL     1      29.527  24.140  22.221  0.00  0.00    +0.000 C 
ATOM     18  N   UNL     1      29.514  24.599  21.141  0.00  0.00    +0.000 NA
ENDBRANCH  14  17
ENDBRANCH  10  11
ENDBRANCH   1  10
TORSDOF 6
ENDMDL
MODEL 2
REMARK VINA RESULT:      -5.1     18.629     20.937
REMARK  Name = 
REMARK  6 active torsions:
REMARK  status: ('A' for Active; 'I' for Inactive)
REMARK    1  A    between atoms: C_2  and  N_3
REMARK    2  A    between atoms: C_2  and  C_15
REMARK    3  A    between atoms: N_3  and  C_4
REMARK    4  A    between atoms: C_4  and  N_6
REMARK    5  A    between atoms: N_6  and  C_7
REMARK    6  A    between atoms: C_10  and  C_11
REMARK                            x       y       z     vdW  Elec       q    Type
REMARK                         _______ _______ _______ _____ _____    ______ ____
ROOT
ATOM      1  C   UNL     1      18.792   9.884  38.980  0.00  0.00    +0.000 C 
ATOM      2  S   UNL     1      19.945  10.819  39.627  0.00  0.00    +0.000 S 
ENDROOT
BRANCH   1   3
ATOM      3  N   UNL     1      17.674   9.523  39.753  0.00  0.00    +0.000 NA
BRANCH   3   5
ATOM      4  C   UNL     1      17.698   7.414  40.753  0.00  0.00    +0.000 C 
ATOM      5  C   UNL     1      17.920   8.999  41.199  0.00  0.00    +0.000 C 
BRANCH   5   6
ATOM      6  C   UNL     1      16.359   9.141  41.704  0.00  0.00    +0.000 C 
ATOM      7  C   UNL     1      15.934   7.689  41.983  0.00  0.00    +0.000 C 
ATOM      8  C   UNL     1      15.539   9.666  40.631  0.00  0.00    +0.000 C 
ATOM      9  C   UNL     1      16.357   9.836  43.005  0.00  0.00    +0.000 C 
ENDBRANCH   5   6
ENDBRANCH   3   5
ENDBRANCH   1   3
BRANCH   1  10
ATOM     10  N   UNL     1      18.915   9.433  37.658  0.00  0.00    +0.000 NA
BRANCH  10  11
ATOM     11  C   UNL     1      18.238   9.988  36.549  0.00  0.00    +0.000 A 
ATOM     12  C   UNL     1      17.547  11.172  36.634  0.00  0.00    +0.000 A 
ATOM     13  C   UNL     1      16.870  11.754  35.582  0.00  0.00    +0.000 A 
ATOM     14  C   UNL     1      16.906  11.082  34.378  0.00  0.00    +0.000 A 
ATOM     15  C   UNL     1      17.594   9.891  34.263  0.00  0.00    +0.000 A 
ATOM     16  C   UNL     1      18.260   9.338  35.338  0.00  0.00    +0.000 A 
BRANCH  14  17
ATOM     17  C   UNL     1      16.249  11.571  33.205  0.00  0.00    +0.000 C 
ATOM     18  N   UNL     1      15.709  11.974  32.244  0.00  0.00    +0.000 NA
ENDBRANCH  14  17
ENDBRANCH  10  11
ENDBRANCH   1  10
TORSDOF 6
ENDMDL
MODEL 3
REMARK VINA RESULT:      -5.1     26.435     27.958
REMARK  Name = 
REMARK  6 active torsions:
REMARK  status: ('A' for Active; 'I' for Inactive)
REMARK    1  A    between atoms: C_2  and  N_3
REMARK    2  A    between atoms: C_2  and  C_15
REMARK    3  A    between atoms: N_3  and  C_4
REMARK    4  A    between atoms: C_4  and  N_6
REMARK    5  A    between atoms: N_6  and  C_7
REMARK    6  A    between atoms: C_10  and  C_11
REMARK                            x       y       z     vdW  Elec       q    Type
REMARK                         _______ _______ _______ _____ _____    ______ ____
ROOT
ATOM      1  C   UNL     1      34.062  -4.346  34.308  0.00  0.00    +0.000 C 
ATOM      2  S   UNL     1      35.044  -4.480  35.588  0.00  0.00    +0.000 S 
ENDROOT
BRANCH   1   3
ATOM      3  N   UNL     1      34.288  -5.142  33.171  0.00  0.00    +0.000 NA
BRANCH   3   5
ATOM      4  C   UNL     1      32.347  -6.232  32.469  0.00  0.00    +0.000 C 
ATOM      5  C   UNL     1      33.319  -4.985  31.961  0.00  0.00    +0.000 C 
BRANCH   5   6
ATOM      6  C   UNL     1      34.155  -5.968  30.939  0.00  0.00    +0.000 C 
ATOM      7  C   UNL     1      35.592  -5.924  31.488  0.00  0.00    +0.000 C 
ATOM      8  C   UNL     1      34.153  -5.407  29.602  0.00  0.00    +0.000 C 
ATOM      9  C   UNL     1      33.674  -7.348  31.131  0.00  0.00    +0.000 C 
ENDBRANCH   5   6
ENDBRANCH   3   5
ENDBRANCH   1   3
BRANCH   1  10
ATOM     10  N   UNL     1      32.996  -3.436  34.336  0.00  0.00    +0.000 NA
BRANCH  10  11
ATOM     11  C   UNL     1      33.116  -2.044  34.119  0.00  0.00    +0.000 A 
ATOM     12  C   UNL     1      34.021  -1.521  33.227  0.00  0.00    +0.000 A 
ATOM     13  C   UNL     1      34.177  -0.173  32.980  0.00  0.00    +0.000 A 
ATOM     14  C   UNL     1      33.359   0.683  33.688  0.00  0.00    +0.000 A 
ATOM     15  C   UNL     1      32.441   0.185  34.589  0.00  0.00    +0.000 A 
ATOM     16  C   UNL     1      32.312  -1.171  34.811  0.00  0.00    +0.000 A 
BRANCH  14  17
ATOM     17  C   UNL     1      33.414   2.104  33.530  0.00  0.00    +0.000 C 
ATOM     18  N   UNL     1      33.458   3.269  33.399  0.00  0.00    +0.000 NA
ENDBRANCH  14  17
ENDBRANCH  10  11
ENDBRANCH   1  10
TORSDOF 6
ENDMDL
MODEL 4
REMARK VINA RESULT:      -5.1     19.356     21.318
REMARK  Name = 
REMARK  6 active torsions:
REMARK  status: ('A' for Active; 'I' for Inactive)
REMARK    1  A    between atoms: C_2  and  N_3
REMARK    2  A    between atoms: C_2  and  C_15
REMARK    3  A    between atoms: N_3  and  C_4
REMARK    4  A    between atoms: C_4  and  N_6
REMARK    5  A    between atoms: N_6  and  C_7
REMARK    6  A    between atoms: C_10  and  C_11
REMARK                            x       y       z     vdW  Elec       q    Type
REMARK                         _______ _______ _______ _____ _____    ______ ____
ROOT
ATOM      1  C   UNL     1      18.226   9.794  38.474  0.00  0.00    +0.000 C 
ATOM      2  S   UNL     1      19.386  10.920  38.568  0.00  0.00    +0.000 S 
ENDROOT
BRANCH   1   3
ATOM      3  N   UNL     1      17.946   8.989  39.591  0.00  0.00    +0.000 NA
BRANCH   3   5
ATOM      4  C   UNL     1      18.961   8.541  41.645  0.00  0.00    +0.000 C 
ATOM      5  C   UNL     1      17.923   9.664  40.996  0.00  0.00    +0.000 C 
BRANCH   5   6
ATOM      6  C   UNL     1      16.600   8.859  41.555  0.00  0.00    +0.000 C 
ATOM      7  C   UNL     1      15.433   9.501  40.786  0.00  0.00    +0.000 C 
ATOM      8  C   UNL     1      16.424   9.122  42.969  0.00  0.00    +0.000 C 
ATOM      9  C   UNL     1      16.685   7.460  41.097  0.00  0.00    +0.000 C 
ENDBRANCH   5   6
ENDBRANCH   3   5
ENDBRANCH   1   3
BRANCH   1  10
ATOM     10  N   UNL     1      17.512   9.623  37.280  0.00  0.00    +0.000 NA
BRANCH  10  11
ATOM     11  C   UNL     1      16.649  10.586  36.709  0.00  0.00    +0.000 A 
ATOM     12  C   UNL     1      15.675  11.219  37.443  0.00  0.00    +0.000 A 
ATOM     13  C   UNL     1      14.809  12.163  36.934  0.00  0.00    +0.000 A 
ATOM     14  C   UNL     1      14.950  12.474  35.598  0.00  0.00    +0.000 A 
ATOM     15  C   UNL     1      15.920  11.854  34.836  0.00  0.00    +0.000 A 
ATOM     16  C   UNL     1      16.770  10.913  35.380  0.00  0.00    +0.000 A 
BRANCH  14  17
ATOM     17  C   UNL     1      14.120  13.435  34.940  0.00  0.00    +0.000 C 
ATOM     18  N   UNL     1      13.440  14.225  34.401  0.00  0.00    +0.000 NA
ENDBRANCH  14  17
ENDBRANCH  10  11
ENDBRANCH   1  10
TORSDOF 6
ENDMDL
MODEL 5
REMARK VINA RESULT:      -5.1     19.253     22.629
REMARK  Name = 
REMARK  6 active torsions:
REMARK  status: ('A' for Active; 'I' for Inactive)
REMARK    1  A    between atoms: C_2  and  N_3
REMARK    2  A    between atoms: C_2  and  C_15
REMARK    3  A    between atoms: N_3  and  C_4
REMARK    4  A    between atoms: C_4  and  N_6
REMARK    5  A    between atoms: N_6  and  C_7
REMARK    6  A    between atoms: C_10  and  C_11
REMARK                            x       y       z     vdW  Elec       q    Type
REMARK                         _______ _______ _______ _____ _____    ______ ____
ROOT
ATOM      1  C   UNL     1      18.655  10.493  38.281  0.00  0.00    +0.000 C 
ATOM      2  S   UNL     1      19.953  11.244  38.892  0.00  0.00    +0.000 S 
ENDROOT
BRANCH   1   3
ATOM      3  N   UNL     1      17.792  11.188  37.416  0.00  0.00    +0.000 NA
BRANCH   3   5
ATOM      4  C   UNL     1      17.254  10.817  35.175  0.00  0.00    +0.000 C 
ATOM      5  C   UNL     1      16.688  10.377  36.674  0.00  0.00    +0.000 C 
BRANCH   5   6
ATOM      6  C   UNL     1      15.561  11.578  36.671  0.00  0.00    +0.000 C 
ATOM      7  C   UNL     1      16.385  12.849  36.938  0.00  0.00    +0.000 C 
ATOM      8  C   UNL     1      14.635  11.388  37.769  0.00  0.00    +0.000 C 
ATOM      9  C   UNL     1      15.026  11.704  35.303  0.00  0.00    +0.000 C 
ENDBRANCH   5   6
ENDBRANCH   3   5
ENDBRANCH   1   3
BRANCH   1  10
ATOM     10  N   UNL     1      18.395   9.157  38.621  0.00  0.00    +0.000 NA
BRANCH  10  11
ATOM     11  C   UNL     1      17.722   8.737  39.790  0.00  0.00    +0.000 A 
ATOM     12  C   UNL     1      16.721   9.484  40.364  0.00  0.00    +0.000 A 
ATOM     13  C   UNL     1      16.035   9.119  41.503  0.00  0.00    +0.000 A 
ATOM     14  C   UNL     1      16.397   7.922  42.085  0.00  0.00    +0.000 A 
ATOM     15  C   UNL     1      17.398   7.151  41.530  0.00  0.00    +0.000 A 
ATOM     16  C   UNL     1      18.064   7.548  40.387  0.00  0.00    +0.000 A 
BRANCH  14  17
ATOM     17  C   UNL     1      15.769   7.422  43.268  0.00  0.00    +0.000 C 
ATOM     18  N   UNL     1      15.253   7.010  44.239  0.00  0.00    +0.000 NA
ENDBRANCH  14  17
ENDBRANCH  10  11
ENDBRANCH   1  10
TORSDOF 6
ENDMDL
MODEL 6
REMARK VINA RESULT:      -5.1      2.879      4.517
REMARK  Name = 
REMARK  6 active torsions:
REMARK  status: ('A' for Active; 'I' for Inactive)
REMARK    1  A    between atoms: C_2  and  N_3
REMARK    2  A    between atoms: C_2  and  C_15
REMARK    3  A    between atoms: N_3  and  C_4
REMARK    4  A    between atoms: C_4  and  N_6
REMARK    5  A    between atoms: N_6  and  C_7
REMARK    6  A    between atoms: C_10  and  C_11
REMARK                            x       y       z     vdW  Elec       q    Type
REMARK                         _______ _______ _______ _____ _____    ______ ____
ROOT
ATOM      1  C   UNL     1      26.235  24.358  25.976  0.00  0.00    +0.000 C 
ATOM      2  S   UNL     1      25.115  24.788  27.064  0.00  0.00    +0.000 S 
ENDROOT
BRANCH   1   3
ATOM      3  N   UNL     1      27.521  23.991  26.409  0.00  0.00    +0.000 NA
BRANCH   3   5
ATOM      4  C   UNL     1      28.174  22.126  27.652  0.00  0.00    +0.000 C 
ATOM      5  C   UNL     1      28.035  22.563  26.055  0.00  0.00    +0.000 C 
BRANCH   5   6
ATOM      6  C   UNL     1      29.628  22.969  25.961  0.00  0.00    +0.000 C 
ATOM      7  C   UNL     1      30.015  22.588  24.521  0.00  0.00    +0.000 C 
ATOM      8  C   UNL     1      30.399  22.154  26.878  0.00  0.00    +0.000 C 
ATOM      9  C   UNL     1      29.736  24.436  26.050  0.00  0.00    +0.000 C 
ENDBRANCH   5   6
ENDBRANCH   3   5
ENDBRANCH   1   3
BRANCH   1  10
ATOM     10  N   UNL     1      25.921  24.361  24.609  0.00  0.00    +0.000 NA
BRANCH  10  11
ATOM     11  C   UNL     1      26.785  24.802  23.582  0.00  0.00    +0.000 A 
ATOM     12  C   UNL     1      27.221  26.102  23.504  0.00  0.00    +0.000 A 
ATOM     13  C   UNL     1      28.063  26.582  22.523  0.00  0.00    +0.000 A 
ATOM     14  C   UNL     1      28.478  25.677  21.569  0.00  0.00    +0.000 A 
ATOM     15  C   UNL     1      28.056  24.364  21.622  0.00  0.00    +0.000 A 
ATOM     16  C   UNL     1      27.213  23.918  22.620  0.00  0.00    +0.000 A 
BRANCH  14  17
ATOM     17  C   UNL     1      29.351  26.038  20.495  0.00  0.00    +0.000 C 
ATOM     18  N   UNL     1      30.067  26.336  19.614  0.00  0.00    +0.000 NA
ENDBRANCH  14  17
ENDBRANCH  10  11
ENDBRANCH   1  10
TORSDOF 6
ENDMDL
MODEL 7
REMARK VINA RESULT:      -5.1      2.622      3.426
REMARK  Name = 
REMARK  6 active torsions:
REMARK  status: ('A' for Active; 'I' for Inactive)
REMARK    1  A    between atoms: C_2  and  N_3
REMARK    2  A    between atoms: C_2  and  C_15
REMARK    3  A    between atoms: N_3  and  C_4
REMARK    4  A    between atoms: C_4  and  N_6
REMARK    5  A    between atoms: N_6  and  C_7
REMARK    6  A    between atoms: C_10  and  C_11
REMARK                            x       y       z     vdW  Elec       q    Type
REMARK                         _______ _______ _______ _____ _____    ______ ____
ROOT
ATOM      1  C   UNL     1      25.514  24.476  27.471  0.00  0.00    +0.000 C 
ATOM      2  S   UNL     1      25.164  25.927  28.099  0.00  0.00    +0.000 S 
ENDROOT
BRANCH   1   3
ATOM      3  N   UNL     1      26.130  23.500  28.273  0.00  0.00    +0.000 NA
BRANCH   3   5
ATOM      4  C   UNL     1      28.046  22.202  27.971  0.00  0.00    +0.000 C 
ATOM      5  C   UNL     1      27.639  23.678  28.616  0.00  0.00    +0.000 C 
BRANCH   5   6
ATOM      6  C   UNL     1      27.547  23.058  30.139  0.00  0.00    +0.000 C 
ATOM      7  C   UNL     1      27.008  24.231  30.976  0.00  0.00    +0.000 C 
ATOM      8  C   UNL     1      28.873  22.720  30.615  0.00  0.00    +0.000 C 
ATOM      9  C   UNL     1      26.501  22.019  30.151  0.00  0.00    +0.000 C 
ENDBRANCH   5   6
ENDBRANCH   3   5
ENDBRANCH   1   3
BRANCH   1  10
ATOM     10  N   UNL     1      25.208  24.202  26.130  0.00  0.00    +0.000 NA
BRANCH  10  11
ATOM     11  C   UNL     1      26.120  24.303  25.055  0.00  0.00    +0.000 A 
ATOM     12  C   UNL     1      26.427  25.509  24.471  0.00  0.00    +0.000 A 
ATOM     13  C   UNL     1      27.309  25.661  23.422  0.00  0.00    +0.000 A 
ATOM     14  C   UNL     1      27.907  24.512  22.947  0.00  0.00    +0.000 A 
ATOM     15  C   UNL     1      27.618  23.289  23.515  0.00  0.00    +0.000 A 
ATOM     16  C   UNL     1      26.730  23.174  24.565  0.00  0.00    +0.000 A 
BRANCH  14  17
ATOM     17  C   UNL     1      28.842  24.525  21.864  0.00  0.00    +0.000 C 
ATOM     18  N   UNL     1      29.610  24.534  20.976  0.00  0.00    +0.000 NA
ENDBRANCH  14  17
ENDBRANCH  10  11
ENDBRANCH   1  10
TORSDOF 6
ENDMDL
MODEL 8
REMARK VINA RESULT:      -5.0     17.490     19.120
REMARK  Name = 
REMARK  6 active torsions:
REMARK  status: ('A' for Active; 'I' for Inactive)
REMARK    1  A    between atoms: C_2  and  N_3
REMARK    2  A    between atoms: C_2  and  C_15
REMARK    3  A    between atoms: N_3  and  C_4
REMARK    4  A    between atoms: C_4  and  N_6
REMARK    5  A    between atoms: N_6  and  C_7
REMARK    6  A    between atoms: C_10  and  C_11
REMARK                            x       y       z     vdW  Elec       q    Type
REMARK                         _______ _______ _______ _____ _____    ______ ____
ROOT
ATOM      1  C   UNL     1      19.588   9.723  38.559  0.00  0.00    +0.000 C 
ATOM      2  S   UNL     1      19.588   9.618  40.175  0.00  0.00    +0.000 S 
ENDROOT
BRANCH   1   3
ATOM      3  N   UNL     1      20.663  10.344  37.902  0.00  0.00    +0.000 NA
BRANCH   3   5
ATOM      4  C   UNL     1      22.145  12.097  38.330  0.00  0.00    +0.000 C 
ATOM      5  C   UNL     1      22.015  10.475  38.666  0.00  0.00    +0.000 C 
BRANCH   5   6
ATOM      6  C   UNL     1      22.976  10.068  37.393  0.00  0.00    +0.000 C 
ATOM      7  C   UNL     1      23.872  11.305  37.206  0.00  0.00    +0.000 C 
ATOM      8  C   UNL     1      22.170   9.895  36.202  0.00  0.00    +0.000 C 
ATOM      9  C   UNL     1      23.862   8.969  37.818  0.00  0.00    +0.000 C 
ENDBRANCH   5   6
ENDBRANCH   3   5
ENDBRANCH   1   3
BRANCH   1  10
ATOM     10  N   UNL     1      18.514   9.200  37.824  0.00  0.00    +0.000 NA
BRANCH  10  11
ATOM     11  C   UNL     1      17.969   9.787  36.659  0.00  0.00    +0.000 A 
ATOM     12  C   UNL     1      17.139  10.880  36.714  0.00  0.00    +0.000 A 
ATOM     13  C   UNL     1      16.582  11.489  35.609  0.00  0.00    +0.000 A 
ATOM     14  C   UNL     1      16.895  10.944  34.381  0.00  0.00    +0.000 A 
ATOM     15  C   UNL     1      17.727   9.847  34.296  0.00  0.00    +0.000 A 
ATOM     16  C   UNL     1      18.267   9.263  35.424  0.00  0.00    +0.000 A 
BRANCH  14  17
ATOM     17  C   UNL     1      16.388  11.475  33.153  0.00  0.00    +0.000 C 
ATOM     18  N   UNL     1      15.973  11.910  32.145  0.00  0.00    +0.000 NA
ENDBRANCH  14  17
ENDBRANCH  10  11
ENDBRANCH   1  10
TORSDOF 6
ENDMDL
MODEL 9
REMARK VINA RESULT:      -4.9      3.330      5.338
REMARK  Name = 
REMARK  6 active torsions:
REMARK  status: ('A' for Active; 'I' for Inactive)
REMARK    1  A    between atoms: C_2  and  N_3
REMARK    2  A    between atoms: C_2  and  C_15
REMARK    3  A    between atoms: N_3  and  C_4
REMARK    4  A    between atoms: C_4  and  N_6
REMARK    5  A    between atoms: N_6  and  C_7
REMARK    6  A    between atoms: C_10  and  C_11
REMARK                            x       y       z     vdW  Elec       q    Type
REMARK                         _______ _______ _______ _____ _____    ______ ____
ROOT
ATOM      1  C   UNL     1      29.333  24.587  22.936  0.00  0.00    +0.000 C 
ATOM      2  S   UNL     1      29.193  24.977  21.370  0.00  0.00    +0.000 S 
ENDROOT
BRANCH   1   3
ATOM      3  N   UNL     1      28.449  25.146  23.874  0.00  0.00    +0.000 NA
BRANCH   3   5
ATOM      4  C   UNL     1      26.585  26.547  23.994  0.00  0.00    +0.000 C 
ATOM      5  C   UNL     1      26.919  24.957  23.645  0.00  0.00    +0.000 C 
BRANCH   5   6
ATOM      6  C   UNL     1      26.570  24.479  25.181  0.00  0.00    +0.000 C 
ATOM      7  C   UNL     1      25.205  25.132  25.462  0.00  0.00    +0.000 C 
ATOM      8  C   UNL     1      27.544  25.029  26.102  0.00  0.00    +0.000 C 
ATOM      9  C   UNL     1      26.344  23.022  25.170  0.00  0.00    +0.000 C 
ENDBRANCH   5   6
ENDBRANCH   3   5
ENDBRANCH   1   3
BRANCH   1  10
ATOM     10  N   UNL     1      30.338  23.700  23.349  0.00  0.00    +0.000 NA
BRANCH  10  11
ATOM     11  C   UNL     1      30.632  23.382  24.694  0.00  0.00    +0.000 A 
ATOM     12  C   UNL     1      31.550  24.095  25.428  0.00  0.00    +0.000 A 
ATOM     13  C   UNL     1      31.873  23.825  26.741  0.00  0.00    +0.000 A 
ATOM     14  C   UNL     1      31.217  22.765  27.333  0.00  0.00    +0.000 A 
ATOM     15  C   UNL     1      30.290  22.033  26.621  0.00  0.00    +0.000 A 
ATOM     16  C   UNL     1      29.991  22.332  25.306  0.00  0.00    +0.000 A 
BRANCH  14  17
ATOM     17  C   UNL     1      31.455  22.376  28.689  0.00  0.00    +0.000 C 
ATOM     18  N   UNL     1      31.648  22.057  29.801  0.00  0.00    +0.000 NA
ENDBRANCH  14  17
ENDBRANCH  10  11
ENDBRANCH   1  10
TORSDOF 6
ENDMDL
MODEL 10
REMARK VINA RESULT:      -4.9     18.702     20.968
REMARK  Name = 
REMARK  6 active torsions:
REMARK  status: ('A' for Active; 'I' for Inactive)
REMARK    1  A    between atoms: C_2  and  N_3
REMARK    2  A    between atoms: C_2  and  C_15
REMARK    3  A    between atoms: N_3  and  C_4
REMARK    4  A    between atoms: C_4  and  N_6
REMARK    5  A    between atoms: N_6  and  C_7
REMARK    6  A    between atoms: C_10  and  C_11
REMARK                            x       y       z     vdW  Elec       q    Type
REMARK                         _______ _______ _______ _____ _____    ______ ____
ROOT
ATOM      1  C   UNL     1      18.559   9.582  38.215  0.00  0.00    +0.000 C 
ATOM      2  S   UNL     1      19.959  10.223  37.713  0.00  0.00    +0.000 S 
ENDROOT
BRANCH   1   3
ATOM      3  N   UNL     1      18.571   8.501  39.112  0.00  0.00    +0.000 NA
BRANCH   3   5
ATOM      4  C   UNL     1      18.412   9.470  41.230  0.00  0.00    +0.000 C 
ATOM      5  C   UNL     1      17.507   8.479  40.251  0.00  0.00    +0.000 C 
BRANCH   5   6
ATOM      6  C   UNL     1      18.073   7.123  40.993  0.00  0.00    +0.000 C 
ATOM      7  C   UNL     1      18.979   7.671  42.109  0.00  0.00    +0.000 C 
ATOM      8  C   UNL     1      18.887   6.358  40.070  0.00  0.00    +0.000 C 
ATOM      9  C   UNL     1      16.940   6.457  41.661  0.00  0.00    +0.000 C 
ENDBRANCH   5   6
ENDBRANCH   3   5
ENDBRANCH   1   3
BRANCH   1  10
ATOM     10  N   UNL     1      17.344  10.104  37.749  0.00  0.00    +0.000 NA
BRANCH  10  11
ATOM     11  C   UNL     1      17.038  10.353  36.392  0.00  0.00    +0.000 A 
ATOM     12  C   UNL     1      16.241  11.403  36.005  0.00  0.00    +0.000 A 
ATOM     13  C   UNL     1      15.914  11.688  34.696  0.00  0.00    +0.000 A 
ATOM     14  C   UNL     1      16.432  10.848  33.733  0.00  0.00    +0.000 A 
ATOM     15  C   UNL     1      17.236   9.786  34.093  0.00  0.00    +0.000 A 
ATOM     16  C   UNL     1      17.543   9.531  35.414  0.00  0.00    +0.000 A 
BRANCH  14  17
ATOM     17  C   UNL     1      16.174  11.027  32.337  0.00  0.00    +0.000 C 
ATOM     18  N   UNL     1      15.963  11.175  31.192  0.00  0.00    +0.000 NA
ENDBRANCH  14  17
ENDBRANCH  10  11
ENDBRANCH   1  10
TORSDOF 6
ENDMDL
