MODEL 1
REMARK VINA RESULT:      -7.2      0.000      0.000
REMARK  Name = 
REMARK  9 active torsions:
REMARK  status: ('A' for Active; 'I' for Inactive)
REMARK    1  A    between atoms: O_2  and  C_3
REMARK    2  A    between atoms: C_6  and  S_7
REMARK    3  A    between atoms: S_7  and  N_10
REMARK    4  A    between atoms: N_10  and  C_11
REMARK    5  A    between atoms: C_11  and  C_13
REMARK    6  A    between atoms: C_13  and  C_14
REMARK    7  A    between atoms: C_14  and  C_15
REMARK    8  A    between atoms: N_17  and  C_18
REMARK    9  A    between atoms: C_18  and  C_19
REMARK                            x       y       z     vdW  Elec       q    Type
REMARK                         _______ _______ _______ _____ _____    ______ ____
ROOT
ATOM      1  C   UNL     1      37.530   1.970  12.317  0.00  0.00    +0.000 C 
ENDROOT
BRANCH   1   2
ATOM      2  C   UNL     1      37.096   2.238  13.711  0.00  0.00    +0.000 A 
ATOM      3  C   UNL     1      35.998   1.720  14.368  0.00  0.00    +0.000 A 
ATOM      4  N   UNL     1      35.906   2.184  15.622  0.00  0.00    +0.000 N 
ATOM      5  C   UNL     1      36.956   3.011  15.783  0.00  0.00    +0.000 A 
ATOM      6  C   UNL     1      37.309   3.745  16.915  0.00  0.00    +0.000 A 
ATOM      7  C   UNL     1      38.423   4.543  16.896  0.00  0.00    +0.000 A 
ATOM      8  C   UNL     1      39.179   4.607  15.751  0.00  0.00    +0.000 A 
ATOM      9  C   UNL     1      38.825   3.872  14.620  0.00  0.00    +0.000 A 
ATOM     10  C   UNL     1      37.705   3.067  14.632  0.00  0.00    +0.000 A 
BRANCH   4  11
ATOM     11  C   UNL     1      34.878   1.867  16.625  0.00  0.00    +0.000 C 
BRANCH  11  12
ATOM     12  C   UNL     1      35.293   0.630  17.313  0.00  0.00    +0.000 A 
ATOM     13  C   UNL     1      36.124   0.618  18.401  0.00  0.00    +0.000 A 
ATOM     14  C   UNL     1      36.499  -0.577  19.031  0.00  0.00    +0.000 A 
ATOM     15  C   UNL     1      36.009  -1.737  18.525  0.00  0.00    +0.000 A 
ATOM     16  C   UNL     1      35.177  -1.753  17.439  0.00  0.00    +0.000 A 
ATOM     17  C   UNL     1      34.822  -0.566  16.837  0.00  0.00    +0.000 A 
ENDBRANCH  11  12
ENDBRANCH   4  11
ENDBRANCH   1   2
BRANCH   1  18
ATOM     18  C   UNL     1      37.766   0.502  12.059  0.00  0.00    +0.000 C 
BRANCH  18  19
ATOM     19  C   UNL     1      39.242   0.306  12.823  0.00  0.00    +0.000 C 
ATOM     20  C   UNL     1      40.036   0.098  11.384  0.00  0.00    +0.000 C 
BRANCH  19  21
ATOM     21  N   UNL     1      39.013  -1.249  13.023  0.00  0.00    +0.000 NA
BRANCH  21  22
ATOM     22  S   UNL     1      39.126  -1.496  14.729  0.00  0.00    +0.000 S 
ATOM     23  O   UNL     1      38.714  -0.282  15.507  0.00  0.00    +0.000 OA
ATOM     24  O   UNL     1      40.560  -1.853  15.008  0.00  0.00    +0.000 OA
BRANCH  22  28
ATOM     25  C   UNL     1      36.364  -4.848  15.830  0.00  0.00    +0.000 A 
ATOM     26  C   UNL     1      37.485  -4.610  16.568  0.00  0.00    +0.000 A 
ATOM     27  C   UNL     1      38.331  -3.581  16.229  0.00  0.00    +0.000 A 
ATOM     28  C   UNL     1      38.046  -2.792  15.147  0.00  0.00    +0.000 A 
ATOM     29  C   UNL     1      36.927  -3.015  14.396  0.00  0.00    +0.000 A 
ATOM     30  C   UNL     1      36.067  -4.046  14.722  0.00  0.00    +0.000 A 
BRANCH  25  32
ATOM     31  C   UNL     1      34.487  -6.284  15.321  0.00  0.00    +0.000 C 
ATOM     32  O   UNL     1      35.524  -5.889  16.188  0.00  0.00    +0.000 OA
ENDBRANCH  25  32
ENDBRANCH  22  28
ENDBRANCH  21  22
ENDBRANCH  19  21
ENDBRANCH  18  19
ENDBRANCH   1  18
TORSDOF 9
ENDMDL
MODEL 2
REMARK VINA RESULT:      -7.2      2.251      5.335
REMARK  Name = 
REMARK  9 active torsions:
REMARK  status: ('A' for Active; 'I' for Inactive)
REMARK    1  A    between atoms: O_2  and  C_3
REMARK    2  A    between atoms: C_6  and  S_7
REMARK    3  A    between atoms: S_7  and  N_10
REMARK    4  A    between atoms: N_10  and  C_11
REMARK    5  A    between atoms: C_11  and  C_13
REMARK    6  A    between atoms: C_13  and  C_14
REMARK    7  A    between atoms: C_14  and  C_15
REMARK    8  A    between atoms: N_17  and  C_18
REMARK    9  A    between atoms: C_18  and  C_19
REMARK                            x       y       z     vdW  Elec       q    Type
REMARK                         _______ _______ _______ _____ _____    ______ ____
ROOT
ATOM      1  C   UNL     1      36.120   1.017  15.818  0.00  0.00    +0.000 C 
ENDROOT
BRANCH   1   2
ATOM      2  C   UNL     1      37.083   2.089  15.463  0.00  0.00    +0.000 A 
ATOM      3  C   UNL     1      37.005   3.432  15.774  0.00  0.00    +0.000 A 
ATOM      4  N   UNL     1      38.051   4.115  15.287  0.00  0.00    +0.000 N 
ATOM      5  C   UNL     1      38.817   3.207  14.654  0.00  0.00    +0.000 A 
ATOM      6  C   UNL     1      40.021   3.415  13.981  0.00  0.00    +0.000 A 
ATOM      7  C   UNL     1      40.667   2.361  13.390  0.00  0.00    +0.000 A 
ATOM      8  C   UNL     1      40.113   1.106  13.471  0.00  0.00    +0.000 A 
ATOM      9  C   UNL     1      38.910   0.900  14.146  0.00  0.00    +0.000 A 
ATOM     10  C   UNL     1      38.253   1.957  14.743  0.00  0.00    +0.000 A 
BRANCH   4  11
ATOM     11  C   UNL     1      38.319   5.555  15.409  0.00  0.00    +0.000 C 
BRANCH  11  12
ATOM     12  C   UNL     1      39.112   5.760  16.636  0.00  0.00    +0.000 A 
ATOM     13  C   UNL     1      38.595   5.618  17.896  0.00  0.00    +0.000 A 
ATOM     14  C   UNL     1      39.378   5.822  19.041  0.00  0.00    +0.000 A 
ATOM     15  C   UNL     1      40.678   6.168  18.864  0.00  0.00    +0.000 A 
ATOM     16  C   UNL     1      41.218   6.317  17.616  0.00  0.00    +0.000 A 
ATOM     17  C   UNL     1      40.429   6.112  16.505  0.00  0.00    +0.000 A 
ENDBRANCH  11  12
ENDBRANCH   4  11
ENDBRANCH   1   2
BRANCH   1  18
ATOM     18  C   UNL     1      35.709   1.069  17.269  0.00  0.00    +0.000 C 
BRANCH  18  19
ATOM     19  C   UNL     1      35.704  -0.566  17.628  0.00  0.00    +0.000 C 
ATOM     20  C   UNL     1      35.662  -0.276  19.259  0.00  0.00    +0.000 C 
BRANCH  19  21
ATOM     21  N   UNL     1      37.286  -0.652  17.595  0.00  0.00    +0.000 NA
BRANCH  21  22
ATOM     22  S   UNL     1      37.631  -2.324  17.330  0.00  0.00    +0.000 S 
ATOM     23  O   UNL     1      36.390  -3.165  17.316  0.00  0.00    +0.000 OA
ATOM     24  O   UNL     1      38.553  -2.743  18.442  0.00  0.00    +0.000 OA
BRANCH  22  28
ATOM     25  C   UNL     1      39.620  -2.682  13.331  0.00  0.00    +0.000 A 
ATOM     26  C   UNL     1      40.368  -2.518  14.460  0.00  0.00    +0.000 A 
ATOM     27  C   UNL     1      39.756  -2.409  15.685  0.00  0.00    +0.000 A 
ATOM     28  C   UNL     1      38.391  -2.466  15.774  0.00  0.00    +0.000 A 
ATOM     29  C   UNL     1      37.625  -2.630  14.655  0.00  0.00    +0.000 A 
ATOM     30  C   UNL     1      38.225  -2.740  13.415  0.00  0.00    +0.000 A 
BRANCH  25  32
ATOM     31  C   UNL     1      41.505  -2.174  11.906  0.00  0.00    +0.000 C 
ATOM     32  O   UNL     1      40.255  -2.790  12.105  0.00  0.00    +0.000 OA
ENDBRANCH  25  32
ENDBRANCH  22  28
ENDBRANCH  21  22
ENDBRANCH  19  21
ENDBRANCH  18  19
ENDBRANCH   1  18
TORSDOF 9
ENDMDL
MODEL 3
REMARK VINA RESULT:      -7.1      1.130      1.697
REMARK  Name = 
REMARK  9 active torsions:
REMARK  status: ('A' for Active; 'I' for Inactive)
REMARK    1  A    between atoms: O_2  and  C_3
REMARK    2  A    between atoms: C_6  and  S_7
REMARK    3  A    between atoms: S_7  and  N_10
REMARK    4  A    between atoms: N_10  and  C_11
REMARK    5  A    between atoms: C_11  and  C_13
REMARK    6  A    between atoms: C_13  and  C_14
REMARK    7  A    between atoms: C_14  and  C_15
REMARK    8  A    between atoms: N_17  and  C_18
REMARK    9  A    between atoms: C_18  and  C_19
REMARK                            x       y       z     vdW  Elec       q    Type
REMARK                         _______ _______ _______ _____ _____    ______ ____
ROOT
ATOM      1  C   UNL     1      38.925   1.198  12.886  0.00  0.00    +0.000 C 
ENDROOT
BRANCH   1   2
ATOM      2  C   UNL     1      38.113   1.737  14.005  0.00  0.00    +0.000 A 
ATOM      3  C   UNL     1      36.912   1.256  14.486  0.00  0.00    +0.000 A 
ATOM      4  N   UNL     1      36.455   1.995  15.507  0.00  0.00    +0.000 N 
ATOM      5  C   UNL     1      37.368   2.966  15.692  0.00  0.00    +0.000 A 
ATOM      6  C   UNL     1      37.355   3.993  16.636  0.00  0.00    +0.000 A 
ATOM      7  C   UNL     1      38.381   4.901  16.677  0.00  0.00    +0.000 A 
ATOM      8  C   UNL     1      39.414   4.783  15.779  0.00  0.00    +0.000 A 
ATOM      9  C   UNL     1      39.426   3.755  14.836  0.00  0.00    +0.000 A 
ATOM     10  C   UNL     1      38.397   2.838  14.789  0.00  0.00    +0.000 A 
BRANCH   4  11
ATOM     11  C   UNL     1      35.215   1.801  16.273  0.00  0.00    +0.000 C 
BRANCH  11  12
ATOM     12  C   UNL     1      35.386   0.589  17.098  0.00  0.00    +0.000 A 
ATOM     13  C   UNL     1      34.809  -0.614  16.792  0.00  0.00    +0.000 A 
ATOM     14  C   UNL     1      34.991  -1.746  17.600  0.00  0.00    +0.000 A 
ATOM     15  C   UNL     1      35.765  -1.613  18.706  0.00  0.00    +0.000 A 
ATOM     16  C   UNL     1      36.353  -0.422  19.034  0.00  0.00    +0.000 A 
ATOM     17  C   UNL     1      36.159   0.677  18.225  0.00  0.00    +0.000 A 
ENDBRANCH  11  12
ENDBRANCH   4  11
ENDBRANCH   1   2
BRANCH   1  18
ATOM     18  C   UNL     1      38.987  -0.310  12.895  0.00  0.00    +0.000 C 
BRANCH  18  19
ATOM     19  C   UNL     1      39.915  -0.555  14.267  0.00  0.00    +0.000 C 
ATOM     20  C   UNL     1      41.323  -0.572  13.394  0.00  0.00    +0.000 C 
BRANCH  19  21
ATOM     21  N   UNL     1      39.744  -2.128  14.188  0.00  0.00    +0.000 NA
BRANCH  21  22
ATOM     22  S   UNL     1      39.155  -2.586  15.747  0.00  0.00    +0.000 S 
ATOM     23  O   UNL     1      38.953  -1.404  16.647  0.00  0.00    +0.000 OA
ATOM     24  O   UNL     1      40.175  -3.532  16.319  0.00  0.00    +0.000 OA
BRANCH  22  28
ATOM     25  C   UNL     1      35.173  -4.552  15.148  0.00  0.00    +0.000 A 
ATOM     26  C   UNL     1      35.551  -3.508  14.357  0.00  0.00    +0.000 A 
ATOM     27  C   UNL     1      36.773  -2.907  14.541  0.00  0.00    +0.000 A 
ATOM     28  C   UNL     1      37.614  -3.358  15.523  0.00  0.00    +0.000 A 
ATOM     29  C   UNL     1      37.253  -4.402  16.326  0.00  0.00    +0.000 A 
ATOM     30  C   UNL     1      36.027  -5.017  16.154  0.00  0.00    +0.000 A 
BRANCH  25  32
ATOM     31  C   UNL     1      32.772  -4.517  15.425  0.00  0.00    +0.000 C 
ATOM     32  O   UNL     1      33.938  -5.144  14.946  0.00  0.00    +0.000 OA
ENDBRANCH  25  32
ENDBRANCH  22  28
ENDBRANCH  21  22
ENDBRANCH  19  21
ENDBRANCH  18  19
ENDBRANCH   1  18
TORSDOF 9
ENDMDL
MODEL 4
REMARK VINA RESULT:      -7.0      3.683      7.558
REMARK  Name = 
REMARK  9 active torsions:
REMARK  status: ('A' for Active; 'I' for Inactive)
REMARK    1  A    between atoms: O_2  and  C_3
REMARK    2  A    between atoms: C_6  and  S_7
REMARK    3  A    between atoms: S_7  and  N_10
REMARK    4  A    between atoms: N_10  and  C_11
REMARK    5  A    between atoms: C_11  and  C_13
REMARK    6  A    between atoms: C_13  and  C_14
REMARK    7  A    between atoms: C_14  and  C_15
REMARK    8  A    between atoms: N_17  and  C_18
REMARK    9  A    between atoms: C_18  and  C_19
REMARK                            x       y       z     vdW  Elec       q    Type
REMARK                         _______ _______ _______ _____ _____    ______ ____
ROOT
ATOM      1  C   UNL     1      39.493   2.504  14.011  0.00  0.00    +0.000 C 
ENDROOT
BRANCH   1   2
ATOM      2  C   UNL     1      39.270   1.083  14.377  0.00  0.00    +0.000 A 
ATOM      3  C   UNL     1      38.089   0.488  14.774  0.00  0.00    +0.000 A 
ATOM      4  N   UNL     1      38.254  -0.817  15.033  0.00  0.00    +0.000 N 
ATOM      5  C   UNL     1      39.555  -1.074  14.800  0.00  0.00    +0.000 A 
ATOM      6  C   UNL     1      40.229  -2.288  14.925  0.00  0.00    +0.000 A 
ATOM      7  C   UNL     1      41.569  -2.362  14.643  0.00  0.00    +0.000 A 
ATOM      8  C   UNL     1      42.230  -1.227  14.239  0.00  0.00    +0.000 A 
ATOM      9  C   UNL     1      41.554  -0.014  14.115  0.00  0.00    +0.000 A 
ATOM     10  C   UNL     1      40.206   0.068  14.397  0.00  0.00    +0.000 A 
BRANCH   4  11
ATOM     11  C   UNL     1      37.238  -1.780  15.480  0.00  0.00    +0.000 C 
BRANCH  11  12
ATOM     12  C   UNL     1      36.901  -1.456  16.880  0.00  0.00    +0.000 A 
ATOM     13  C   UNL     1      35.729  -0.851  17.249  0.00  0.00    +0.000 A 
ATOM     14  C   UNL     1      35.442  -0.556  18.589  0.00  0.00    +0.000 A 
ATOM     15  C   UNL     1      36.369  -0.890  19.521  0.00  0.00    +0.000 A 
ATOM     16  C   UNL     1      37.548  -1.495  19.179  0.00  0.00    +0.000 A 
ATOM     17  C   UNL     1      37.808  -1.775  17.855  0.00  0.00    +0.000 A 
ENDBRANCH  11  12
ENDBRANCH   4  11
ENDBRANCH   1   2
BRANCH   1  18
ATOM     18  C   UNL     1      38.203   3.274  13.882  0.00  0.00    +0.000 C 
BRANCH  18  19
ATOM     19  C   UNL     1      38.789   4.840  13.958  0.00  0.00    +0.000 C 
ATOM     20  C   UNL     1      40.022   4.502  12.904  0.00  0.00    +0.000 C 
BRANCH  19  21
ATOM     21  N   UNL     1      39.674   4.523  15.234  0.00  0.00    +0.000 NA
BRANCH  21  22
ATOM     22  S   UNL     1      38.736   5.081  16.572  0.00  0.00    +0.000 S 
ATOM     23  O   UNL     1      37.967   3.973  17.228  0.00  0.00    +0.000 OA
ATOM     24  O   UNL     1      37.807   6.130  16.025  0.00  0.00    +0.000 OA
BRANCH  22  28
ATOM     25  C   UNL     1      41.539   6.783  19.625  0.00  0.00    +0.000 A 
ATOM     26  C   UNL     1      40.278   6.408  19.982  0.00  0.00    +0.000 A 
ATOM     27  C   UNL     1      39.420   5.886  19.044  0.00  0.00    +0.000 A 
ATOM     28  C   UNL     1      39.832   5.741  17.747  0.00  0.00    +0.000 A 
ATOM     29  C   UNL     1      41.092   6.110  17.370  0.00  0.00    +0.000 A 
ATOM     30  C   UNL     1      41.967   6.638  18.300  0.00  0.00    +0.000 A 
BRANCH  25  32
ATOM     31  C   UNL     1      43.212   6.449  21.337  0.00  0.00    +0.000 C 
ATOM     32  O   UNL     1      42.389   7.307  20.584  0.00  0.00    +0.000 OA
ENDBRANCH  25  32
ENDBRANCH  22  28
ENDBRANCH  21  22
ENDBRANCH  19  21
ENDBRANCH  18  19
ENDBRANCH   1  18
TORSDOF 9
ENDMDL
MODEL 5
REMARK VINA RESULT:      -6.9      2.081      4.750
REMARK  Name = 
REMARK  9 active torsions:
REMARK  status: ('A' for Active; 'I' for Inactive)
REMARK    1  A    between atoms: O_2  and  C_3
REMARK    2  A    between atoms: C_6  and  S_7
REMARK    3  A    between atoms: S_7  and  N_10
REMARK    4  A    between atoms: N_10  and  C_11
REMARK    5  A    between atoms: C_11  and  C_13
REMARK    6  A    between atoms: C_13  and  C_14
REMARK    7  A    between atoms: C_14  and  C_15
REMARK    8  A    between atoms: N_17  and  C_18
REMARK    9  A    between atoms: C_18  and  C_19
REMARK                            x       y       z     vdW  Elec       q    Type
REMARK                         _______ _______ _______ _____ _____    ______ ____
ROOT
ATOM      1  C   UNL     1      35.405  -0.842  17.279  0.00  0.00    +0.000 C 
ENDROOT
BRANCH   1   2
ATOM      2  C   UNL     1      35.807  -0.129  16.041  0.00  0.00    +0.000 A 
ATOM      3  C   UNL     1      36.554  -0.619  14.988  0.00  0.00    +0.000 A 
ATOM      4  N   UNL     1      36.731   0.305  14.034  0.00  0.00    +0.000 N 
ATOM      5  C   UNL     1      36.093   1.407  14.469  0.00  0.00    +0.000 A 
ATOM      6  C   UNL     1      35.981   2.646  13.837  0.00  0.00    +0.000 A 
ATOM      7  C   UNL     1      35.285   3.663  14.437  0.00  0.00    +0.000 A 
ATOM      8  C   UNL     1      34.705   3.443  15.663  0.00  0.00    +0.000 A 
ATOM      9  C   UNL     1      34.817   2.204  16.294  0.00  0.00    +0.000 A 
ATOM     10  C   UNL     1      35.516   1.176  15.695  0.00  0.00    +0.000 A 
BRANCH   4  11
ATOM     11  C   UNL     1      37.469   0.162  12.770  0.00  0.00    +0.000 C 
BRANCH  11  12
ATOM     12  C   UNL     1      38.766  -0.469  13.079  0.00  0.00    +0.000 A 
ATOM     13  C   UNL     1      39.098  -1.736  12.680  0.00  0.00    +0.000 A 
ATOM     14  C   UNL     1      40.340  -2.307  12.993  0.00  0.00    +0.000 A 
ATOM     15  C   UNL     1      41.214  -1.558  13.711  0.00  0.00    +0.000 A 
ATOM     16  C   UNL     1      40.907  -0.290  14.123  0.00  0.00    +0.000 A 
ATOM     17  C   UNL     1      39.680   0.249  13.803  0.00  0.00    +0.000 A 
ENDBRANCH  11  12
ENDBRANCH   4  11
ENDBRANCH   1   2
BRANCH   1  18
ATOM     18  C   UNL     1      36.460  -0.765  18.355  0.00  0.00    +0.000 C 
BRANCH  18  19
ATOM     19  C   UNL     1      36.854  -2.386  18.493  0.00  0.00    +0.000 C 
ATOM     20  C   UNL     1      37.433  -2.184  20.032  0.00  0.00    +0.000 C 
BRANCH  19  21
ATOM     21  N   UNL     1      38.279  -2.170  17.833  0.00  0.00    +0.000 NA
BRANCH  21  22
ATOM     22  S   UNL     1      38.733  -3.729  17.243  0.00  0.00    +0.000 S 
ATOM     23  O   UNL     1      39.076  -4.678  18.353  0.00  0.00    +0.000 OA
ATOM     24  O   UNL     1      39.915  -3.507  16.340  0.00  0.00    +0.000 OA
BRANCH  22  28
ATOM     25  C   UNL     1      35.231  -5.389  14.997  0.00  0.00    +0.000 A 
ATOM     26  C   UNL     1      35.876  -4.277  14.542  0.00  0.00    +0.000 A 
ATOM     27  C   UNL     1      36.951  -3.770  15.232  0.00  0.00    +0.000 A 
ATOM     28  C   UNL     1      37.375  -4.383  16.380  0.00  0.00    +0.000 A 
ATOM     29  C   UNL     1      36.742  -5.498  16.851  0.00  0.00    +0.000 A 
ATOM     30  C   UNL     1      35.659  -6.020  16.170  0.00  0.00    +0.000 A 
BRANCH  25  32
ATOM     31  C   UNL     1      33.875  -7.266  14.302  0.00  0.00    +0.000 C 
ATOM     32  O   UNL     1      34.150  -5.885  14.287  0.00  0.00    +0.000 OA
ENDBRANCH  25  32
ENDBRANCH  22  28
ENDBRANCH  21  22
ENDBRANCH  19  21
ENDBRANCH  18  19
ENDBRANCH   1  18
TORSDOF 9
ENDMDL
MODEL 6
REMARK VINA RESULT:      -6.8      4.091      7.182
REMARK  Name = 
REMARK  9 active torsions:
REMARK  status: ('A' for Active; 'I' for Inactive)
REMARK    1  A    between atoms: O_2  and  C_3
REMARK    2  A    between atoms: C_6  and  S_7
REMARK    3  A    between atoms: S_7  and  N_10
REMARK    4  A    between atoms: N_10  and  C_11
REMARK    5  A    between atoms: C_11  and  C_13
REMARK    6  A    between atoms: C_13  and  C_14
REMARK    7  A    between atoms: C_14  and  C_15
REMARK    8  A    between atoms: N_17  and  C_18
REMARK    9  A    between atoms: C_18  and  C_19
REMARK                            x       y       z     vdW  Elec       q    Type
REMARK                         _______ _______ _______ _____ _____    ______ ____
ROOT
ATOM      1  C   UNL     1      39.403  -1.969  15.251  0.00  0.00    +0.000 C 
ENDROOT
BRANCH   1   2
ATOM      2  C   UNL     1      40.659  -1.395  14.705  0.00  0.00    +0.000 A 
ATOM      3  C   UNL     1      41.912  -1.973  14.681  0.00  0.00    +0.000 A 
ATOM      4  N   UNL     1      42.820  -1.165  14.115  0.00  0.00    +0.000 N 
ATOM      5  C   UNL     1      42.151  -0.051  13.767  0.00  0.00    +0.000 A 
ATOM      6  C   UNL     1      42.647   1.094  13.144  0.00  0.00    +0.000 A 
ATOM      7  C   UNL     1      41.809   2.142  12.864  0.00  0.00    +0.000 A 
ATOM      8  C   UNL     1      40.482   2.046  13.206  0.00  0.00    +0.000 A 
ATOM      9  C   UNL     1      39.987   0.901  13.829  0.00  0.00    +0.000 A 
ATOM     10  C   UNL     1      40.825  -0.158  14.114  0.00  0.00    +0.000 A 
BRANCH   4  11
ATOM     11  C   UNL     1      44.252  -1.426  13.912  0.00  0.00    +0.000 C 
BRANCH  11  12
ATOM     12  C   UNL     1      44.911  -1.349  15.230  0.00  0.00    +0.000 A 
ATOM     13  C   UNL     1      44.996  -0.194  15.960  0.00  0.00    +0.000 A 
ATOM     14  C   UNL     1      45.632  -0.157  17.209  0.00  0.00    +0.000 A 
ATOM     15  C   UNL     1      46.167  -1.311  17.680  0.00  0.00    +0.000 A 
ATOM     16  C   UNL     1      46.096  -2.479  16.970  0.00  0.00    +0.000 A 
ATOM     17  C   UNL     1      45.466  -2.491  15.744  0.00  0.00    +0.000 A 
ENDBRANCH  11  12
ENDBRANCH   4  11
ENDBRANCH   1   2
BRANCH   1  18
ATOM     18  C   UNL     1      39.650  -3.199  16.088  0.00  0.00    +0.000 C 
BRANCH  18  19
ATOM     19  C   UNL     1      38.475  -2.992  17.263  0.00  0.00    +0.000 C 
ATOM     20  C   UNL     1      37.973  -4.565  17.134  0.00  0.00    +0.000 C 
BRANCH  19  21
ATOM     21  N   UNL     1      37.412  -2.473  16.209  0.00  0.00    +0.000 NA
BRANCH  21  22
ATOM     22  S   UNL     1      36.206  -1.675  17.155  0.00  0.00    +0.000 S 
ATOM     23  O   UNL     1      36.676  -1.389  18.550  0.00  0.00    +0.000 OA
ATOM     24  O   UNL     1      35.010  -2.586  17.166  0.00  0.00    +0.000 OA
BRANCH  22  28
ATOM     25  C   UNL     1      35.317   2.233  15.152  0.00  0.00    +0.000 A 
ATOM     26  C   UNL     1      36.098   1.303  14.531  0.00  0.00    +0.000 A 
ATOM     27  C   UNL     1      36.369   0.105  15.147  0.00  0.00    +0.000 A 
ATOM     28  C   UNL     1      35.853  -0.156  16.387  0.00  0.00    +0.000 A 
ATOM     29  C   UNL     1      35.068   0.762  17.025  0.00  0.00    +0.000 A 
ATOM     30  C   UNL     1      34.787   1.972  16.420  0.00  0.00    +0.000 A 
BRANCH  25  32
ATOM     31  C   UNL     1      36.077   4.086  13.798  0.00  0.00    +0.000 C 
ATOM     32  O   UNL     1      35.055   3.435  14.515  0.00  0.00    +0.000 OA
ENDBRANCH  25  32
ENDBRANCH  22  28
ENDBRANCH  21  22
ENDBRANCH  19  21
ENDBRANCH  18  19
ENDBRANCH   1  18
TORSDOF 9
ENDMDL
MODEL 7
REMARK VINA RESULT:      -6.8      2.835      6.451
REMARK  Name = 
REMARK  9 active torsions:
REMARK  status: ('A' for Active; 'I' for Inactive)
REMARK    1  A    between atoms: O_2  and  C_3
REMARK    2  A    between atoms: C_6  and  S_7
REMARK    3  A    between atoms: S_7  and  N_10
REMARK    4  A    between atoms: N_10  and  C_11
REMARK    5  A    between atoms: C_11  and  C_13
REMARK    6  A    between atoms: C_13  and  C_14
REMARK    7  A    between atoms: C_14  and  C_15
REMARK    8  A    between atoms: N_17  and  C_18
REMARK    9  A    between atoms: C_18  and  C_19
REMARK                            x       y       z     vdW  Elec       q    Type
REMARK                         _______ _______ _______ _____ _____    ______ ____
ROOT
ATOM      1  C   UNL     1      35.877   2.294  16.822  0.00  0.00    +0.000 C 
ENDROOT
BRANCH   1   2
ATOM      2  C   UNL     1      36.730   3.403  16.328  0.00  0.00    +0.000 A 
ATOM      3  C   UNL     1      37.913   3.865  16.869  0.00  0.00    +0.000 A 
ATOM      4  N   UNL     1      38.414   4.890  16.164  0.00  0.00    +0.000 N 
ATOM      5  C   UNL     1      37.549   5.095  15.154  0.00  0.00    +0.000 A 
ATOM      6  C   UNL     1      37.620   6.050  14.140  0.00  0.00    +0.000 A 
ATOM      7  C   UNL     1      36.637   6.113  13.186  0.00  0.00    +0.000 A 
ATOM      8  C   UNL     1      35.590   5.226  13.246  0.00  0.00    +0.000 A 
ATOM      9  C   UNL     1      35.521   4.271  14.261  0.00  0.00    +0.000 A 
ATOM     10  C   UNL     1      36.506   4.203  15.224  0.00  0.00    +0.000 A 
BRANCH   4  11
ATOM     11  C   UNL     1      39.648   5.643  16.428  0.00  0.00    +0.000 C 
BRANCH  11  12
ATOM     12  C   UNL     1      39.517   6.264  17.760  0.00  0.00    +0.000 A 
ATOM     13  C   UNL     1      40.369   5.999  18.799  0.00  0.00    +0.000 A 
ATOM     14  C   UNL     1      40.213   6.606  20.053  0.00  0.00    +0.000 A 
ATOM     15  C   UNL     1      39.182   7.474  20.210  0.00  0.00    +0.000 A 
ATOM     16  C   UNL     1      38.317   7.755  19.189  0.00  0.00    +0.000 A 
ATOM     17  C   UNL     1      38.489   7.146  17.965  0.00  0.00    +0.000 A 
ENDBRANCH  11  12
ENDBRANCH   4  11
ENDBRANCH   1   2
BRANCH   1  18
ATOM     18  C   UNL     1      35.327   1.447  15.700  0.00  0.00    +0.000 C 
BRANCH  18  19
ATOM     19  C   UNL     1      35.711  -0.078  16.272  0.00  0.00    +0.000 C 
ATOM     20  C   UNL     1      35.260   0.314  17.818  0.00  0.00    +0.000 C 
BRANCH  19  21
ATOM     21  N   UNL     1      37.225   0.317  16.519  0.00  0.00    +0.000 NA
BRANCH  21  22
ATOM     22  S   UNL     1      38.074  -0.315  15.153  0.00  0.00    +0.000 S 
ATOM     23  O   UNL     1      37.229  -1.255  14.345  0.00  0.00    +0.000 OA
ATOM     24  O   UNL     1      39.287  -1.016  15.699  0.00  0.00    +0.000 OA
BRANCH  22  28
ATOM     25  C   UNL     1      39.167   3.131  12.507  0.00  0.00    +0.000 A 
ATOM     26  C   UNL     1      38.049   2.394  12.250  0.00  0.00    +0.000 A 
ATOM     27  C   UNL     1      37.715   1.338  13.063  0.00  0.00    +0.000 A 
ATOM     28  C   UNL     1      38.507   1.025  14.135  0.00  0.00    +0.000 A 
ATOM     29  C   UNL     1      39.631   1.752  14.408  0.00  0.00    +0.000 A 
ATOM     30  C   UNL     1      39.982   2.816  13.600  0.00  0.00    +0.000 A 
BRANCH  25  32
ATOM     31  C   UNL     1      38.783   4.377  10.471  0.00  0.00    +0.000 C 
ATOM     32  O   UNL     1      39.487   4.192  11.676  0.00  0.00    +0.000 OA
ENDBRANCH  25  32
ENDBRANCH  22  28
ENDBRANCH  21  22
ENDBRANCH  19  21
ENDBRANCH  18  19
ENDBRANCH   1  18
TORSDOF 9
ENDMDL
MODEL 8
REMARK VINA RESULT:      -6.7      2.980      7.579
REMARK  Name = 
REMARK  9 active torsions:
REMARK  status: ('A' for Active; 'I' for Inactive)
REMARK    1  A    between atoms: O_2  and  C_3
REMARK    2  A    between atoms: C_6  and  S_7
REMARK    3  A    between atoms: S_7  and  N_10
REMARK    4  A    between atoms: N_10  and  C_11
REMARK    5  A    between atoms: C_11  and  C_13
REMARK    6  A    between atoms: C_13  and  C_14
REMARK    7  A    between atoms: C_14  and  C_15
REMARK    8  A    between atoms: N_17  and  C_18
REMARK    9  A    between atoms: C_18  and  C_19
REMARK                            x       y       z     vdW  Elec       q    Type
REMARK                         _______ _______ _______ _____ _____    ______ ____
ROOT
ATOM      1  C   UNL     1      35.189   1.567  15.338  0.00  0.00    +0.000 C 
ENDROOT
BRANCH   1   2
ATOM      2  C   UNL     1      35.831   0.285  15.722  0.00  0.00    +0.000 A 
ATOM      3  C   UNL     1      36.269  -0.725  14.888  0.00  0.00    +0.000 A 
ATOM      4  N   UNL     1      36.797  -1.745  15.579  0.00  0.00    +0.000 N 
ATOM      5  C   UNL     1      36.704  -1.394  16.876  0.00  0.00    +0.000 A 
ATOM      6  C   UNL     1      37.114  -2.117  17.995  0.00  0.00    +0.000 A 
ATOM      7  C   UNL     1      36.937  -1.597  19.251  0.00  0.00    +0.000 A 
ATOM      8  C   UNL     1      36.352  -0.362  19.386  0.00  0.00    +0.000 A 
ATOM      9  C   UNL     1      35.942   0.360  18.265  0.00  0.00    +0.000 A 
ATOM     10  C   UNL     1      36.117  -0.157  16.998  0.00  0.00    +0.000 A 
BRANCH   4  11
ATOM     11  C   UNL     1      37.362  -2.993  15.048  0.00  0.00    +0.000 C 
BRANCH  11  12
ATOM     12  C   UNL     1      38.689  -2.678  14.484  0.00  0.00    +0.000 A 
ATOM     13  C   UNL     1      39.764  -2.317  15.251  0.00  0.00    +0.000 A 
ATOM     14  C   UNL     1      41.011  -2.022  14.682  0.00  0.00    +0.000 A 
ATOM     15  C   UNL     1      41.124  -2.107  13.332  0.00  0.00    +0.000 A 
ATOM     16  C   UNL     1      40.065  -2.465  12.543  0.00  0.00    +0.000 A 
ATOM     17  C   UNL     1      38.849  -2.749  13.125  0.00  0.00    +0.000 A 
ENDBRANCH  11  12
ENDBRANCH   4  11
ENDBRANCH   1   2
BRANCH   1  18
ATOM     18  C   UNL     1      35.966   2.304  14.275  0.00  0.00    +0.000 C 
BRANCH  18  19
ATOM     19  C   UNL     1      36.306   3.723  15.096  0.00  0.00    +0.000 C 
ATOM     20  C   UNL     1      35.181   4.575  14.226  0.00  0.00    +0.000 C 
BRANCH  19  21
ATOM     21  N   UNL     1      37.485   4.097  14.105  0.00  0.00    +0.000 NA
BRANCH  21  22
ATOM     22  S   UNL     1      38.915   4.017  15.071  0.00  0.00    +0.000 S 
ATOM     23  O   UNL     1      40.150   4.346  14.286  0.00  0.00    +0.000 OA
ATOM     24  O   UNL     1      38.979   2.615  15.612  0.00  0.00    +0.000 OA
BRANCH  22  28
ATOM     25  C   UNL     1      38.510   7.070  18.325  0.00  0.00    +0.000 A 
ATOM     26  C   UNL     1      38.193   7.390  17.038  0.00  0.00    +0.000 A 
ATOM     27  C   UNL     1      38.317   6.451  16.042  0.00  0.00    +0.000 A 
ATOM     28  C   UNL     1      38.760   5.192  16.342  0.00  0.00    +0.000 A 
ATOM     29  C   UNL     1      39.083   4.853  17.626  0.00  0.00    +0.000 A 
ATOM     30  C   UNL     1      38.964   5.784  18.639  0.00  0.00    +0.000 A 
BRANCH  25  32
ATOM     31  C   UNL     1      38.995   7.837  20.566  0.00  0.00    +0.000 C 
ATOM     32  O   UNL     1      38.378   8.029  19.315  0.00  0.00    +0.000 OA
ENDBRANCH  25  32
ENDBRANCH  22  28
ENDBRANCH  21  22
ENDBRANCH  19  21
ENDBRANCH  18  19
ENDBRANCH   1  18
TORSDOF 9
ENDMDL
MODEL 9
REMARK VINA RESULT:      -6.7      3.718      7.812
REMARK  Name = 
REMARK  9 active torsions:
REMARK  status: ('A' for Active; 'I' for Inactive)
REMARK    1  A    between atoms: O_2  and  C_3
REMARK    2  A    between atoms: C_6  and  S_7
REMARK    3  A    between atoms: S_7  and  N_10
REMARK    4  A    between atoms: N_10  and  C_11
REMARK    5  A    between atoms: C_11  and  C_13
REMARK    6  A    between atoms: C_13  and  C_14
REMARK    7  A    between atoms: C_14  and  C_15
REMARK    8  A    between atoms: N_17  and  C_18
REMARK    9  A    between atoms: C_18  and  C_19
REMARK                            x       y       z     vdW  Elec       q    Type
REMARK                         _______ _______ _______ _____ _____    ______ ____
ROOT
ATOM      1  C   UNL     1      36.788   1.767  15.214  0.00  0.00    +0.000 C 
ENDROOT
BRANCH   1   2
ATOM      2  C   UNL     1      37.079   0.381  15.657  0.00  0.00    +0.000 A 
ATOM      3  C   UNL     1      36.283  -0.446  16.426  0.00  0.00    +0.000 A 
ATOM      4  N   UNL     1      36.865  -1.635  16.640  0.00  0.00    +0.000 N 
ATOM      5  C   UNL     1      38.050  -1.582  16.004  0.00  0.00    +0.000 A 
ATOM      6  C   UNL     1      39.030  -2.570  15.924  0.00  0.00    +0.000 A 
ATOM      7  C   UNL     1      40.186  -2.336  15.225  0.00  0.00    +0.000 A 
ATOM      8  C   UNL     1      40.360  -1.120  14.610  0.00  0.00    +0.000 A 
ATOM      9  C   UNL     1      39.378  -0.133  14.690  0.00  0.00    +0.000 A 
ATOM     10  C   UNL     1      38.213  -0.362  15.392  0.00  0.00    +0.000 A 
BRANCH   4  11
ATOM     11  C   UNL     1      36.333  -2.769  17.409  0.00  0.00    +0.000 C 
BRANCH  11  12
ATOM     12  C   UNL     1      35.603  -3.642  16.470  0.00  0.00    +0.000 A 
ATOM     13  C   UNL     1      34.449  -3.264  15.837  0.00  0.00    +0.000 A 
ATOM     14  C   UNL     1      33.780  -4.120  14.951  0.00  0.00    +0.000 A 
ATOM     15  C   UNL     1      34.314  -5.349  14.736  0.00  0.00    +0.000 A 
ATOM     16  C   UNL     1      35.466  -5.751  15.356  0.00  0.00    +0.000 A 
ATOM     17  C   UNL     1      36.106  -4.892  16.223  0.00  0.00    +0.000 A 
ENDBRANCH  11  12
ENDBRANCH   4  11
ENDBRANCH   1   2
BRANCH   1  18
ATOM     18  C   UNL     1      36.750   2.742  16.365  0.00  0.00    +0.000 C 
BRANCH  18  19
ATOM     19  C   UNL     1      37.286   4.126  15.590  0.00  0.00    +0.000 C 
ATOM     20  C   UNL     1      37.724   3.279  14.235  0.00  0.00    +0.000 C 
BRANCH  19  21
ATOM     21  N   UNL     1      38.729   4.015  16.235  0.00  0.00    +0.000 NA
BRANCH  21  22
ATOM     22  S   UNL     1      39.428   5.581  16.026  0.00  0.00    +0.000 S 
ATOM     23  O   UNL     1      38.393   6.635  15.772  0.00  0.00    +0.000 OA
ATOM     24  O   UNL     1      40.375   5.466  14.863  0.00  0.00    +0.000 OA
BRANCH  22  28
ATOM     25  C   UNL     1      41.599   6.632  19.801  0.00  0.00    +0.000 A 
ATOM     26  C   UNL     1      42.257   6.631  18.607  0.00  0.00    +0.000 A 
ATOM     27  C   UNL     1      41.589   6.309  17.450  0.00  0.00    +0.000 A 
ATOM     28  C   UNL     1      40.259   5.988  17.496  0.00  0.00    +0.000 A 
ATOM     29  C   UNL     1      39.583   5.984  18.684  0.00  0.00    +0.000 A 
ATOM     30  C   UNL     1      40.240   6.305  19.856  0.00  0.00    +0.000 A 
BRANCH  25  32
ATOM     31  C   UNL     1      43.321   6.121  21.419  0.00  0.00    +0.000 C 
ATOM     32  O   UNL     1      42.290   6.960  20.956  0.00  0.00    +0.000 OA
ENDBRANCH  25  32
ENDBRANCH  22  28
ENDBRANCH  21  22
ENDBRANCH  19  21
ENDBRANCH  18  19
ENDBRANCH   1  18
TORSDOF 9
ENDMDL
MODEL 10
REMARK VINA RESULT:      -6.5      3.454      7.091
REMARK  Name = 
REMARK  9 active torsions:
REMARK  status: ('A' for Active; 'I' for Inactive)
REMARK    1  A    between atoms: O_2  and  C_3
REMARK    2  A    between atoms: C_6  and  S_7
REMARK    3  A    between atoms: S_7  and  N_10
REMARK    4  A    between atoms: N_10  and  C_11
REMARK    5  A    between atoms: C_11  and  C_13
REMARK    6  A    between atoms: C_13  and  C_14
REMARK    7  A    between atoms: C_14  and  C_15
REMARK    8  A    between atoms: N_17  and  C_18
REMARK    9  A    between atoms: C_18  and  C_19
REMARK                            x       y       z     vdW  Elec       q    Type
REMARK                         _______ _______ _______ _____ _____    ______ ____
ROOT
ATOM      1  C   UNL     1      39.801   2.533  13.981  0.00  0.00    +0.000 C 
ENDROOT
BRANCH   1   2
ATOM      2  C   UNL     1      39.411   1.143  14.325  0.00  0.00    +0.000 A 
ATOM      3  C   UNL     1      38.152   0.671  14.640  0.00  0.00    +0.000 A 
ATOM      4  N   UNL     1      38.166  -0.643  14.904  0.00  0.00    +0.000 N 
ATOM      5  C   UNL     1      39.447  -1.031  14.759  0.00  0.00    +0.000 A 
ATOM      6  C   UNL     1      39.986  -2.306  14.924  0.00  0.00    +0.000 A 
ATOM      7  C   UNL     1      41.327  -2.516  14.733  0.00  0.00    +0.000 A 
ATOM      8  C   UNL     1      42.125  -1.455  14.379  0.00  0.00    +0.000 A 
ATOM      9  C   UNL     1      41.585  -0.180  14.214  0.00  0.00    +0.000 A 
ATOM     10  C   UNL     1      40.236   0.038  14.405  0.00  0.00    +0.000 A 
BRANCH   4  11
ATOM     11  C   UNL     1      37.030  -1.497  15.278  0.00  0.00    +0.000 C 
BRANCH  11  12
ATOM     12  C   UNL     1      36.698  -1.207  16.686  0.00  0.00    +0.000 A 
ATOM     13  C   UNL     1      37.478  -1.607  17.739  0.00  0.00    +0.000 A 
ATOM     14  C   UNL     1      37.131  -1.316  19.066  0.00  0.00    +0.000 A 
ATOM     15  C   UNL     1      35.988  -0.617  19.280  0.00  0.00    +0.000 A 
ATOM     16  C   UNL     1      35.192  -0.206  18.247  0.00  0.00    +0.000 A 
ATOM     17  C   UNL     1      35.552  -0.505  16.951  0.00  0.00    +0.000 A 
ENDBRANCH  11  12
ENDBRANCH   4  11
ENDBRANCH   1   2
BRANCH   1  18
ATOM     18  C   UNL     1      39.565   2.853  12.525  0.00  0.00    +0.000 C 
BRANCH  18  19
ATOM     19  C   UNL     1      38.165   3.762  12.650  0.00  0.00    +0.000 C 
ATOM     20  C   UNL     1      38.633   4.774  11.425  0.00  0.00    +0.000 C 
BRANCH  19  21
ATOM     21  N   UNL     1      38.784   4.692  13.774  0.00  0.00    +0.000 NA
BRANCH  21  22
ATOM     22  S   UNL     1      37.434   5.181  14.736  0.00  0.00    +0.000 S 
ATOM     23  O   UNL     1      36.429   4.081  14.902  0.00  0.00    +0.000 OA
ATOM     24  O   UNL     1      36.826   6.364  14.035  0.00  0.00    +0.000 OA
BRANCH  22  28
ATOM     25  C   UNL     1      38.978   6.298  18.790  0.00  0.00    +0.000 A 
ATOM     26  C   UNL     1      38.528   7.261  17.936  0.00  0.00    +0.000 A 
ATOM     27  C   UNL     1      38.054   6.916  16.693  0.00  0.00    +0.000 A 
ATOM     28  C   UNL     1      38.034   5.602  16.311  0.00  0.00    +0.000 A 
ATOM     29  C   UNL     1      38.480   4.623  17.154  0.00  0.00    +0.000 A 
ATOM     30  C   UNL     1      38.960   4.953  18.407  0.00  0.00    +0.000 A 
BRANCH  25  32
ATOM     31  C   UNL     1      39.390   8.012  20.445  0.00  0.00    +0.000 C 
ATOM     32  O   UNL     1      39.452   6.666  20.039  0.00  0.00    +0.000 OA
ENDBRANCH  25  32
ENDBRANCH  22  28
ENDBRANCH  21  22
ENDBRANCH  19  21
ENDBRANCH  18  19
ENDBRANCH   1  18
TORSDOF 9
ENDMDL
