MODEL 1
REMARK VINA RESULT:      -7.2      0.000      0.000
REMARK  Name = 
REMARK  6 active torsions:
REMARK  status: ('A' for Active; 'I' for Inactive)
REMARK    1  A    between atoms: C_2  and  C_5
REMARK    2  A    between atoms: C_11  and  N_12
REMARK    3  A    between atoms: C_13  and  C_15
REMARK    4  A    between atoms: C_21  and  C_22
REMARK    5  A    between atoms: N_24  and  C_25
REMARK    6  A    between atoms: C_25  and  C_26
REMARK                            x       y       z     vdW  Elec       q    Type
REMARK                         _______ _______ _______ _____ _____    ______ ____
ROOT
ATOM      1  C   UNL     1      44.345  -1.230  15.040  0.00  0.00    +0.000 C 
ATOM      2  C   UNL     1      43.928   0.214  14.412  0.00  0.00    +0.000 C 
ATOM      3  C   UNL     1      42.818   0.148  13.497  0.00  0.00    +0.000 C 
ATOM      4  C   UNL     1      41.702  -0.799  13.935  0.00  0.00    +0.000 A 
ATOM      5  C   UNL     1      42.200  -2.053  14.133  0.00  0.00    +0.000 A 
ATOM      6  S   UNL     1      40.819  -2.922  14.604  0.00  0.00    +0.000 S 
ATOM      7  C   UNL     1      39.644  -1.681  14.540  0.00  0.00    +0.000 A 
ATOM      8  C   UNL     1      40.384  -0.604  14.144  0.00  0.00    +0.000 A 
ATOM      9  C   UNL     1      43.667  -2.165  13.878  0.00  0.00    +0.000 C 
ENDROOT
BRANCH   1  11
ATOM     10  C   UNL     1      46.591  -2.047  15.378  0.00  0.00    +0.000 C 
ATOM     11  C   UNL     1      45.834  -1.222  14.356  0.00  0.00    +0.000 C 
ATOM     12  C   UNL     1      46.311   0.200  14.314  0.00  0.00    +0.000 C 
ATOM     13  C   UNL     1      45.709  -1.876  13.028  0.00  0.00    +0.000 C 
ENDBRANCH   1  11
BRANCH   7  14
ATOM     14  N   UNL     1      38.229  -1.737  14.826  0.00  0.00    +0.000 NA
ATOM     15  C   UNL     1      37.774  -1.570  16.162  0.00  0.00    +0.000 C 
ATOM     16  O   UNL     1      38.639  -1.381  17.045  0.00  0.00    +0.000 OA
BRANCH  15  17
ATOM     17  C   UNL     1      36.376  -1.610  16.545  0.00  0.00    +0.000 A 
ATOM     18  C   UNL     1      35.574  -2.648  16.191  0.00  0.00    +0.000 A 
ATOM     19  C   UNL     1      34.264  -2.671  16.559  0.00  0.00    +0.000 A 
ATOM     20  C   UNL     1      33.719  -1.650  17.295  0.00  0.00    +0.000 A 
ATOM     21  C   UNL     1      34.537  -0.605  17.649  0.00  0.00    +0.000 A 
ATOM     22  C   UNL     1      35.845  -0.580  17.282  0.00  0.00    +0.000 A 
ENDBRANCH  15  17
ENDBRANCH   7  14
BRANCH   8  23
ATOM     23  C   UNL     1      39.735   0.732  13.956  0.00  0.00    +0.000 C 
ATOM     24  O   UNL     1      39.539   1.212  12.813  0.00  0.00    +0.000 OA
ATOM     25  N   UNL     1      39.310   1.517  15.055  0.00  0.00    +0.000 NA
BRANCH  25  26
ATOM     26  C   UNL     1      38.685   2.805  14.849  0.00  0.00    +0.000 C 
BRANCH  26  27
ATOM     27  C   UNL     1      37.217   2.709  15.130  0.00  0.00    +0.000 A 
ATOM     28  C   UNL     1      36.304   2.075  14.314  0.00  0.00    +0.000 A 
ATOM     29  C   UNL     1      35.057   2.212  14.928  0.00  0.00    +0.000 A 
ATOM     30  C   UNL     1      35.294   2.919  16.074  0.00  0.00    +0.000 A 
ATOM     31  O   UNL     1      36.575   3.198  16.166  0.00  0.00    +0.000 OA
ENDBRANCH  26  27
ENDBRANCH  25  26
ENDBRANCH   8  23
TORSDOF 6
ENDMDL
MODEL 2
REMARK VINA RESULT:      -6.9      2.026      4.213
REMARK  Name = 
REMARK  6 active torsions:
REMARK  status: ('A' for Active; 'I' for Inactive)
REMARK    1  A    between atoms: C_2  and  C_5
REMARK    2  A    between atoms: C_11  and  N_12
REMARK    3  A    between atoms: C_13  and  C_15
REMARK    4  A    between atoms: C_21  and  C_22
REMARK    5  A    between atoms: N_24  and  C_25
REMARK    6  A    between atoms: C_25  and  C_26
REMARK                            x       y       z     vdW  Elec       q    Type
REMARK                         _______ _______ _______ _____ _____    ______ ____
ROOT
ATOM      1  C   UNL     1      42.677  -2.013  11.309  0.00  0.00    +0.000 C 
ATOM      2  C   UNL     1      42.124  -3.156  12.330  0.00  0.00    +0.000 C 
ATOM      3  C   UNL     1      41.941  -2.687  13.679  0.00  0.00    +0.000 C 
ATOM      4  C   UNL     1      41.348  -1.283  13.777  0.00  0.00    +0.000 A 
ATOM      5  C   UNL     1      42.125  -0.395  13.091  0.00  0.00    +0.000 A 
ATOM      6  S   UNL     1      41.299   1.070  13.330  0.00  0.00    +0.000 S 
ATOM      7  C   UNL     1      39.992   0.527  14.290  0.00  0.00    +0.000 A 
ATOM      8  C   UNL     1      40.247  -0.810  14.396  0.00  0.00    +0.000 A 
ATOM      9  C   UNL     1      43.316  -1.016  12.441  0.00  0.00    +0.000 C 
ENDROOT
BRANCH   1  11
ATOM     10  C   UNL     1      44.466  -2.155   9.695  0.00  0.00    +0.000 C 
ATOM     11  C   UNL     1      44.083  -2.801  11.012  0.00  0.00    +0.000 C 
ATOM     12  C   UNL     1      43.765  -4.259  10.853  0.00  0.00    +0.000 C 
ATOM     13  C   UNL     1      45.007  -2.483  12.130  0.00  0.00    +0.000 C 
ENDBRANCH   1  11
BRANCH   7  14
ATOM     14  N   UNL     1      38.891   1.274  14.854  0.00  0.00    +0.000 NA
ATOM     15  C   UNL     1      37.652   1.333  14.162  0.00  0.00    +0.000 C 
ATOM     16  O   UNL     1      37.572   0.723  13.072  0.00  0.00    +0.000 OA
BRANCH  15  17
ATOM     17  C   UNL     1      36.493   2.056  14.647  0.00  0.00    +0.000 A 
ATOM     18  C   UNL     1      36.116   3.241  14.099  0.00  0.00    +0.000 A 
ATOM     19  C   UNL     1      35.026   3.907  14.566  0.00  0.00    +0.000 A 
ATOM     20  C   UNL     1      34.279   3.404  15.600  0.00  0.00    +0.000 A 
ATOM     21  C   UNL     1      34.667   2.205  16.148  0.00  0.00    +0.000 A 
ATOM     22  C   UNL     1      35.756   1.538  15.684  0.00  0.00    +0.000 A 
ENDBRANCH  15  17
ENDBRANCH   7  14
BRANCH   8  23
ATOM     23  C   UNL     1      39.327  -1.696  15.176  0.00  0.00    +0.000 C 
ATOM     24  O   UNL     1      38.612  -2.560  14.611  0.00  0.00    +0.000 OA
ATOM     25  N   UNL     1      39.217  -1.606  16.584  0.00  0.00    +0.000 NA
BRANCH  25  26
ATOM     26  C   UNL     1      38.321  -2.473  17.316  0.00  0.00    +0.000 C 
BRANCH  26  27
ATOM     27  C   UNL     1      37.185  -1.675  17.878  0.00  0.00    +0.000 A 
ATOM     28  C   UNL     1      35.865  -1.826  17.510  0.00  0.00    +0.000 A 
ATOM     29  C   UNL     1      35.133  -0.904  18.260  0.00  0.00    +0.000 A 
ATOM     30  C   UNL     1      36.054  -0.254  19.033  0.00  0.00    +0.000 A 
ATOM     31  O   UNL     1      37.254  -0.730  18.787  0.00  0.00    +0.000 OA
ENDBRANCH  26  27
ENDBRANCH  25  26
ENDBRANCH   8  23
TORSDOF 6
ENDMDL
MODEL 3
REMARK VINA RESULT:      -6.9      3.552      7.286
REMARK  Name = 
REMARK  6 active torsions:
REMARK  status: ('A' for Active; 'I' for Inactive)
REMARK    1  A    between atoms: C_2  and  C_5
REMARK    2  A    between atoms: C_11  and  N_12
REMARK    3  A    between atoms: C_13  and  C_15
REMARK    4  A    between atoms: C_21  and  C_22
REMARK    5  A    between atoms: N_24  and  C_25
REMARK    6  A    between atoms: C_25  and  C_26
REMARK                            x       y       z     vdW  Elec       q    Type
REMARK                         _______ _______ _______ _____ _____    ______ ____
ROOT
ATOM      1  C   UNL     1      39.974   5.438  17.632  0.00  0.00    +0.000 C 
ATOM      2  C   UNL     1      38.628   4.660  18.121  0.00  0.00    +0.000 C 
ATOM      3  C   UNL     1      37.705   4.374  17.053  0.00  0.00    +0.000 C 
ATOM      4  C   UNL     1      38.372   3.919  15.755  0.00  0.00    +0.000 A 
ATOM      5  C   UNL     1      39.273   4.854  15.337  0.00  0.00    +0.000 A 
ATOM      6  S   UNL     1      39.881   4.159  13.911  0.00  0.00    +0.000 S 
ATOM      7  C   UNL     1      38.983   2.704  13.878  0.00  0.00    +0.000 A 
ATOM      8  C   UNL     1      38.220   2.809  15.005  0.00  0.00    +0.000 A 
ATOM      9  C   UNL     1      39.368   6.042  16.235  0.00  0.00    +0.000 C 
ENDROOT
BRANCH   1  11
ATOM     10  C   UNL     1      40.570   7.769  17.822  0.00  0.00    +0.000 C 
ATOM     11  C   UNL     1      39.652   6.781  18.514  0.00  0.00    +0.000 C 
ATOM     12  C   UNL     1      40.074   6.513  19.927  0.00  0.00    +0.000 C 
ATOM     13  C   UNL     1      38.207   7.081  18.341  0.00  0.00    +0.000 C 
ENDBRANCH   1  11
BRANCH   7  14
ATOM     14  N   UNL     1      39.009   1.628  12.914  0.00  0.00    +0.000 NA
ATOM     15  C   UNL     1      39.983   0.600  13.032  0.00  0.00    +0.000 C 
ATOM     16  O   UNL     1      40.790   0.679  13.985  0.00  0.00    +0.000 OA
BRANCH  15  17
ATOM     17  C   UNL     1      40.088  -0.518  12.116  0.00  0.00    +0.000 A 
ATOM     18  C   UNL     1      39.778  -1.783  12.504  0.00  0.00    +0.000 A 
ATOM     19  C   UNL     1      39.881  -2.822  11.632  0.00  0.00    +0.000 A 
ATOM     20  C   UNL     1      40.299  -2.623  10.341  0.00  0.00    +0.000 A 
ATOM     21  C   UNL     1      40.611  -1.341   9.957  0.00  0.00    +0.000 A 
ATOM     22  C   UNL     1      40.509  -0.302  10.826  0.00  0.00    +0.000 A 
ENDBRANCH  15  17
ENDBRANCH   7  14
BRANCH   8  23
ATOM     23  C   UNL     1      37.260   1.722  15.373  0.00  0.00    +0.000 C 
ATOM     24  O   UNL     1      36.028   1.833  15.160  0.00  0.00    +0.000 OA
ATOM     25  N   UNL     1      37.692   0.517  15.977  0.00  0.00    +0.000 NA
BRANCH  25  26
ATOM     26  C   UNL     1      36.746  -0.521  16.324  0.00  0.00    +0.000 C 
BRANCH  26  27
ATOM     27  C   UNL     1      37.255  -1.305  17.494  0.00  0.00    +0.000 A 
ATOM     28  C   UNL     1      38.300  -2.203  17.439  0.00  0.00    +0.000 A 
ATOM     29  C   UNL     1      38.456  -2.713  18.729  0.00  0.00    +0.000 A 
ATOM     30  C   UNL     1      37.497  -2.093  19.481  0.00  0.00    +0.000 A 
ATOM     31  O   UNL     1      36.805  -1.270  18.727  0.00  0.00    +0.000 OA
ENDBRANCH  26  27
ENDBRANCH  25  26
ENDBRANCH   8  23
TORSDOF 6
ENDMDL
MODEL 4
REMARK VINA RESULT:      -6.9      5.310      7.787
REMARK  Name = 
REMARK  6 active torsions:
REMARK  status: ('A' for Active; 'I' for Inactive)
REMARK    1  A    between atoms: C_2  and  C_5
REMARK    2  A    between atoms: C_11  and  N_12
REMARK    3  A    between atoms: C_13  and  C_15
REMARK    4  A    between atoms: C_21  and  C_22
REMARK    5  A    between atoms: N_24  and  C_25
REMARK    6  A    between atoms: C_25  and  C_26
REMARK                            x       y       z     vdW  Elec       q    Type
REMARK                         _______ _______ _______ _____ _____    ______ ____
ROOT
ATOM      1  C   UNL     1      40.855   5.984  18.470  0.00  0.00    +0.000 C 
ATOM      2  C   UNL     1      39.312   5.660  18.880  0.00  0.00    +0.000 C 
ATOM      3  C   UNL     1      38.367   5.912  17.823  0.00  0.00    +0.000 C 
ATOM      4  C   UNL     1      38.851   5.487  16.438  0.00  0.00    +0.000 A 
ATOM      5  C   UNL     1      40.033   6.101  16.144  0.00  0.00    +0.000 A 
ATOM      6  S   UNL     1      40.379   5.499  14.594  0.00  0.00    +0.000 S 
ATOM      7  C   UNL     1      39.022   4.486  14.354  0.00  0.00    +0.000 A 
ATOM      8  C   UNL     1      38.327   4.654  15.516  0.00  0.00    +0.000 A 
ATOM      9  C   UNL     1      40.530   7.000  17.227  0.00  0.00    +0.000 C 
ENDROOT
BRANCH   1  11
ATOM     10  C   UNL     1      42.100   6.570  20.453  0.00  0.00    +0.000 C 
ATOM     11  C   UNL     1      41.017   7.176  19.583  0.00  0.00    +0.000 C 
ATOM     12  C   UNL     1      39.712   7.301  20.312  0.00  0.00    +0.000 C 
ATOM     13  C   UNL     1      41.444   8.399  18.854  0.00  0.00    +0.000 C 
ENDBRANCH   1  11
BRANCH   7  14
ATOM     14  N   UNL     1      38.680   3.658  13.219  0.00  0.00    +0.000 NA
ATOM     15  C   UNL     1      37.837   4.176  12.199  0.00  0.00    +0.000 C 
ATOM     16  O   UNL     1      37.422   5.348  12.336  0.00  0.00    +0.000 OA
BRANCH  15  17
ATOM     17  C   UNL     1      37.441   3.424  11.025  0.00  0.00    +0.000 A 
ATOM     18  C   UNL     1      37.539   2.069  10.986  0.00  0.00    +0.000 A 
ATOM     19  C   UNL     1      37.162   1.377   9.877  0.00  0.00    +0.000 A 
ATOM     20  C   UNL     1      36.675   2.025   8.771  0.00  0.00    +0.000 A 
ATOM     21  C   UNL     1      36.579   3.395   8.820  0.00  0.00    +0.000 A 
ATOM     22  C   UNL     1      36.955   4.088   9.926  0.00  0.00    +0.000 A 
ENDBRANCH  15  17
ENDBRANCH   7  14
BRANCH   8  23
ATOM     23  C   UNL     1      37.036   3.930  15.737  0.00  0.00    +0.000 C 
ATOM     24  O   UNL     1      35.981   4.274  15.151  0.00  0.00    +0.000 OA
ATOM     25  N   UNL     1      36.940   2.823  16.614  0.00  0.00    +0.000 NA
BRANCH  25  26
ATOM     26  C   UNL     1      35.682   2.138  16.811  0.00  0.00    +0.000 C 
BRANCH  26  27
ATOM     27  C   UNL     1      35.911   0.850  17.540  0.00  0.00    +0.000 A 
ATOM     28  C   UNL     1      35.359  -0.361  17.181  0.00  0.00    +0.000 A 
ATOM     29  C   UNL     1      35.817  -1.300  18.107  0.00  0.00    +0.000 A 
ATOM     30  C   UNL     1      36.615  -0.598  18.967  0.00  0.00    +0.000 A 
ATOM     31  O   UNL     1      36.652   0.665  18.608  0.00  0.00    +0.000 OA
ENDBRANCH  26  27
ENDBRANCH  25  26
ENDBRANCH   8  23
TORSDOF 6
ENDMDL
MODEL 5
REMARK VINA RESULT:      -6.8      3.402      8.108
REMARK  Name = 
REMARK  6 active torsions:
REMARK  status: ('A' for Active; 'I' for Inactive)
REMARK    1  A    between atoms: C_2  and  C_5
REMARK    2  A    between atoms: C_11  and  N_12
REMARK    3  A    between atoms: C_13  and  C_15
REMARK    4  A    between atoms: C_21  and  C_22
REMARK    5  A    between atoms: N_24  and  C_25
REMARK    6  A    between atoms: C_25  and  C_26
REMARK                            x       y       z     vdW  Elec       q    Type
REMARK                         _______ _______ _______ _____ _____    ______ ____
ROOT
ATOM      1  C   UNL     1      36.152   7.030  12.970  0.00  0.00    +0.000 C 
ATOM      2  C   UNL     1      35.239   6.494  14.209  0.00  0.00    +0.000 C 
ATOM      3  C   UNL     1      35.031   5.069  14.200  0.00  0.00    +0.000 C 
ATOM      4  C   UNL     1      36.268   4.260  13.810  0.00  0.00    +0.000 A 
ATOM      5  C   UNL     1      36.724   4.658  12.588  0.00  0.00    +0.000 A 
ATOM      6  S   UNL     1      38.071   3.650  12.358  0.00  0.00    +0.000 S 
ATOM      7  C   UNL     1      38.026   2.749  13.811  0.00  0.00    +0.000 A 
ATOM      8  C   UNL     1      36.937   3.275  14.443  0.00  0.00    +0.000 A 
ATOM      9  C   UNL     1      35.918   5.753  11.972  0.00  0.00    +0.000 C 
ENDROOT
BRANCH   1  11
ATOM     10  C   UNL     1      35.763   9.035  11.684  0.00  0.00    +0.000 C 
ATOM     11  C   UNL     1      34.945   7.932  12.325  0.00  0.00    +0.000 C 
ATOM     12  C   UNL     1      34.100   8.440  13.455  0.00  0.00    +0.000 C 
ATOM     13  C   UNL     1      34.229   7.069  11.350  0.00  0.00    +0.000 C 
ENDBRANCH   1  11
BRANCH   7  14
ATOM     14  N   UNL     1      38.904   1.697  14.269  0.00  0.00    +0.000 NA
ATOM     15  C   UNL     1      38.592   0.342  13.975  0.00  0.00    +0.000 C 
ATOM     16  O   UNL     1      37.549   0.121  13.321  0.00  0.00    +0.000 OA
BRANCH  15  17
ATOM     17  C   UNL     1      39.410  -0.780  14.391  0.00  0.00    +0.000 A 
ATOM     18  C   UNL     1      40.748  -0.807  14.152  0.00  0.00    +0.000 A 
ATOM     19  C   UNL     1      41.503  -1.868  14.549  0.00  0.00    +0.000 A 
ATOM     20  C   UNL     1      40.937  -2.935  15.198  0.00  0.00    +0.000 A 
ATOM     21  C   UNL     1      39.584  -2.898  15.435  0.00  0.00    +0.000 A 
ATOM     22  C   UNL     1      38.828  -1.841  15.039  0.00  0.00    +0.000 A 
ENDBRANCH  15  17
ENDBRANCH   7  14
BRANCH   8  23
ATOM     23  C   UNL     1      36.522   2.763  15.786  0.00  0.00    +0.000 C 
ATOM     24  O   UNL     1      37.063   3.173  16.842  0.00  0.00    +0.000 OA
ATOM     25  N   UNL     1      35.500   1.794  15.933  0.00  0.00    +0.000 NA
BRANCH  25  26
ATOM     26  C   UNL     1      35.115   1.314  17.242  0.00  0.00    +0.000 C 
BRANCH  26  27
ATOM     27  C   UNL     1      35.669  -0.059  17.465  0.00  0.00    +0.000 A 
ATOM     28  C   UNL     1      35.116  -1.218  16.963  0.00  0.00    +0.000 A 
ATOM     29  C   UNL     1      35.927  -2.268  17.395  0.00  0.00    +0.000 A 
ATOM     30  C   UNL     1      36.919  -1.680  18.130  0.00  0.00    +0.000 A 
ATOM     31  O   UNL     1      36.741  -0.378  18.153  0.00  0.00    +0.000 OA
ENDBRANCH  26  27
ENDBRANCH  25  26
ENDBRANCH   8  23
TORSDOF 6
ENDMDL
MODEL 6
REMARK VINA RESULT:      -6.7      5.309      8.146
REMARK  Name = 
REMARK  6 active torsions:
REMARK  status: ('A' for Active; 'I' for Inactive)
REMARK    1  A    between atoms: C_2  and  C_5
REMARK    2  A    between atoms: C_11  and  N_12
REMARK    3  A    between atoms: C_13  and  C_15
REMARK    4  A    between atoms: C_21  and  C_22
REMARK    5  A    between atoms: N_24  and  C_25
REMARK    6  A    between atoms: C_25  and  C_26
REMARK                            x       y       z     vdW  Elec       q    Type
REMARK                         _______ _______ _______ _____ _____    ______ ____
ROOT
ATOM      1  C   UNL     1      39.966   7.088  17.698  0.00  0.00    +0.000 C 
ATOM      2  C   UNL     1      39.924   5.521  18.144  0.00  0.00    +0.000 C 
ATOM      3  C   UNL     1      38.666   4.876  17.871  0.00  0.00    +0.000 C 
ATOM      4  C   UNL     1      38.043   5.263  16.530  0.00  0.00    +0.000 A 
ATOM      5  C   UNL     1      37.883   6.616  16.459  0.00  0.00    +0.000 A 
ATOM      6  S   UNL     1      37.192   6.819  14.921  0.00  0.00    +0.000 S 
ATOM      7  C   UNL     1      37.122   5.190  14.403  0.00  0.00    +0.000 A 
ATOM      8  C   UNL     1      37.652   4.525  15.471  0.00  0.00    +0.000 A 
ATOM      9  C   UNL     1      38.348   7.341  17.678  0.00  0.00    +0.000 C 
ENDROOT
BRANCH   1  11
ATOM     10  C   UNL     1      40.868   6.433  19.839  0.00  0.00    +0.000 C 
ATOM     11  C   UNL     1      40.170   7.633  19.230  0.00  0.00    +0.000 C 
ATOM     12  C   UNL     1      38.810   7.855  19.822  0.00  0.00    +0.000 C 
ATOM     13  C   UNL     1      41.022   8.848  19.152  0.00  0.00    +0.000 C 
ENDBRANCH   1  11
BRANCH   7  14
ATOM     14  N   UNL     1      36.631   4.639  13.161  0.00  0.00    +0.000 NA
ATOM     15  C   UNL     1      37.530   4.428  12.081  0.00  0.00    +0.000 C 
ATOM     16  O   UNL     1      38.729   4.738  12.260  0.00  0.00    +0.000 OA
BRANCH  15  17
ATOM     17  C   UNL     1      37.132   3.881  10.799  0.00  0.00    +0.000 A 
ATOM     18  C   UNL     1      37.371   2.582  10.478  0.00  0.00    +0.000 A 
ATOM     19  C   UNL     1      36.991   2.083   9.271  0.00  0.00    +0.000 A 
ATOM     20  C   UNL     1      36.359   2.874   8.346  0.00  0.00    +0.000 A 
ATOM     21  C   UNL     1      36.121   4.186   8.679  0.00  0.00    +0.000 A 
ATOM     22  C   UNL     1      36.500   4.686   9.883  0.00  0.00    +0.000 A 
ENDBRANCH  15  17
ENDBRANCH   7  14
BRANCH   8  23
ATOM     23  C   UNL     1      37.783   3.034  15.444  0.00  0.00    +0.000 C 
ATOM     24  O   UNL     1      38.895   2.475  15.281  0.00  0.00    +0.000 OA
ATOM     25  N   UNL     1      36.663   2.183  15.603  0.00  0.00    +0.000 NA
BRANCH  25  26
ATOM     26  C   UNL     1      36.814   0.745  15.574  0.00  0.00    +0.000 C 
BRANCH  26  27
ATOM     27  C   UNL     1      36.270   0.149  16.836  0.00  0.00    +0.000 A 
ATOM     28  C   UNL     1      35.036  -0.455  16.948  0.00  0.00    +0.000 A 
ATOM     29  C   UNL     1      34.914  -0.872  18.274  0.00  0.00    +0.000 A 
ATOM     30  C   UNL     1      36.080  -0.495  18.880  0.00  0.00    +0.000 A 
ATOM     31  O   UNL     1      36.860   0.104  18.008  0.00  0.00    +0.000 OA
ENDBRANCH  26  27
ENDBRANCH  25  26
ENDBRANCH   8  23
TORSDOF 6
ENDMDL
MODEL 7
REMARK VINA RESULT:      -6.6      4.403      8.142
REMARK  Name = 
REMARK  6 active torsions:
REMARK  status: ('A' for Active; 'I' for Inactive)
REMARK    1  A    between atoms: C_2  and  C_5
REMARK    2  A    between atoms: C_11  and  N_12
REMARK    3  A    between atoms: C_13  and  C_15
REMARK    4  A    between atoms: C_21  and  C_22
REMARK    5  A    between atoms: N_24  and  C_25
REMARK    6  A    between atoms: C_25  and  C_26
REMARK                            x       y       z     vdW  Elec       q    Type
REMARK                         _______ _______ _______ _____ _____    ______ ____
ROOT
ATOM      1  C   UNL     1      36.900   7.289  12.563  0.00  0.00    +0.000 C 
ATOM      2  C   UNL     1      36.653   7.397  14.170  0.00  0.00    +0.000 C 
ATOM      3  C   UNL     1      36.192   6.171  14.769  0.00  0.00    +0.000 C 
ATOM      4  C   UNL     1      36.873   4.916  14.224  0.00  0.00    +0.000 A 
ATOM      5  C   UNL     1      36.717   4.845  12.871  0.00  0.00    +0.000 A 
ATOM      6  S   UNL     1      37.532   3.406  12.486  0.00  0.00    +0.000 S 
ATOM      7  C   UNL     1      38.050   2.927  14.044  0.00  0.00    +0.000 A 
ATOM      8  C   UNL     1      37.560   3.927  14.832  0.00  0.00    +0.000 A 
ATOM      9  C   UNL     1      35.945   5.986  12.294  0.00  0.00    +0.000 C 
ENDROOT
BRANCH   1  11
ATOM     10  C   UNL     1      36.359   9.020  10.970  0.00  0.00    +0.000 C 
ATOM     11  C   UNL     1      35.738   8.387  12.200  0.00  0.00    +0.000 C 
ATOM     12  C   UNL     1      35.646   9.352  13.345  0.00  0.00    +0.000 C 
ATOM     13  C   UNL     1      34.492   7.628  11.922  0.00  0.00    +0.000 C 
ENDBRANCH   1  11
BRANCH   7  14
ATOM     14  N   UNL     1      38.811   1.765  14.444  0.00  0.00    +0.000 NA
ATOM     15  C   UNL     1      38.140   0.539  14.703  0.00  0.00    +0.000 C 
ATOM     16  O   UNL     1      36.896   0.525  14.571  0.00  0.00    +0.000 OA
BRANCH  15  17
ATOM     17  C   UNL     1      38.816  -0.677  15.108  0.00  0.00    +0.000 A 
ATOM     18  C   UNL     1      38.296  -1.491  16.065  0.00  0.00    +0.000 A 
ATOM     19  C   UNL     1      38.942  -2.630  16.434  0.00  0.00    +0.000 A 
ATOM     20  C   UNL     1      40.133  -2.987  15.854  0.00  0.00    +0.000 A 
ATOM     21  C   UNL     1      40.650  -2.159  14.887  0.00  0.00    +0.000 A 
ATOM     22  C   UNL     1      40.007  -1.021  14.517  0.00  0.00    +0.000 A 
ENDBRANCH  15  17
ENDBRANCH   7  14
BRANCH   8  23
ATOM     23  C   UNL     1      37.789   3.907  16.311  0.00  0.00    +0.000 C 
ATOM     24  O   UNL     1      37.156   3.127  17.063  0.00  0.00    +0.000 OA
ATOM     25  N   UNL     1      38.730   4.762  16.933  0.00  0.00    +0.000 NA
BRANCH  25  26
ATOM     26  C   UNL     1      38.935   4.724  18.364  0.00  0.00    +0.000 C 
BRANCH  26  27
ATOM     27  C   UNL     1      38.942   6.117  18.915  0.00  0.00    +0.000 A 
ATOM     28  C   UNL     1      38.191   7.160  18.417  0.00  0.00    +0.000 A 
ATOM     29  C   UNL     1      38.483   8.275  19.205  0.00  0.00    +0.000 A 
ATOM     30  C   UNL     1      39.392   7.837  20.128  0.00  0.00    +0.000 A 
ATOM     31  O   UNL     1      39.643   6.562  19.933  0.00  0.00    +0.000 OA
ENDBRANCH  26  27
ENDBRANCH  25  26
ENDBRANCH   8  23
TORSDOF 6
ENDMDL
MODEL 8
REMARK VINA RESULT:      -6.5     27.988     31.591
REMARK  Name = 
REMARK  6 active torsions:
REMARK  status: ('A' for Active; 'I' for Inactive)
REMARK    1  A    between atoms: C_2  and  C_5
REMARK    2  A    between atoms: C_11  and  N_12
REMARK    3  A    between atoms: C_13  and  C_15
REMARK    4  A    between atoms: C_21  and  C_22
REMARK    5  A    between atoms: N_24  and  C_25
REMARK    6  A    between atoms: C_25  and  C_26
REMARK                            x       y       z     vdW  Elec       q    Type
REMARK                         _______ _______ _______ _____ _____    ______ ____
ROOT
ATOM      1  C   UNL     1       6.286   2.766  11.530  0.00  0.00    +0.000 C 
ATOM      2  C   UNL     1       7.029   4.212  11.425  0.00  0.00    +0.000 C 
ATOM      3  C   UNL     1       8.457   4.143  11.598  0.00  0.00    +0.000 C 
ATOM      4  C   UNL     1       9.111   2.942  10.915  0.00  0.00    +0.000 A 
ATOM      5  C   UNL     1       8.545   1.783  11.358  0.00  0.00    +0.000 A 
ATOM      6  S   UNL     1       9.405   0.604  10.489  0.00  0.00    +0.000 S 
ATOM      7  C   UNL     1      10.459   1.603   9.587  0.00  0.00    +0.000 A 
ATOM      8  C   UNL     1      10.099   2.852  10.002  0.00  0.00    +0.000 A 
ATOM      9  C   UNL     1       7.461   1.989  12.364  0.00  0.00    +0.000 C 
ENDROOT
BRANCH   1  11
ATOM     10  C   UNL     1       4.172   2.362  12.622  0.00  0.00    +0.000 C 
ATOM     11  C   UNL     1       5.425   3.182  12.861  0.00  0.00    +0.000 C 
ATOM     12  C   UNL     1       5.157   4.656  12.791  0.00  0.00    +0.000 C 
ATOM     13  C   UNL     1       6.212   2.746  14.044  0.00  0.00    +0.000 C 
ENDBRANCH   1  11
BRANCH   7  14
ATOM     14  N   UNL     1      11.477   1.238   8.628  0.00  0.00    +0.000 NA
ATOM     15  C   UNL     1      11.123   1.039   7.266  0.00  0.00    +0.000 C 
ATOM     16  O   UNL     1       9.920   1.191   6.957  0.00  0.00    +0.000 OA
BRANCH  15  17
ATOM     17  C   UNL     1      12.072   0.673   6.234  0.00  0.00    +0.000 A 
ATOM     18  C   UNL     1      12.012   1.219   4.991  0.00  0.00    +0.000 A 
ATOM     19  C   UNL     1      12.911   0.866   4.032  0.00  0.00    +0.000 A 
ATOM     20  C   UNL     1      13.898  -0.050   4.292  0.00  0.00    +0.000 A 
ATOM     21  C   UNL     1      13.951  -0.597   5.551  0.00  0.00    +0.000 A 
ATOM     22  C   UNL     1      13.055  -0.246   6.510  0.00  0.00    +0.000 A 
ENDBRANCH  15  17
ENDBRANCH   7  14
BRANCH   8  23
ATOM     23  C   UNL     1      10.788   4.061   9.450  0.00  0.00    +0.000 C 
ATOM     24  O   UNL     1      11.953   4.371   9.801  0.00  0.00    +0.000 OA
ATOM     25  N   UNL     1      10.164   4.911   8.506  0.00  0.00    +0.000 NA
BRANCH  25  26
ATOM     26  C   UNL     1      10.850   6.073   7.985  0.00  0.00    +0.000 C 
BRANCH  26  27
ATOM     27  C   UNL     1      10.283   6.444   6.649  0.00  0.00    +0.000 A 
ATOM     28  C   UNL     1       9.954   5.541   5.661  0.00  0.00    +0.000 A 
ATOM     29  C   UNL     1       9.464   6.286   4.587  0.00  0.00    +0.000 A 
ATOM     30  C   UNL     1       9.528   7.590   4.992  0.00  0.00    +0.000 A 
ATOM     31  O   UNL     1      10.014   7.652   6.211  0.00  0.00    +0.000 OA
ENDBRANCH  26  27
ENDBRANCH  25  26
ENDBRANCH   8  23
TORSDOF 6
ENDMDL
MODEL 9
REMARK VINA RESULT:      -6.5      3.069      7.925
REMARK  Name = 
REMARK  6 active torsions:
REMARK  status: ('A' for Active; 'I' for Inactive)
REMARK    1  A    between atoms: C_2  and  C_5
REMARK    2  A    between atoms: C_11  and  N_12
REMARK    3  A    between atoms: C_13  and  C_15
REMARK    4  A    between atoms: C_21  and  C_22
REMARK    5  A    between atoms: N_24  and  C_25
REMARK    6  A    between atoms: C_25  and  C_26
REMARK                            x       y       z     vdW  Elec       q    Type
REMARK                         _______ _______ _______ _____ _____    ______ ____
ROOT
ATOM      1  C   UNL     1      35.984  -1.380  16.310  0.00  0.00    +0.000 C 
ATOM      2  C   UNL     1      36.265   0.018  15.521  0.00  0.00    +0.000 C 
ATOM      3  C   UNL     1      37.645   0.427  15.542  0.00  0.00    +0.000 C 
ATOM      4  C   UNL     1      38.639  -0.719  15.358  0.00  0.00    +0.000 A 
ATOM      5  C   UNL     1      38.436  -1.675  16.309  0.00  0.00    +0.000 A 
ATOM      6  S   UNL     1      39.623  -2.828  15.924  0.00  0.00    +0.000 S 
ATOM      7  C   UNL     1      40.347  -2.075  14.571  0.00  0.00    +0.000 A 
ATOM      8  C   UNL     1      39.624  -0.922  14.460  0.00  0.00    +0.000 A 
ATOM      9  C   UNL     1      37.323  -1.359  17.252  0.00  0.00    +0.000 C 
ENDROOT
BRANCH   1  11
ATOM     10  C   UNL     1      33.846  -1.645  17.398  0.00  0.00    +0.000 C 
ATOM     11  C   UNL     1      35.016  -0.681  17.432  0.00  0.00    +0.000 C 
ATOM     12  C   UNL     1      34.639   0.680  16.928  0.00  0.00    +0.000 C 
ATOM     13  C   UNL     1      35.761  -0.686  18.717  0.00  0.00    +0.000 C 
ENDBRANCH   1  11
BRANCH   7  14
ATOM     14  N   UNL     1      41.444  -2.525  13.744  0.00  0.00    +0.000 NA
ATOM     15  C   UNL     1      41.175  -3.148  12.496  0.00  0.00    +0.000 C 
ATOM     16  O   UNL     1      39.976  -3.281  12.165  0.00  0.00    +0.000 OA
BRANCH  15  17
ATOM     17  C   UNL     1      42.207  -3.631  11.600  0.00  0.00    +0.000 A 
ATOM     18  C   UNL     1      41.898  -4.194  10.402  0.00  0.00    +0.000 A 
ATOM     19  C   UNL     1      42.878  -4.643   9.571  0.00  0.00    +0.000 A 
ATOM     20  C   UNL     1      44.201  -4.540   9.918  0.00  0.00    +0.000 A 
ATOM     21  C   UNL     1      44.504  -3.969  11.131  0.00  0.00    +0.000 A 
ATOM     22  C   UNL     1      43.527  -3.521  11.962  0.00  0.00    +0.000 A 
ENDBRANCH  15  17
ENDBRANCH   7  14
BRANCH   8  23
ATOM     23  C   UNL     1      39.932   0.062  13.375  0.00  0.00    +0.000 C 
ATOM     24  O   UNL     1      40.870   0.888  13.484  0.00  0.00    +0.000 OA
ATOM     25  N   UNL     1      39.182   0.110  12.175  0.00  0.00    +0.000 NA
BRANCH  25  26
ATOM     26  C   UNL     1      39.497   1.070  11.141  0.00  0.00    +0.000 C 
BRANCH  26  27
ATOM     27  C   UNL     1      39.786   0.357   9.855  0.00  0.00    +0.000 A 
ATOM     28  C   UNL     1      40.588  -0.758   9.741  0.00  0.00    +0.000 A 
ATOM     29  C   UNL     1      40.597  -1.108   8.390  0.00  0.00    +0.000 A 
ATOM     30  C   UNL     1      39.801  -0.183   7.772  0.00  0.00    +0.000 A 
ATOM     31  O   UNL     1      39.338   0.667   8.660  0.00  0.00    +0.000 OA
ENDBRANCH  26  27
ENDBRANCH  25  26
ENDBRANCH   8  23
TORSDOF 6
ENDMDL
MODEL 10
REMARK VINA RESULT:      -6.5      3.176      6.294
REMARK  Name = 
REMARK  6 active torsions:
REMARK  status: ('A' for Active; 'I' for Inactive)
REMARK    1  A    between atoms: C_2  and  C_5
REMARK    2  A    between atoms: C_11  and  N_12
REMARK    3  A    between atoms: C_13  and  C_15
REMARK    4  A    between atoms: C_21  and  C_22
REMARK    5  A    between atoms: N_24  and  C_25
REMARK    6  A    between atoms: C_25  and  C_26
REMARK                            x       y       z     vdW  Elec       q    Type
REMARK                         _______ _______ _______ _____ _____    ______ ____
ROOT
ATOM      1  C   UNL     1      39.560  -1.062  12.058  0.00  0.00    +0.000 C 
ATOM      2  C   UNL     1      39.337  -1.235  13.663  0.00  0.00    +0.000 C 
ATOM      3  C   UNL     1      39.414   0.003  14.394  0.00  0.00    +0.000 C 
ATOM      4  C   UNL     1      38.744   1.185  13.695  0.00  0.00    +0.000 A 
ATOM      5  C   UNL     1      39.277   1.360  12.452  0.00  0.00    +0.000 A 
ATOM      6  S   UNL     1      38.405   2.695  11.868  0.00  0.00    +0.000 S 
ATOM      7  C   UNL     1      37.387   3.001  13.208  0.00  0.00    +0.000 A 
ATOM      8  C   UNL     1      37.769   2.029  14.088  0.00  0.00    +0.000 A 
ATOM      9  C   UNL     1      40.345   0.374  12.111  0.00  0.00    +0.000 C 
ENDROOT
BRANCH   1  11
ATOM     10  C   UNL     1      40.762  -2.650  10.696  0.00  0.00    +0.000 C 
ATOM     11  C   UNL     1      40.927  -1.965  12.038  0.00  0.00    +0.000 C 
ATOM     12  C   UNL     1      40.851  -2.936  13.179  0.00  0.00    +0.000 C 
ATOM     13  C   UNL     1      42.074  -1.023  12.096  0.00  0.00    +0.000 C 
ENDBRANCH   1  11
BRANCH   7  14
ATOM     14  N   UNL     1      36.378   4.020  13.384  0.00  0.00    +0.000 NA
ATOM     15  C   UNL     1      36.738   5.278  13.937  0.00  0.00    +0.000 C 
ATOM     16  O   UNL     1      37.937   5.446  14.254  0.00  0.00    +0.000 OA
BRANCH  15  17
ATOM     17  C   UNL     1      35.798   6.361  14.151  0.00  0.00    +0.000 A 
ATOM     18  C   UNL     1      34.468   6.199  13.923  0.00  0.00    +0.000 A 
ATOM     19  C   UNL     1      33.598   7.225  14.128  0.00  0.00    +0.000 A 
ATOM     20  C   UNL     1      34.038   8.447  14.569  0.00  0.00    +0.000 A 
ATOM     21  C   UNL     1      35.384   8.601  14.798  0.00  0.00    +0.000 A 
ATOM     22  C   UNL     1      36.254   7.579  14.593  0.00  0.00    +0.000 A 
ENDBRANCH  15  17
ENDBRANCH   7  14
BRANCH   8  23
ATOM     23  C   UNL     1      37.116   1.927  15.431  0.00  0.00    +0.000 C 
ATOM     24  O   UNL     1      37.516   2.603  16.409  0.00  0.00    +0.000 OA
ATOM     25  N   UNL     1      36.018   1.064  15.663  0.00  0.00    +0.000 NA
BRANCH  25  26
ATOM     26  C   UNL     1      35.402   0.981  16.969  0.00  0.00    +0.000 C 
BRANCH  26  27
ATOM     27  C   UNL     1      36.034  -0.120  17.762  0.00  0.00    +0.000 A 
ATOM     28  C   UNL     1      36.042  -0.188  19.139  0.00  0.00    +0.000 A 
ATOM     29  C   UNL     1      36.725  -1.358  19.478  0.00  0.00    +0.000 A 
ATOM     30  C   UNL     1      37.086  -1.923  18.286  0.00  0.00    +0.000 A 
ATOM     31  O   UNL     1      36.665  -1.172  17.293  0.00  0.00    +0.000 OA
ENDBRANCH  26  27
ENDBRANCH  25  26
ENDBRANCH   8  23
TORSDOF 6
ENDMDL
