MODEL 1
REMARK VINA RESULT:      -7.1      0.000      0.000
REMARK  Name = 
REMARK  1 active torsions:
REMARK  status: ('A' for Active; 'I' for Inactive)
REMARK    1  A    between atoms: C_4  and  C_5
REMARK                            x       y       z     vdW  Elec       q    Type
REMARK                         _______ _______ _______ _____ _____    ______ ____
ROOT
ATOM      1  O   UNL     1      20.579  11.898  39.671  0.00  0.00    +0.000 OA
ATOM      2  C   UNL     1      20.502  11.232  38.612  0.00  0.00    +0.000 C 
ATOM      3  N   UNL     1      19.263  11.083  38.000  0.00  0.00    +0.000 NA
ATOM      4  C   UNL     1      18.985   9.659  37.329  0.00  0.00    +0.000 C 
ATOM      5  N   UNL     1      20.168   9.827  36.314  0.00  0.00    +0.000 NA
ATOM      6  C   UNL     1      21.485   9.922  36.869  0.00  0.00    +0.000 A 
ATOM      7  S   UNL     1      23.065   9.352  36.458  0.00  0.00    +0.000 S 
ATOM      8  C   UNL     1      23.944  10.013  37.755  0.00  0.00    +0.000 A 
ATOM      9  C   UNL     1      22.986  10.664  38.483  0.00  0.00    +0.000 A 
ATOM     10  C   UNL     1      21.713  10.609  38.012  0.00  0.00    +0.000 A 
ATOM     11  C   UNL     1      23.587  11.341  39.721  0.00  0.00    +0.000 C 
ATOM     12  C   UNL     1      24.644  12.264  39.143  0.00  0.00    +0.000 C 
ATOM     13  C   UNL     1      25.765  11.477  38.536  0.00  0.00    +0.000 C 
ATOM     14  C   UNL     1      25.370  10.042  38.231  0.00  0.00    +0.000 C 
ENDROOT
BRANCH   4  15
ATOM     15  C   UNL     1      17.868  10.209  36.322  0.00  0.00    +0.000 A 
ATOM     16  C   UNL     1      16.825  10.908  36.779  0.00  0.00    +0.000 A 
ATOM     17  C   UNL     1      15.870  11.378  35.913  0.00  0.00    +0.000 A 
ATOM     18  C   UNL     1      15.999  11.120  34.556  0.00  0.00    +0.000 A 
ATOM     19  C   UNL     1      17.073  10.403  34.112  0.00  0.00    +0.000 A 
ATOM     20  C   UNL     1      18.045   9.925  34.999  0.00  0.00    +0.000 A 
ATOM     21  O   UNL     1      16.951  10.295  32.720  0.00  0.00    +0.000 OA
ATOM     22  C   UNL     1      15.576  10.582  32.424  0.00  0.00    +0.000 C 
ATOM     23  O   UNL     1      15.183  11.475  33.465  0.00  0.00    +0.000 OA
ENDBRANCH   4  15
TORSDOF 1
ENDMDL
MODEL 2
REMARK VINA RESULT:      -6.9     21.819     22.854
REMARK  Name = 
REMARK  1 active torsions:
REMARK  status: ('A' for Active; 'I' for Inactive)
REMARK    1  A    between atoms: C_4  and  C_5
REMARK                            x       y       z     vdW  Elec       q    Type
REMARK                         _______ _______ _______ _____ _____    ______ ____
ROOT
ATOM      1  O   UNL     1      29.826  24.969  20.197  0.00  0.00    +0.000 OA
ATOM      2  C   UNL     1      28.973  25.286  21.058  0.00  0.00    +0.000 C 
ATOM      3  N   UNL     1      28.606  24.350  22.019  0.00  0.00    +0.000 NA
ATOM      4  C   UNL     1      27.065  24.353  22.441  0.00  0.00    +0.000 C 
ATOM      5  N   UNL     1      27.145  25.818  22.994  0.00  0.00    +0.000 NA
ATOM      6  C   UNL     1      27.455  26.848  22.047  0.00  0.00    +0.000 A 
ATOM      7  S   UNL     1      26.960  28.479  21.760  0.00  0.00    +0.000 S 
ATOM      8  C   UNL     1      27.922  28.827  20.402  0.00  0.00    +0.000 A 
ATOM      9  C   UNL     1      28.610  27.661  20.199  0.00  0.00    +0.000 A 
ATOM     10  C   UNL     1      28.359  26.641  21.061  0.00  0.00    +0.000 A 
ATOM     11  C   UNL     1      29.553  27.769  18.995  0.00  0.00    +0.000 C 
ATOM     12  C   UNL     1      30.442  28.948  19.345  0.00  0.00    +0.000 C 
ATOM     13  C   UNL     1      29.658  30.224  19.352  0.00  0.00    +0.000 C 
ATOM     14  C   UNL     1      28.162  29.987  19.477  0.00  0.00    +0.000 C 
ENDROOT
BRANCH   4  15
ATOM     15  C   UNL     1      27.321  23.661  23.862  0.00  0.00    +0.000 A 
ATOM     16  C   UNL     1      26.304  23.416  24.693  0.00  0.00    +0.000 A 
ATOM     17  C   UNL     1      26.528  22.822  25.909  0.00  0.00    +0.000 A 
ATOM     18  C   UNL     1      27.823  22.477  26.267  0.00  0.00    +0.000 A 
ATOM     19  C   UNL     1      28.847  22.736  25.401  0.00  0.00    +0.000 A 
ATOM     20  C   UNL     1      28.614  23.343  24.162  0.00  0.00    +0.000 A 
ATOM     21  O   UNL     1      30.027  22.290  26.011  0.00  0.00    +0.000 OA
ATOM     22  C   UNL     1      29.725  22.170  27.409  0.00  0.00    +0.000 C 
ATOM     23  O   UNL     1      28.330  21.868  27.431  0.00  0.00    +0.000 OA
ENDBRANCH   4  15
TORSDOF 1
ENDMDL
MODEL 3
REMARK VINA RESULT:      -6.8     20.449     21.794
REMARK  Name = 
REMARK  1 active torsions:
REMARK  status: ('A' for Active; 'I' for Inactive)
REMARK    1  A    between atoms: C_4  and  C_5
REMARK                            x       y       z     vdW  Elec       q    Type
REMARK                         _______ _______ _______ _____ _____    ______ ____
ROOT
ATOM      1  O   UNL     1      25.659   6.972  17.193  0.00  0.00    +0.000 OA
ATOM      2  C   UNL     1      25.827   5.730  17.181  0.00  0.00    +0.000 C 
ATOM      3  N   UNL     1      24.803   4.907  17.637  0.00  0.00    +0.000 NA
ATOM      4  C   UNL     1      25.262   3.609  18.448  0.00  0.00    +0.000 C 
ATOM      5  N   UNL     1      26.032   3.023  17.215  0.00  0.00    +0.000 NA
ATOM      6  C   UNL     1      27.143   3.785  16.728  0.00  0.00    +0.000 A 
ATOM      7  S   UNL     1      28.716   3.446  16.095  0.00  0.00    +0.000 S 
ATOM      8  C   UNL     1      29.246   5.035  15.804  0.00  0.00    +0.000 A 
ATOM      9  C   UNL     1      28.185   5.798  16.209  0.00  0.00    +0.000 A 
ATOM     10  C   UNL     1      27.099   5.137  16.686  0.00  0.00    +0.000 A 
ATOM     11  C   UNL     1      28.468   7.294  16.025  0.00  0.00    +0.000 C 
ATOM     12  C   UNL     1      28.777   7.417  14.545  0.00  0.00    +0.000 C 
ATOM     13  C   UNL     1      30.063   6.725  14.208  0.00  0.00    +0.000 C 
ATOM     14  C   UNL     1      30.474   5.716  15.268  0.00  0.00    +0.000 C 
ENDROOT
BRANCH   4  15
ATOM     15  C   UNL     1      23.912   2.797  18.161  0.00  0.00    +0.000 A 
ATOM     16  C   UNL     1      23.953   1.502  17.834  0.00  0.00    +0.000 A 
ATOM     17  C   UNL     1      22.794   0.810  17.590  0.00  0.00    +0.000 A 
ATOM     18  C   UNL     1      21.578   1.469  17.685  0.00  0.00    +0.000 A 
ATOM     19  C   UNL     1      21.559   2.793  18.020  0.00  0.00    +0.000 A 
ATOM     20  C   UNL     1      22.744   3.495  18.269  0.00  0.00    +0.000 A 
ATOM     21  O   UNL     1      20.217   3.195  18.043  0.00  0.00    +0.000 OA
ATOM     22  C   UNL     1      19.498   2.202  17.296  0.00  0.00    +0.000 C 
ATOM     23  O   UNL     1      20.260   1.012  17.490  0.00  0.00    +0.000 OA
ENDBRANCH   4  15
TORSDOF 1
ENDMDL
MODEL 4
REMARK VINA RESULT:      -6.8     18.976     19.886
REMARK  Name = 
REMARK  1 active torsions:
REMARK  status: ('A' for Active; 'I' for Inactive)
REMARK    1  A    between atoms: C_4  and  C_5
REMARK                            x       y       z     vdW  Elec       q    Type
REMARK                         _______ _______ _______ _____ _____    ______ ____
ROOT
ATOM      1  O   UNL     1      23.497  26.352  25.862  0.00  0.00    +0.000 OA
ATOM      2  C   UNL     1      24.515  25.675  26.138  0.00  0.00    +0.000 C 
ATOM      3  N   UNL     1      25.238  25.094  25.101  0.00  0.00    +0.000 NA
ATOM      4  C   UNL     1      25.844  23.646  25.401  0.00  0.00    +0.000 C 
ATOM      5  N   UNL     1      26.744  24.185  26.566  0.00  0.00    +0.000 NA
ATOM      6  C   UNL     1      26.066  24.740  27.700  0.00  0.00    +0.000 A 
ATOM      7  S   UNL     1      26.282  24.738  29.415  0.00  0.00    +0.000 S 
ATOM      8  C   UNL     1      24.948  25.691  29.864  0.00  0.00    +0.000 A 
ATOM      9  C   UNL     1      24.360  25.991  28.665  0.00  0.00    +0.000 A 
ATOM     10  C   UNL     1      24.951  25.492  27.549  0.00  0.00    +0.000 A 
ATOM     11  C   UNL     1      23.113  26.863  28.854  0.00  0.00    +0.000 C 
ATOM     12  C   UNL     1      23.639  28.078  29.595  0.00  0.00    +0.000 C 
ATOM     13  C   UNL     1      24.080  27.710  30.979  0.00  0.00    +0.000 C 
ATOM     14  C   UNL     1      24.334  26.219  31.130  0.00  0.00    +0.000 C 
ENDROOT
BRANCH   4  15
ATOM     15  C   UNL     1      26.989  23.755  24.287  0.00  0.00    +0.000 A 
ATOM     16  C   UNL     1      28.080  22.988  24.355  0.00  0.00    +0.000 A 
ATOM     17  C   UNL     1      29.058  23.085  23.398  0.00  0.00    +0.000 A 
ATOM     18  C   UNL     1      28.902  23.988  22.357  0.00  0.00    +0.000 A 
ATOM     19  C   UNL     1      27.778  24.762  22.307  0.00  0.00    +0.000 A 
ATOM     20  C   UNL     1      26.782  24.661  23.286  0.00  0.00    +0.000 A 
ATOM     21  O   UNL     1      27.882  25.570  21.167  0.00  0.00    +0.000 OA
ATOM     22  C   UNL     1      29.272  25.560  20.806  0.00  0.00    +0.000 C 
ATOM     23  O   UNL     1      29.733  24.288  21.260  0.00  0.00    +0.000 OA
ENDBRANCH   4  15
TORSDOF 1
ENDMDL
MODEL 5
REMARK VINA RESULT:      -6.8     15.204     16.977
REMARK  Name = 
REMARK  1 active torsions:
REMARK  status: ('A' for Active; 'I' for Inactive)
REMARK    1  A    between atoms: C_4  and  C_5
REMARK                            x       y       z     vdW  Elec       q    Type
REMARK                         _______ _______ _______ _____ _____    ______ ____
ROOT
ATOM      1  O   UNL     1      34.207   2.719  37.951  0.00  0.00    +0.000 OA
ATOM      2  C   UNL     1      34.238   3.476  36.953  0.00  0.00    +0.000 C 
ATOM      3  N   UNL     1      34.520   4.825  37.140  0.00  0.00    +0.000 NA
ATOM      4  C   UNL     1      33.717   5.840  36.203  0.00  0.00    +0.000 C 
ATOM      5  N   UNL     1      34.347   5.245  34.896  0.00  0.00    +0.000 NA
ATOM      6  C   UNL     1      34.046   3.875  34.602  0.00  0.00    +0.000 A 
ATOM      7  S   UNL     1      33.707   2.940  33.188  0.00  0.00    +0.000 S 
ATOM      8  C   UNL     1      33.496   1.414  33.909  0.00  0.00    +0.000 A 
ATOM      9  C   UNL     1      33.694   1.666  35.239  0.00  0.00    +0.000 A 
ATOM     10  C   UNL     1      33.979   2.948  35.586  0.00  0.00    +0.000 A 
ATOM     11  C   UNL     1      33.545   0.392  36.079  0.00  0.00    +0.000 C 
ATOM     12  C   UNL     1      34.571  -0.550  35.478  0.00  0.00    +0.000 C 
ATOM     13  C   UNL     1      34.184  -0.945  34.086  0.00  0.00    +0.000 C 
ATOM     14  C   UNL     1      33.178   0.012  33.470  0.00  0.00    +0.000 C 
ENDROOT
BRANCH   4  15
ATOM     15  C   UNL     1      34.792   7.019  36.343  0.00  0.00    +0.000 A 
ATOM     16  C   UNL     1      36.039   6.759  36.745  0.00  0.00    +0.000 A 
ATOM     17  C   UNL     1      36.957   7.772  36.862  0.00  0.00    +0.000 A 
ATOM     18  C   UNL     1      36.575   9.071  36.560  0.00  0.00    +0.000 A 
ATOM     19  C   UNL     1      35.296   9.314  36.151  0.00  0.00    +0.000 A 
ATOM     20  C   UNL     1      34.362   8.277  36.032  0.00  0.00    +0.000 A 
ATOM     21  O   UNL     1      35.190  10.691  35.917  0.00  0.00    +0.000 OA
ATOM     22  C   UNL     1      36.294  11.292  36.610  0.00  0.00    +0.000 C 
ATOM     23  O   UNL     1      37.299  10.279  36.593  0.00  0.00    +0.000 OA
ENDBRANCH   4  15
TORSDOF 1
ENDMDL
MODEL 6
REMARK VINA RESULT:      -6.7      3.009      4.247
REMARK  Name = 
REMARK  1 active torsions:
REMARK  status: ('A' for Active; 'I' for Inactive)
REMARK    1  A    between atoms: C_4  and  C_5
REMARK                            x       y       z     vdW  Elec       q    Type
REMARK                         _______ _______ _______ _____ _____    ______ ____
ROOT
ATOM      1  O   UNL     1      18.692   9.143  36.595  0.00  0.00    +0.000 OA
ATOM      2  C   UNL     1      18.275  10.309  36.791  0.00  0.00    +0.000 C 
ATOM      3  N   UNL     1      16.988  10.641  36.382  0.00  0.00    +0.000 NA
ATOM      4  C   UNL     1      16.803  12.115  35.793  0.00  0.00    +0.000 C 
ATOM      5  N   UNL     1      17.221  12.786  37.147  0.00  0.00    +0.000 NA
ATOM      6  C   UNL     1      18.557  12.542  37.601  0.00  0.00    +0.000 A 
ATOM      7  S   UNL     1      19.802  13.450  38.386  0.00  0.00    +0.000 S 
ATOM      8  C   UNL     1      20.999  12.248  38.490  0.00  0.00    +0.000 A 
ATOM      9  C   UNL     1      20.404  11.161  37.909  0.00  0.00    +0.000 A 
ATOM     10  C   UNL     1      19.135  11.327  37.452  0.00  0.00    +0.000 A 
ATOM     11  C   UNL     1      21.338   9.946  37.904  0.00  0.00    +0.000 C 
ATOM     12  C   UNL     1      21.670   9.747  39.371  0.00  0.00    +0.000 C 
ATOM     13  C   UNL     1      22.498  10.883  39.890  0.00  0.00    +0.000 C 
ATOM     14  C   UNL     1      22.403  12.119  39.012  0.00  0.00    +0.000 C 
ENDROOT
BRANCH   4  15
ATOM     15  C   UNL     1      15.231  12.175  36.094  0.00  0.00    +0.000 A 
ATOM     16  C   UNL     1      14.480  13.159  35.592  0.00  0.00    +0.000 A 
ATOM     17  C   UNL     1      13.133  13.206  35.852  0.00  0.00    +0.000 A 
ATOM     18  C   UNL     1      12.560  12.221  36.642  0.00  0.00    +0.000 A 
ATOM     19  C   UNL     1      13.347  11.225  37.144  0.00  0.00    +0.000 A 
ATOM     20  C   UNL     1      14.721  11.180  36.877  0.00  0.00    +0.000 A 
ATOM     21  O   UNL     1      12.518  10.380  37.893  0.00  0.00    +0.000 OA
ATOM     22  C   UNL     1      11.333  11.141  38.173  0.00  0.00    +0.000 C 
ATOM     23  O   UNL     1      11.229  12.028  37.061  0.00  0.00    +0.000 OA
ENDBRANCH   4  15
TORSDOF 1
ENDMDL
MODEL 7
REMARK VINA RESULT:      -6.7     24.727     25.606
REMARK  Name = 
REMARK  1 active torsions:
REMARK  status: ('A' for Active; 'I' for Inactive)
REMARK    1  A    between atoms: C_4  and  C_5
REMARK                            x       y       z     vdW  Elec       q    Type
REMARK                         _______ _______ _______ _____ _____    ______ ____
ROOT
ATOM      1  O   UNL     1      29.702  24.191  21.064  0.00  0.00    +0.000 OA
ATOM      2  C   UNL     1      29.310  25.355  20.816  0.00  0.00    +0.000 C 
ATOM      3  N   UNL     1      29.808  26.007  19.693  0.00  0.00    +0.000 NA
ATOM      4  C   UNL     1      30.073  27.574  19.858  0.00  0.00    +0.000 C 
ATOM      5  N   UNL     1      28.559  27.874  20.136  0.00  0.00    +0.000 NA
ATOM      6  C   UNL     1      27.992  27.288  21.314  0.00  0.00    +0.000 A 
ATOM      7  S   UNL     1      26.863  27.764  22.534  0.00  0.00    +0.000 S 
ATOM      8  C   UNL     1      26.866  26.352  23.481  0.00  0.00    +0.000 A 
ATOM      9  C   UNL     1      27.750  25.538  22.826  0.00  0.00    +0.000 A 
ATOM     10  C   UNL     1      28.328  26.036  21.702  0.00  0.00    +0.000 A 
ATOM     11  C   UNL     1      27.899  24.187  23.536  0.00  0.00    +0.000 C 
ATOM     12  C   UNL     1      26.482  23.646  23.568  0.00  0.00    +0.000 C 
ATOM     13  C   UNL     1      25.614  24.473  24.467  0.00  0.00    +0.000 C 
ATOM     14  C   UNL     1      26.199  25.851  24.731  0.00  0.00    +0.000 C 
ENDROOT
BRANCH   4  15
ATOM     15  C   UNL     1      29.984  27.884  18.289  0.00  0.00    +0.000 A 
ATOM     16  C   UNL     1      30.254  26.933  17.391  0.00  0.00    +0.000 A 
ATOM     17  C   UNL     1      30.176  27.203  16.048  0.00  0.00    +0.000 A 
ATOM     18  C   UNL     1      29.812  28.475  15.632  0.00  0.00    +0.000 A 
ATOM     19  C   UNL     1      29.540  29.431  16.568  0.00  0.00    +0.000 A 
ATOM     20  C   UNL     1      29.621  29.152  17.937  0.00  0.00    +0.000 A 
ATOM     21  O   UNL     1      29.204  30.603  15.876  0.00  0.00    +0.000 OA
ATOM     22  C   UNL     1      29.708  30.429  14.543  0.00  0.00    +0.000 C 
ATOM     23  O   UNL     1      29.657  29.017  14.341  0.00  0.00    +0.000 OA
ENDBRANCH   4  15
TORSDOF 1
ENDMDL
MODEL 8
REMARK VINA RESULT:      -6.5     20.951     21.820
REMARK  Name = 
REMARK  1 active torsions:
REMARK  status: ('A' for Active; 'I' for Inactive)
REMARK    1  A    between atoms: C_4  and  C_5
REMARK                            x       y       z     vdW  Elec       q    Type
REMARK                         _______ _______ _______ _____ _____    ______ ____
ROOT
ATOM      1  O   UNL     1      26.726  24.004  25.156  0.00  0.00    +0.000 OA
ATOM      2  C   UNL     1      27.749  24.145  24.446  0.00  0.00    +0.000 C 
ATOM      3  N   UNL     1      27.639  24.818  23.234  0.00  0.00    +0.000 NA
ATOM      4  C   UNL     1      28.529  24.246  22.037  0.00  0.00    +0.000 C 
ATOM      5  N   UNL     1      29.868  24.541  22.796  0.00  0.00    +0.000 NA
ATOM      6  C   UNL     1      30.083  23.834  24.023  0.00  0.00    +0.000 A 
ATOM      7  S   UNL     1      31.423  23.098  24.830  0.00  0.00    +0.000 S 
ATOM      8  C   UNL     1      30.633  22.537  26.227  0.00  0.00    +0.000 A 
ATOM      9  C   UNL     1      29.337  22.935  26.034  0.00  0.00    +0.000 A 
ATOM     10  C   UNL     1      29.065  23.607  24.886  0.00  0.00    +0.000 A 
ATOM     11  C   UNL     1      28.442  22.516  27.207  0.00  0.00    +0.000 C 
ATOM     12  C   UNL     1      29.106  23.164  28.408  0.00  0.00    +0.000 C 
ATOM     13  C   UNL     1      30.439  22.539  28.683  0.00  0.00    +0.000 C 
ATOM     14  C   UNL     1      30.988  21.789  27.481  0.00  0.00    +0.000 C 
ENDROOT
BRANCH   4  15
ATOM     15  C   UNL     1      28.535  25.620  21.215  0.00  0.00    +0.000 A 
ATOM     16  C   UNL     1      29.591  25.965  20.473  0.00  0.00    +0.000 A 
ATOM     17  C   UNL     1      29.591  27.143  19.770  0.00  0.00    +0.000 A 
ATOM     18  C   UNL     1      28.483  27.974  19.839  0.00  0.00    +0.000 A 
ATOM     19  C   UNL     1      27.416  27.603  20.605  0.00  0.00    +0.000 A 
ATOM     20  C   UNL     1      27.419  26.399  21.320  0.00  0.00    +0.000 A 
ATOM     21  O   UNL     1      26.453  28.614  20.491  0.00  0.00    +0.000 OA
ATOM     22  C   UNL     1      27.153  29.769  20.003  0.00  0.00    +0.000 C 
ATOM     23  O   UNL     1      28.221  29.218  19.232  0.00  0.00    +0.000 OA
ENDBRANCH   4  15
TORSDOF 1
ENDMDL
MODEL 9
REMARK VINA RESULT:      -6.4     19.108     20.262
REMARK  Name = 
REMARK  1 active torsions:
REMARK  status: ('A' for Active; 'I' for Inactive)
REMARK    1  A    between atoms: C_4  and  C_5
REMARK                            x       y       z     vdW  Elec       q    Type
REMARK                         _______ _______ _______ _____ _____    ______ ____
ROOT
ATOM      1  O   UNL     1      23.601  25.956  28.796  0.00  0.00    +0.000 OA
ATOM      2  C   UNL     1      23.498  26.094  27.555  0.00  0.00    +0.000 C 
ATOM      3  N   UNL     1      24.595  25.799  26.752  0.00  0.00    +0.000 NA
ATOM      4  C   UNL     1      24.809  26.752  25.488  0.00  0.00    +0.000 C 
ATOM      5  N   UNL     1      23.438  26.335  24.851  0.00  0.00    +0.000 NA
ATOM      6  C   UNL     1      22.257  26.665  25.591  0.00  0.00    +0.000 A 
ATOM      7  S   UNL     1      20.660  27.218  25.226  0.00  0.00    +0.000 S 
ATOM      8  C   UNL     1      20.025  27.294  26.801  0.00  0.00    +0.000 A 
ATOM      9  C   UNL     1      21.074  26.888  27.581  0.00  0.00    +0.000 A 
ATOM     10  C   UNL     1      22.227  26.564  26.941  0.00  0.00    +0.000 A 
ATOM     11  C   UNL     1      20.699  26.887  29.068  0.00  0.00    +0.000 C 
ATOM     12  C   UNL     1      19.499  25.961  29.130  0.00  0.00    +0.000 C 
ATOM     13  C   UNL     1      18.322  26.563  28.424  0.00  0.00    +0.000 C 
ATOM     14  C   UNL     1      18.726  27.665  27.459  0.00  0.00    +0.000 C 
ENDROOT
BRANCH   4  15
ATOM     15  C   UNL     1      25.669  25.681  24.665  0.00  0.00    +0.000 A 
ATOM     16  C   UNL     1      25.432  24.372  24.796  0.00  0.00    +0.000 A 
ATOM     17  C   UNL     1      26.171  23.459  24.089  0.00  0.00    +0.000 A 
ATOM     18  C   UNL     1      27.168  23.907  23.236  0.00  0.00    +0.000 A 
ATOM     19  C   UNL     1      27.394  25.248  23.118  0.00  0.00    +0.000 A 
ATOM     20  C   UNL     1      26.637  26.178  23.841  0.00  0.00    +0.000 A 
ATOM     21  O   UNL     1      28.442  25.413  22.203  0.00  0.00    +0.000 OA
ATOM     22  C   UNL     1      29.101  24.140  22.128  0.00  0.00    +0.000 C 
ATOM     23  O   UNL     1      28.062  23.202  22.405  0.00  0.00    +0.000 OA
ENDBRANCH   4  15
TORSDOF 1
ENDMDL
MODEL 10
REMARK VINA RESULT:      -6.4     18.290     20.310
REMARK  Name = 
REMARK  1 active torsions:
REMARK  status: ('A' for Active; 'I' for Inactive)
REMARK    1  A    between atoms: C_4  and  C_5
REMARK                            x       y       z     vdW  Elec       q    Type
REMARK                         _______ _______ _______ _____ _____    ______ ____
ROOT
ATOM      1  O   UNL     1      31.656  23.366  24.110  0.00  0.00    +0.000 OA
ATOM      2  C   UNL     1      30.855  23.122  25.043  0.00  0.00    +0.000 C 
ATOM      3  N   UNL     1      31.363  22.795  26.296  0.00  0.00    +0.000 NA
ATOM      4  C   UNL     1      30.550  21.685  27.109  0.00  0.00    +0.000 C 
ATOM      5  N   UNL     1      29.258  22.573  27.169  0.00  0.00    +0.000 NA
ATOM      6  C   UNL     1      28.640  22.897  25.918  0.00  0.00    +0.000 A 
ATOM      7  S   UNL     1      27.026  23.058  25.319  0.00  0.00    +0.000 S 
ATOM      8  C   UNL     1      27.369  23.479  23.708  0.00  0.00    +0.000 A 
ATOM      9  C   UNL     1      28.736  23.485  23.669  0.00  0.00    +0.000 A 
ATOM     10  C   UNL     1      29.385  23.181  24.824  0.00  0.00    +0.000 A 
ATOM     11  C   UNL     1      29.256  23.849  22.274  0.00  0.00    +0.000 C 
ATOM     12  C   UNL     1      28.635  25.207  22.007  0.00  0.00    +0.000 C 
ATOM     13  C   UNL     1      27.148  25.094  21.860  0.00  0.00    +0.000 C 
ATOM     14  C   UNL     1      26.601  23.808  22.458  0.00  0.00    +0.000 C 
ENDROOT
BRANCH   4  15
ATOM     15  C   UNL     1      31.097  22.150  28.540  0.00  0.00    +0.000 A 
ATOM     16  C   UNL     1      30.488  23.127  29.217  0.00  0.00    +0.000 A 
ATOM     17  C   UNL     1      30.960  23.521  30.444  0.00  0.00    +0.000 A 
ATOM     18  C   UNL     1      32.078  22.893  30.974  0.00  0.00    +0.000 A 
ATOM     19  C   UNL     1      32.684  21.896  30.265  0.00  0.00    +0.000 A 
ATOM     20  C   UNL     1      32.199  21.497  29.013  0.00  0.00    +0.000 A 
ATOM     21  O   UNL     1      33.770  21.447  31.027  0.00  0.00    +0.000 OA
ATOM     22  C   UNL     1      34.037  22.488  31.979  0.00  0.00    +0.000 C 
ATOM     23  O   UNL     1      32.763  23.093  32.189  0.00  0.00    +0.000 OA
ENDBRANCH   4  15
TORSDOF 1
ENDMDL
