MODEL 1
REMARK VINA RESULT:      -5.8      0.000      0.000
REMARK  Name = 
REMARK  3 active torsions:
REMARK  status: ('A' for Active; 'I' for Inactive)
REMARK    1  A    between atoms: C_6  and  C_7
REMARK    2  A    between atoms: C_9  and  S_10
REMARK    3  A    between atoms: S_10  and  C_11
REMARK                            x       y       z     vdW  Elec       q    Type
REMARK                         _______ _______ _______ _____ _____    ______ ____
ROOT
ATOM      1  C   UNL     1      22.725  -7.441  24.573  0.00  0.00    +0.000 C 
ATOM      2  C   UNL     1      21.349  -7.318  25.175  0.00  0.00    +0.000 A 
ATOM      3  C   UNL     1      20.899  -6.039  25.378  0.00  0.00    +0.000 A 
ATOM      4  C   UNL     1      19.622  -5.913  25.937  0.00  0.00    +0.000 A 
ATOM      5  C   UNL     1      19.138  -4.529  26.156  0.00  0.00    +0.000 C 
ATOM      6  C   UNL     1      18.891  -7.040  26.251  0.00  0.00    +0.000 A 
ATOM      7  C   UNL     1      19.392  -8.310  26.025  0.00  0.00    +0.000 A 
ATOM      8  N   UNL     1      20.621  -8.400  25.488  0.00  0.00    +0.000 NA
ENDROOT
BRANCH   6   9
ATOM      9  C   UNL     1      17.589  -6.857  26.820  0.00  0.00    +0.000 C 
ATOM     10  N   UNL     1      16.544  -6.717  27.297  0.00  0.00    +0.000 NA
ENDBRANCH   6   9
BRANCH   7  11
ATOM     11  S   UNL     1      18.422  -9.759  26.442  0.00  0.00    +0.000 S 
BRANCH  11  12
ATOM     12  C   UNL     1      18.352  -9.910  28.225  0.00  0.00    +0.000 A 
ATOM     13  C   UNL     1      19.453  -9.625  28.992  0.00  0.00    +0.000 A 
ATOM     14  C   UNL     1      19.461  -9.723  30.379  0.00  0.00    +0.000 A 
ATOM     15  C   UNL     1      18.284 -10.129  30.977  0.00  0.00    +0.000 A 
ATOM     16  C   UNL     1      17.156 -10.423  30.234  0.00  0.00    +0.000 A 
ATOM     17  C   UNL     1      17.203 -10.310  28.868  0.00  0.00    +0.000 A 
ATOM     18  N   UNL     1      16.070 -10.602  28.068  0.00  0.00    +0.000 NA
ENDBRANCH  11  12
ENDBRANCH   7  11
TORSDOF 3
ENDMDL
MODEL 2
REMARK VINA RESULT:      -5.6     32.444     34.905
REMARK  Name = 
REMARK  3 active torsions:
REMARK  status: ('A' for Active; 'I' for Inactive)
REMARK    1  A    between atoms: C_6  and  C_7
REMARK    2  A    between atoms: C_9  and  S_10
REMARK    3  A    between atoms: S_10  and  C_11
REMARK                            x       y       z     vdW  Elec       q    Type
REMARK                         _______ _______ _______ _____ _____    ______ ____
ROOT
ATOM      1  C   UNL     1      25.830  28.591  24.628  0.00  0.00    +0.000 C 
ATOM      2  C   UNL     1      26.656  27.673  23.765  0.00  0.00    +0.000 A 
ATOM      3  C   UNL     1      27.514  28.288  22.891  0.00  0.00    +0.000 A 
ATOM      4  C   UNL     1      28.286  27.444  22.084  0.00  0.00    +0.000 A 
ATOM      5  C   UNL     1      29.213  28.111  21.138  0.00  0.00    +0.000 C 
ATOM      6  C   UNL     1      28.159  26.074  22.196  0.00  0.00    +0.000 A 
ATOM      7  C   UNL     1      27.277  25.504  23.097  0.00  0.00    +0.000 A 
ATOM      8  N   UNL     1      26.549  26.339  23.858  0.00  0.00    +0.000 NA
ENDROOT
BRANCH   6   9
ATOM      9  C   UNL     1      28.973  25.255  21.348  0.00  0.00    +0.000 C 
ATOM     10  N   UNL     1      29.629  24.579  20.676  0.00  0.00    +0.000 NA
ENDBRANCH   6   9
BRANCH   7  11
ATOM     11  S   UNL     1      27.131  23.722  23.222  0.00  0.00    +0.000 S 
BRANCH  11  12
ATOM     12  C   UNL     1      28.318  23.131  24.426  0.00  0.00    +0.000 A 
ATOM     13  C   UNL     1      29.631  22.942  24.074  0.00  0.00    +0.000 A 
ATOM     14  C   UNL     1      30.599  22.486  24.961  0.00  0.00    +0.000 A 
ATOM     15  C   UNL     1      30.180  22.222  26.252  0.00  0.00    +0.000 A 
ATOM     16  C   UNL     1      28.867  22.402  26.639  0.00  0.00    +0.000 A 
ATOM     17  C   UNL     1      27.951  22.854  25.723  0.00  0.00    +0.000 A 
ATOM     18  N   UNL     1      26.593  23.053  26.078  0.00  0.00    +0.000 NA
ENDBRANCH  11  12
ENDBRANCH   7  11
TORSDOF 3
ENDMDL
MODEL 3
REMARK VINA RESULT:      -5.6     32.297     34.974
REMARK  Name = 
REMARK  3 active torsions:
REMARK  status: ('A' for Active; 'I' for Inactive)
REMARK    1  A    between atoms: C_6  and  C_7
REMARK    2  A    between atoms: C_9  and  S_10
REMARK    3  A    between atoms: S_10  and  C_11
REMARK                            x       y       z     vdW  Elec       q    Type
REMARK                         _______ _______ _______ _____ _____    ______ ____
ROOT
ATOM      1  C   UNL     1      32.595  23.596  24.609  0.00  0.00    +0.000 C 
ATOM      2  C   UNL     1      31.098  23.436  24.648  0.00  0.00    +0.000 A 
ATOM      3  C   UNL     1      30.578  22.975  25.829  0.00  0.00    +0.000 A 
ATOM      4  C   UNL     1      29.187  22.822  25.876  0.00  0.00    +0.000 A 
ATOM      5  C   UNL     1      28.627  22.323  27.154  0.00  0.00    +0.000 C 
ATOM      6  C   UNL     1      28.421  23.130  24.771  0.00  0.00    +0.000 A 
ATOM      7  C   UNL     1      28.997  23.593  23.601  0.00  0.00    +0.000 A 
ATOM      8  N   UNL     1      30.334  23.729  23.585  0.00  0.00    +0.000 NA
ENDROOT
BRANCH   6   9
ATOM      9  C   UNL     1      27.002  22.957  24.870  0.00  0.00    +0.000 C 
ATOM     10  N   UNL     1      25.856  22.808  24.934  0.00  0.00    +0.000 NA
ENDBRANCH   6   9
BRANCH   7  11
ATOM     11  S   UNL     1      27.978  23.987  22.179  0.00  0.00    +0.000 S 
BRANCH  11  12
ATOM     12  C   UNL     1      28.449  25.602  21.564  0.00  0.00    +0.000 A 
ATOM     13  C   UNL     1      29.355  25.719  20.539  0.00  0.00    +0.000 A 
ATOM     14  C   UNL     1      29.760  26.943  20.019  0.00  0.00    +0.000 A 
ATOM     15  C   UNL     1      29.201  28.073  20.586  0.00  0.00    +0.000 A 
ATOM     16  C   UNL     1      28.287  27.989  21.618  0.00  0.00    +0.000 A 
ATOM     17  C   UNL     1      27.922  26.756  22.095  0.00  0.00    +0.000 A 
ATOM     18  N   UNL     1      26.987  26.624  23.153  0.00  0.00    +0.000 NA
ENDBRANCH  11  12
ENDBRANCH   7  11
TORSDOF 3
ENDMDL
MODEL 4
REMARK VINA RESULT:      -5.6      1.207      2.988
REMARK  Name = 
REMARK  3 active torsions:
REMARK  status: ('A' for Active; 'I' for Inactive)
REMARK    1  A    between atoms: C_6  and  C_7
REMARK    2  A    between atoms: C_9  and  S_10
REMARK    3  A    between atoms: S_10  and  C_11
REMARK                            x       y       z     vdW  Elec       q    Type
REMARK                         _______ _______ _______ _____ _____    ______ ____
ROOT
ATOM      1  C   UNL     1      18.618  -4.990  26.510  0.00  0.00    +0.000 C 
ATOM      2  C   UNL     1      19.552  -6.134  26.214  0.00  0.00    +0.000 A 
ATOM      3  C   UNL     1      20.678  -5.816  25.500  0.00  0.00    +0.000 A 
ATOM      4  C   UNL     1      21.553  -6.872  25.218  0.00  0.00    +0.000 A 
ATOM      5  C   UNL     1      22.769  -6.526  24.446  0.00  0.00    +0.000 C 
ATOM      6  C   UNL     1      21.259  -8.147  25.655  0.00  0.00    +0.000 A 
ATOM      7  C   UNL     1      20.107  -8.415  26.374  0.00  0.00    +0.000 A 
ATOM      8  N   UNL     1      19.286  -7.382  26.629  0.00  0.00    +0.000 NA
ENDROOT
BRANCH   6   9
ATOM      9  C   UNL     1      22.187  -9.193  25.342  0.00  0.00    +0.000 C 
ATOM     10  N   UNL     1      22.931 -10.047  25.105  0.00  0.00    +0.000 NA
ENDBRANCH   6   9
BRANCH   7  11
ATOM     11  S   UNL     1      19.748 -10.081  26.930  0.00  0.00    +0.000 S 
BRANCH  11  12
ATOM     12  C   UNL     1      19.120 -10.006  28.606  0.00  0.00    +0.000 A 
ATOM     13  C   UNL     1      19.980  -9.855  29.665  0.00  0.00    +0.000 A 
ATOM     14  C   UNL     1      19.554  -9.789  30.987  0.00  0.00    +0.000 A 
ATOM     15  C   UNL     1      18.193  -9.884  31.204  0.00  0.00    +0.000 A 
ATOM     16  C   UNL     1      17.300 -10.036  30.160  0.00  0.00    +0.000 A 
ATOM     17  C   UNL     1      17.774 -10.096  28.875  0.00  0.00    +0.000 A 
ATOM     18  N   UNL     1      16.894 -10.251  27.774  0.00  0.00    +0.000 NA
ENDBRANCH  11  12
ENDBRANCH   7  11
TORSDOF 3
ENDMDL
MODEL 5
REMARK VINA RESULT:      -5.5     32.510     33.910
REMARK  Name = 
REMARK  3 active torsions:
REMARK  status: ('A' for Active; 'I' for Inactive)
REMARK    1  A    between atoms: C_6  and  C_7
REMARK    2  A    between atoms: C_9  and  S_10
REMARK    3  A    between atoms: S_10  and  C_11
REMARK                            x       y       z     vdW  Elec       q    Type
REMARK                         _______ _______ _______ _____ _____    ______ ____
ROOT
ATOM      1  C   UNL     1      23.641  26.715  25.560  0.00  0.00    +0.000 C 
ATOM      2  C   UNL     1      24.514  25.755  26.324  0.00  0.00    +0.000 A 
ATOM      3  C   UNL     1      24.529  25.915  27.685  0.00  0.00    +0.000 A 
ATOM      4  C   UNL     1      25.339  25.029  28.405  0.00  0.00    +0.000 A 
ATOM      5  C   UNL     1      25.353  25.204  29.877  0.00  0.00    +0.000 C 
ATOM      6  C   UNL     1      26.065  24.062  27.740  0.00  0.00    +0.000 A 
ATOM      7  C   UNL     1      26.015  23.943  26.363  0.00  0.00    +0.000 A 
ATOM      8  N   UNL     1      25.229  24.808  25.698  0.00  0.00    +0.000 NA
ENDROOT
BRANCH   6   9
ATOM      9  C   UNL     1      26.877  23.179  28.523  0.00  0.00    +0.000 C 
ATOM     10  N   UNL     1      27.544  22.481  29.162  0.00  0.00    +0.000 NA
ENDBRANCH   6   9
BRANCH   7  11
ATOM     11  S   UNL     1      26.968  22.678  25.524  0.00  0.00    +0.000 S 
BRANCH  11  12
ATOM     12  C   UNL     1      27.878  23.440  24.181  0.00  0.00    +0.000 A 
ATOM     13  C   UNL     1      29.152  23.908  24.382  0.00  0.00    +0.000 A 
ATOM     14  C   UNL     1      29.908  24.508  23.381  0.00  0.00    +0.000 A 
ATOM     15  C   UNL     1      29.313  24.619  22.138  0.00  0.00    +0.000 A 
ATOM     16  C   UNL     1      28.033  24.158  21.903  0.00  0.00    +0.000 A 
ATOM     17  C   UNL     1      27.330  23.574  22.926  0.00  0.00    +0.000 A 
ATOM     18  N   UNL     1      26.013  23.087  22.729  0.00  0.00    +0.000 NA
ENDBRANCH  11  12
ENDBRANCH   7  11
TORSDOF 3
ENDMDL
MODEL 6
REMARK VINA RESULT:      -5.5     32.291     33.253
REMARK  Name = 
REMARK  3 active torsions:
REMARK  status: ('A' for Active; 'I' for Inactive)
REMARK    1  A    between atoms: C_6  and  C_7
REMARK    2  A    between atoms: C_9  and  S_10
REMARK    3  A    between atoms: S_10  and  C_11
REMARK                            x       y       z     vdW  Elec       q    Type
REMARK                         _______ _______ _______ _____ _____    ______ ____
ROOT
ATOM      1  C   UNL     1      26.903  23.634  23.165  0.00  0.00    +0.000 C 
ATOM      2  C   UNL     1      27.862  23.265  24.267  0.00  0.00    +0.000 A 
ATOM      3  C   UNL     1      29.190  23.269  23.928  0.00  0.00    +0.000 A 
ATOM      4  C   UNL     1      30.090  22.927  24.945  0.00  0.00    +0.000 A 
ATOM      5  C   UNL     1      31.525  22.931  24.576  0.00  0.00    +0.000 C 
ATOM      6  C   UNL     1      29.622  22.611  26.204  0.00  0.00    +0.000 A 
ATOM      7  C   UNL     1      28.269  22.623  26.494  0.00  0.00    +0.000 A 
ATOM      8  N   UNL     1      27.429  22.955  25.498  0.00  0.00    +0.000 NA
ENDROOT
BRANCH   6   9
ATOM      9  C   UNL     1      30.584  22.268  27.209  0.00  0.00    +0.000 C 
ATOM     10  N   UNL     1      31.365  22.011  28.023  0.00  0.00    +0.000 NA
ENDBRANCH   6   9
BRANCH   7  11
ATOM     11  S   UNL     1      27.687  22.208  28.138  0.00  0.00    +0.000 S 
BRANCH  11  12
ATOM     12  C   UNL     1      27.090  23.700  28.930  0.00  0.00    +0.000 A 
ATOM     13  C   UNL     1      27.386  24.932  28.405  0.00  0.00    +0.000 A 
ATOM     14  C   UNL     1      26.952  26.125  28.973  0.00  0.00    +0.000 A 
ATOM     15  C   UNL     1      26.190  26.023  30.121  0.00  0.00    +0.000 A 
ATOM     16  C   UNL     1      25.874  24.797  30.675  0.00  0.00    +0.000 A 
ATOM     17  C   UNL     1      26.328  23.651  30.074  0.00  0.00    +0.000 A 
ATOM     18  N   UNL     1      26.028  22.373  30.609  0.00  0.00    +0.000 NA
ENDBRANCH  11  12
ENDBRANCH   7  11
TORSDOF 3
ENDMDL
MODEL 7
REMARK VINA RESULT:      -5.4     32.473     34.871
REMARK  Name = 
REMARK  3 active torsions:
REMARK  status: ('A' for Active; 'I' for Inactive)
REMARK    1  A    between atoms: C_6  and  C_7
REMARK    2  A    between atoms: C_9  and  S_10
REMARK    3  A    between atoms: S_10  and  C_11
REMARK                            x       y       z     vdW  Elec       q    Type
REMARK                         _______ _______ _______ _____ _____    ______ ____
ROOT
ATOM      1  C   UNL     1      33.646  24.559  24.680  0.00  0.00    +0.000 C 
ATOM      2  C   UNL     1      32.267  24.049  25.005  0.00  0.00    +0.000 A 
ATOM      3  C   UNL     1      32.047  23.717  26.317  0.00  0.00    +0.000 A 
ATOM      4  C   UNL     1      30.769  23.241  26.631  0.00  0.00    +0.000 A 
ATOM      5  C   UNL     1      30.534  22.883  28.050  0.00  0.00    +0.000 C 
ATOM      6  C   UNL     1      29.812  23.128  25.643  0.00  0.00    +0.000 A 
ATOM      7  C   UNL     1      30.085  23.478  24.332  0.00  0.00    +0.000 A 
ATOM      8  N   UNL     1      31.322  23.931  24.061  0.00  0.00    +0.000 NA
ENDROOT
BRANCH   6   9
ATOM      9  C   UNL     1      28.519  22.637  26.016  0.00  0.00    +0.000 C 
ATOM     10  N   UNL     1      27.468  22.258  26.317  0.00  0.00    +0.000 NA
ENDBRANCH   6   9
BRANCH   7  11
ATOM     11  S   UNL     1      28.825  23.322  23.067  0.00  0.00    +0.000 S 
BRANCH  11  12
ATOM     12  C   UNL     1      28.293  24.961  22.580  0.00  0.00    +0.000 A 
ATOM     13  C   UNL     1      27.419  25.671  23.364  0.00  0.00    +0.000 A 
ATOM     14  C   UNL     1      26.969  26.946  23.040  0.00  0.00    +0.000 A 
ATOM     15  C   UNL     1      27.449  27.492  21.865  0.00  0.00    +0.000 A 
ATOM     16  C   UNL     1      28.331  26.804  21.053  0.00  0.00    +0.000 A 
ATOM     17  C   UNL     1      28.742  25.548  21.419  0.00  0.00    +0.000 A 
ATOM     18  N   UNL     1      29.646  24.807  20.616  0.00  0.00    +0.000 NA
ENDBRANCH  11  12
ENDBRANCH   7  11
TORSDOF 3
ENDMDL
MODEL 8
REMARK VINA RESULT:      -5.3     32.674     33.762
REMARK  Name = 
REMARK  3 active torsions:
REMARK  status: ('A' for Active; 'I' for Inactive)
REMARK    1  A    between atoms: C_6  and  C_7
REMARK    2  A    between atoms: C_9  and  S_10
REMARK    3  A    between atoms: S_10  and  C_11
REMARK                            x       y       z     vdW  Elec       q    Type
REMARK                         _______ _______ _______ _____ _____    ______ ____
ROOT
ATOM      1  C   UNL     1      30.275  22.692  29.165  0.00  0.00    +0.000 C 
ATOM      2  C   UNL     1      29.853  22.786  27.723  0.00  0.00    +0.000 A 
ATOM      3  C   UNL     1      30.870  22.828  26.805  0.00  0.00    +0.000 A 
ATOM      4  C   UNL     1      30.490  22.916  25.461  0.00  0.00    +0.000 A 
ATOM      5  C   UNL     1      31.591  22.962  24.470  0.00  0.00    +0.000 C 
ATOM      6  C   UNL     1      29.152  22.954  25.123  0.00  0.00    +0.000 A 
ATOM      7  C   UNL     1      28.163  22.908  26.090  0.00  0.00    +0.000 A 
ATOM      8  N   UNL     1      28.559  22.824  27.372  0.00  0.00    +0.000 NA
ENDROOT
BRANCH   6   9
ATOM      9  C   UNL     1      28.815  23.043  23.733  0.00  0.00    +0.000 C 
ATOM     10  N   UNL     1      28.524  23.117  22.616  0.00  0.00    +0.000 NA
ENDBRANCH   6   9
BRANCH   7  11
ATOM     11  S   UNL     1      26.433  22.959  25.624  0.00  0.00    +0.000 S 
BRANCH  11  12
ATOM     12  C   UNL     1      25.725  24.497  26.211  0.00  0.00    +0.000 A 
ATOM     13  C   UNL     1      25.183  24.577  27.469  0.00  0.00    +0.000 A 
ATOM     14  C   UNL     1      24.619  25.741  27.981  0.00  0.00    +0.000 A 
ATOM     15  C   UNL     1      24.625  26.848  27.154  0.00  0.00    +0.000 A 
ATOM     16  C   UNL     1      25.164  26.800  25.883  0.00  0.00    +0.000 A 
ATOM     17  C   UNL     1      25.707  25.627  25.426  0.00  0.00    +0.000 A 
ATOM     18  N   UNL     1      26.271  25.533  24.128  0.00  0.00    +0.000 NA
ENDBRANCH  11  12
ENDBRANCH   7  11
TORSDOF 3
ENDMDL
MODEL 9
REMARK VINA RESULT:      -5.2     32.431     33.934
REMARK  Name = 
REMARK  3 active torsions:
REMARK  status: ('A' for Active; 'I' for Inactive)
REMARK    1  A    between atoms: C_6  and  C_7
REMARK    2  A    between atoms: C_9  and  S_10
REMARK    3  A    between atoms: S_10  and  C_11
REMARK                            x       y       z     vdW  Elec       q    Type
REMARK                         _______ _______ _______ _____ _____    ______ ____
ROOT
ATOM      1  C   UNL     1      30.577  26.375  25.644  0.00  0.00    +0.000 C 
ATOM      2  C   UNL     1      29.556  25.688  24.776  0.00  0.00    +0.000 A 
ATOM      3  C   UNL     1      29.744  25.809  23.423  0.00  0.00    +0.000 A 
ATOM      4  C   UNL     1      28.799  25.175  22.607  0.00  0.00    +0.000 A 
ATOM      5  C   UNL     1      29.004  25.308  21.145  0.00  0.00    +0.000 C 
ATOM      6  C   UNL     1      27.754  24.477  23.175  0.00  0.00    +0.000 A 
ATOM      7  C   UNL     1      27.610  24.384  24.548  0.00  0.00    +0.000 A 
ATOM      8  N   UNL     1      28.532  25.004  25.306  0.00  0.00    +0.000 NA
ENDROOT
BRANCH   6   9
ATOM      9  C   UNL     1      26.815  23.845  22.296  0.00  0.00    +0.000 C 
ATOM     10  N   UNL     1      26.042  23.345  21.594  0.00  0.00    +0.000 NA
ENDBRANCH   6   9
BRANCH   7  11
ATOM     11  S   UNL     1      26.242  23.471  25.261  0.00  0.00    +0.000 S 
BRANCH  11  12
ATOM     12  C   UNL     1      26.217  23.761  27.029  0.00  0.00    +0.000 A 
ATOM     13  C   UNL     1      25.362  24.688  27.570  0.00  0.00    +0.000 A 
ATOM     14  C   UNL     1      25.295  24.957  28.932  0.00  0.00    +0.000 A 
ATOM     15  C   UNL     1      26.146  24.236  29.748  0.00  0.00    +0.000 A 
ATOM     16  C   UNL     1      27.018  23.295  29.236  0.00  0.00    +0.000 A 
ATOM     17  C   UNL     1      27.044  23.069  27.883  0.00  0.00    +0.000 A 
ATOM     18  N   UNL     1      27.923  22.113  27.315  0.00  0.00    +0.000 NA
ENDBRANCH  11  12
ENDBRANCH   7  11
TORSDOF 3
ENDMDL
MODEL 10
REMARK VINA RESULT:      -5.1     32.592     33.604
REMARK  Name = 
REMARK  3 active torsions:
REMARK  status: ('A' for Active; 'I' for Inactive)
REMARK    1  A    between atoms: C_6  and  C_7
REMARK    2  A    between atoms: C_9  and  S_10
REMARK    3  A    between atoms: S_10  and  C_11
REMARK                            x       y       z     vdW  Elec       q    Type
REMARK                         _______ _______ _______ _____ _____    ______ ____
ROOT
ATOM      1  C   UNL     1      25.469  25.262  29.971  0.00  0.00    +0.000 C 
ATOM      2  C   UNL     1      25.720  24.751  28.577  0.00  0.00    +0.000 A 
ATOM      3  C   UNL     1      25.011  25.366  27.578  0.00  0.00    +0.000 A 
ATOM      4  C   UNL     1      25.237  24.898  26.278  0.00  0.00    +0.000 A 
ATOM      5  C   UNL     1      24.469  25.565  25.200  0.00  0.00    +0.000 C 
ATOM      6  C   UNL     1      26.133  23.872  26.059  0.00  0.00    +0.000 A 
ATOM      7  C   UNL     1      26.825  23.284  27.104  0.00  0.00    +0.000 A 
ATOM      8  N   UNL     1      26.587  23.754  28.341  0.00  0.00    +0.000 NA
ENDROOT
BRANCH   6   9
ATOM      9  C   UNL     1      26.329  23.430  24.710  0.00  0.00    +0.000 C 
ATOM     10  N   UNL     1      26.479  23.090  23.614  0.00  0.00    +0.000 NA
ENDBRANCH   6   9
BRANCH   7  11
ATOM     11  S   UNL     1      27.983  21.953  26.793  0.00  0.00    +0.000 S 
BRANCH  11  12
ATOM     12  C   UNL     1      29.543  22.658  26.266  0.00  0.00    +0.000 A 
ATOM     13  C   UNL     1      29.874  22.699  24.935  0.00  0.00    +0.000 A 
ATOM     14  C   UNL     1      31.068  23.234  24.465  0.00  0.00    +0.000 A 
ATOM     15  C   UNL     1      31.937  23.739  25.413  0.00  0.00    +0.000 A 
ATOM     16  C   UNL     1      31.634  23.713  26.761  0.00  0.00    +0.000 A 
ATOM     17  C   UNL     1      30.442  23.174  27.172  0.00  0.00    +0.000 A 
ATOM     18  N   UNL     1      30.090  23.127  28.545  0.00  0.00    +0.000 NA
ENDBRANCH  11  12
ENDBRANCH   7  11
TORSDOF 3
ENDMDL
