MODEL 1
REMARK VINA RESULT:      -5.6      0.000      0.000
REMARK  Name = 
REMARK  3 active torsions:
REMARK  status: ('A' for Active; 'I' for Inactive)
REMARK    1  A    between atoms: C_2  and  O_5
REMARK    2  A    between atoms: O_5  and  C_6
REMARK    3  A    between atoms: C_10  and  C_11
REMARK                            x       y       z     vdW  Elec       q    Type
REMARK                         _______ _______ _______ _____ _____    ______ ____
ROOT
ATOM      1  C   UNL     1      28.591  22.687  25.597  0.00  0.00    +0.000 C 
ATOM      2  O   UNL     1      29.046  22.688  24.430  0.00  0.00    +0.000 OA
ATOM      3  N   UNL     1      29.347  22.570  26.787  0.00  0.00    +0.000 N 
ATOM      4  C   UNL     1      30.748  22.439  26.718  0.00  0.00    +0.000 C 
ATOM      5  C   UNL     1      31.252  23.022  28.146  0.00  0.00    +0.000 C 
ATOM      6  C   UNL     1      29.910  22.798  28.962  0.00  0.00    +0.000 A 
ATOM      7  C   UNL     1      29.766  22.841  30.328  0.00  0.00    +0.000 A 
ATOM      8  C   UNL     1      28.491  22.626  30.864  0.00  0.00    +0.000 A 
ATOM      9  C   UNL     1      27.438  22.383  30.040  0.00  0.00    +0.000 A 
ATOM     10  N   UNL     1      26.124  22.161  30.570  0.00  0.00    +0.000 NA
ATOM     11  C   UNL     1      27.653  22.353  28.671  0.00  0.00    +0.000 A 
ATOM     12  C   UNL     1      28.896  22.561  28.120  0.00  0.00    +0.000 A 
ENDROOT
BRANCH   5  13
ATOM     13  C   UNL     1      31.939  21.611  28.631  0.00  0.00    +0.000 C 
ATOM     14 CL   UNL     1      33.469  22.272  29.303  0.00  0.00    +0.000 Cl
ENDBRANCH   5  13
BRANCH   1  15
ATOM     15  O   UNL     1      27.187  22.818  25.661  0.00  0.00    +0.000 OA
BRANCH  15  17
ATOM     16  C   UNL     1      27.472  25.199  25.419  0.00  0.00    +0.000 C 
ATOM     17  C   UNL     1      26.536  24.021  25.456  0.00  0.00    +0.000 C 
ATOM     18  C   UNL     1      25.811  23.963  24.136  0.00  0.00    +0.000 C 
ATOM     19  C   UNL     1      25.476  24.165  26.535  0.00  0.00    +0.000 C 
ENDBRANCH  15  17
ENDBRANCH   1  15
TORSDOF 3
ENDMDL
MODEL 2
REMARK VINA RESULT:      -5.6      2.559      4.004
REMARK  Name = 
REMARK  3 active torsions:
REMARK  status: ('A' for Active; 'I' for Inactive)
REMARK    1  A    between atoms: C_2  and  O_5
REMARK    2  A    between atoms: O_5  and  C_6
REMARK    3  A    between atoms: C_10  and  C_11
REMARK                            x       y       z     vdW  Elec       q    Type
REMARK                         _______ _______ _______ _____ _____    ______ ____
ROOT
ATOM      1  C   UNL     1      27.484  22.754  26.338  0.00  0.00    +0.000 C 
ATOM      2  O   UNL     1      26.472  22.900  25.616  0.00  0.00    +0.000 OA
ATOM      3  N   UNL     1      27.540  22.931  27.741  0.00  0.00    +0.000 N 
ATOM      4  C   UNL     1      26.381  23.307  28.447  0.00  0.00    +0.000 C 
ATOM      5  C   UNL     1      26.649  22.738  29.943  0.00  0.00    +0.000 C 
ATOM      6  C   UNL     1      28.233  22.676  29.875  0.00  0.00    +0.000 A 
ATOM      7  C   UNL     1      29.092  22.529  30.937  0.00  0.00    +0.000 A 
ATOM      8  C   UNL     1      30.467  22.486  30.674  0.00  0.00    +0.000 A 
ATOM      9  C   UNL     1      30.917  22.590  29.395  0.00  0.00    +0.000 A 
ATOM     10  N   UNL     1      32.321  22.548  29.105  0.00  0.00    +0.000 NA
ATOM     11  C   UNL     1      29.996  22.737  28.371  0.00  0.00    +0.000 A 
ATOM     12  C   UNL     1      28.641  22.782  28.604  0.00  0.00    +0.000 A 
ENDROOT
BRANCH   5  13
ATOM     13  C   UNL     1      26.605  24.216  30.657  0.00  0.00    +0.000 C 
ATOM     14 CL   UNL     1      25.368  24.988  29.605  0.00  0.00    +0.000 Cl
ENDBRANCH   5  13
BRANCH   1  15
ATOM     15  O   UNL     1      28.643  22.376  25.627  0.00  0.00    +0.000 OA
BRANCH  15  17
ATOM     16  C   UNL     1      29.317  24.667  25.300  0.00  0.00    +0.000 C 
ATOM     17  C   UNL     1      29.334  23.247  24.804  0.00  0.00    +0.000 C 
ATOM     18  C   UNL     1      30.772  22.801  24.720  0.00  0.00    +0.000 C 
ATOM     19  C   UNL     1      28.753  23.122  23.405  0.00  0.00    +0.000 C 
ENDBRANCH  15  17
ENDBRANCH   1  15
TORSDOF 3
ENDMDL
MODEL 3
REMARK VINA RESULT:      -5.5      2.307      4.155
REMARK  Name = 
REMARK  3 active torsions:
REMARK  status: ('A' for Active; 'I' for Inactive)
REMARK    1  A    between atoms: C_2  and  O_5
REMARK    2  A    between atoms: O_5  and  C_6
REMARK    3  A    between atoms: C_10  and  C_11
REMARK                            x       y       z     vdW  Elec       q    Type
REMARK                         _______ _______ _______ _____ _____    ______ ____
ROOT
ATOM      1  C   UNL     1      26.718  22.992  24.661  0.00  0.00    +0.000 C 
ATOM      2  O   UNL     1      25.468  23.003  24.590  0.00  0.00    +0.000 OA
ATOM      3  N   UNL     1      27.487  23.002  25.849  0.00  0.00    +0.000 N 
ATOM      4  C   UNL     1      26.842  23.027  27.100  0.00  0.00    +0.000 C 
ATOM      5  C   UNL     1      27.929  22.349  28.098  0.00  0.00    +0.000 C 
ATOM      6  C   UNL     1      29.229  22.642  27.239  0.00  0.00    +0.000 A 
ATOM      7  C   UNL     1      30.531  22.555  27.670  0.00  0.00    +0.000 A 
ATOM      8  C   UNL     1      31.551  22.845  26.755  0.00  0.00    +0.000 A 
ATOM      9  C   UNL     1      31.240  23.202  25.481  0.00  0.00    +0.000 A 
ATOM     10  N   UNL     1      32.269  23.503  24.529  0.00  0.00    +0.000 NA
ATOM     11  C   UNL     1      29.906  23.271  25.112  0.00  0.00    +0.000 A 
ATOM     12  C   UNL     1      28.886  22.991  25.992  0.00  0.00    +0.000 A 
ENDROOT
BRANCH   5  13
ATOM     13  C   UNL     1      28.091  23.682  29.043  0.00  0.00    +0.000 C 
ATOM     14 CL   UNL     1      28.376  22.864  30.618  0.00  0.00    +0.000 Cl
ENDBRANCH   5  13
BRANCH   1  15
ATOM     15  O   UNL     1      27.360  22.966  23.404  0.00  0.00    +0.000 OA
BRANCH  15  17
ATOM     16  C   UNL     1      27.246  25.370  23.275  0.00  0.00    +0.000 C 
ATOM     17  C   UNL     1      27.387  24.057  22.554  0.00  0.00    +0.000 C 
ATOM     18  C   UNL     1      28.702  24.069  21.818  0.00  0.00    +0.000 C 
ATOM     19  C   UNL     1      26.301  23.858  21.510  0.00  0.00    +0.000 C 
ENDBRANCH  15  17
ENDBRANCH   1  15
TORSDOF 3
ENDMDL
MODEL 4
REMARK VINA RESULT:      -5.1      2.270      4.420
REMARK  Name = 
REMARK  3 active torsions:
REMARK  status: ('A' for Active; 'I' for Inactive)
REMARK    1  A    between atoms: C_2  and  O_5
REMARK    2  A    between atoms: O_5  and  C_6
REMARK    3  A    between atoms: C_10  and  C_11
REMARK                            x       y       z     vdW  Elec       q    Type
REMARK                         _______ _______ _______ _____ _____    ______ ____
ROOT
ATOM      1  C   UNL     1      26.269  23.744  27.540  0.00  0.00    +0.000 C 
ATOM      2  O   UNL     1      25.887  23.645  28.728  0.00  0.00    +0.000 OA
ATOM      3  N   UNL     1      27.557  23.423  27.048  0.00  0.00    +0.000 N 
ATOM      4  C   UNL     1      28.544  22.942  27.929  0.00  0.00    +0.000 C 
ATOM      5  C   UNL     1      29.524  22.080  26.964  0.00  0.00    +0.000 C 
ATOM      6  C   UNL     1      29.163  22.791  25.592  0.00  0.00    +0.000 A 
ATOM      7  C   UNL     1      29.864  22.700  24.414  0.00  0.00    +0.000 A 
ATOM      8  C   UNL     1      29.380  23.397  23.301  0.00  0.00    +0.000 A 
ATOM      9  C   UNL     1      28.246  24.139  23.405  0.00  0.00    +0.000 A 
ATOM     10  N   UNL     1      27.733  24.861  22.276  0.00  0.00    +0.000 NA
ATOM     11  C   UNL     1      27.588  24.189  24.623  0.00  0.00    +0.000 A 
ATOM     12  C   UNL     1      28.044  23.513  25.731  0.00  0.00    +0.000 A 
ENDROOT
BRANCH   5  13
ATOM     13  C   UNL     1      30.846  23.010  27.252  0.00  0.00    +0.000 C 
ATOM     14 CL   UNL     1      31.677  21.941  28.434  0.00  0.00    +0.000 Cl
ENDBRANCH   5  13
BRANCH   1  15
ATOM     15  O   UNL     1      25.276  24.227  26.660  0.00  0.00    +0.000 OA
BRANCH  15  17
ATOM     16  C   UNL     1      24.473  25.999  25.238  0.00  0.00    +0.000 C 
ATOM     17  C   UNL     1      24.901  25.557  26.611  0.00  0.00    +0.000 C 
ATOM     18  C   UNL     1      23.741  25.770  27.550  0.00  0.00    +0.000 C 
ATOM     19  C   UNL     1      26.057  26.385  27.145  0.00  0.00    +0.000 C 
ENDBRANCH  15  17
ENDBRANCH   1  15
TORSDOF 3
ENDMDL
MODEL 5
REMARK VINA RESULT:      -5.1      3.241      5.032
REMARK  Name = 
REMARK  3 active torsions:
REMARK  status: ('A' for Active; 'I' for Inactive)
REMARK    1  A    between atoms: C_2  and  O_5
REMARK    2  A    between atoms: O_5  and  C_6
REMARK    3  A    between atoms: C_10  and  C_11
REMARK                            x       y       z     vdW  Elec       q    Type
REMARK                         _______ _______ _______ _____ _____    ______ ____
ROOT
ATOM      1  C   UNL     1      27.272  25.995  24.156  0.00  0.00    +0.000 C 
ATOM      2  O   UNL     1      26.285  26.762  24.082  0.00  0.00    +0.000 OA
ATOM      3  N   UNL     1      27.540  25.079  25.201  0.00  0.00    +0.000 N 
ATOM      4  C   UNL     1      26.650  24.976  26.288  0.00  0.00    +0.000 C 
ATOM      5  C   UNL     1      26.890  23.464  26.829  0.00  0.00    +0.000 C 
ATOM      6  C   UNL     1      28.352  23.252  26.251  0.00  0.00    +0.000 A 
ATOM      7  C   UNL     1      29.233  22.257  26.600  0.00  0.00    +0.000 A 
ATOM      8  C   UNL     1      30.482  22.230  25.968  0.00  0.00    +0.000 A 
ATOM      9  C   UNL     1      30.795  23.172  25.039  0.00  0.00    +0.000 A 
ATOM     10  N   UNL     1      32.069  23.161  24.380  0.00  0.00    +0.000 NA
ATOM     11  C   UNL     1      29.860  24.147  24.734  0.00  0.00    +0.000 A 
ATOM     12  C   UNL     1      28.626  24.196  25.341  0.00  0.00    +0.000 A 
ENDROOT
BRANCH   5  13
ATOM     13  C   UNL     1      27.402  23.935  28.316  0.00  0.00    +0.000 C 
ATOM     14 CL   UNL     1      26.437  22.789  29.310  0.00  0.00    +0.000 Cl
ENDBRANCH   5  13
BRANCH   1  15
ATOM     15  O   UNL     1      28.161  26.102  23.065  0.00  0.00    +0.000 OA
BRANCH  15  17
ATOM     16  C   UNL     1      26.982  24.341  21.918  0.00  0.00    +0.000 C 
ATOM     17  C   UNL     1      27.911  25.522  21.835  0.00  0.00    +0.000 C 
ATOM     18  C   UNL     1      27.276  26.549  20.932  0.00  0.00    +0.000 C 
ATOM     19  C   UNL     1      29.249  25.156  21.214  0.00  0.00    +0.000 C 
ENDBRANCH  15  17
ENDBRANCH   1  15
TORSDOF 3
ENDMDL
MODEL 6
REMARK VINA RESULT:      -5.1     17.658     19.783
REMARK  Name = 
REMARK  3 active torsions:
REMARK  status: ('A' for Active; 'I' for Inactive)
REMARK    1  A    between atoms: C_2  and  O_5
REMARK    2  A    between atoms: O_5  and  C_6
REMARK    3  A    between atoms: C_10  and  C_11
REMARK                            x       y       z     vdW  Elec       q    Type
REMARK                         _______ _______ _______ _____ _____    ______ ____
ROOT
ATOM      1  C   UNL     1      21.646   9.063  39.005  0.00  0.00    +0.000 C 
ATOM      2  O   UNL     1      22.479   8.752  39.887  0.00  0.00    +0.000 OA
ATOM      3  N   UNL     1      20.250   9.205  39.190  0.00  0.00    +0.000 N 
ATOM      4  C   UNL     1      19.686   8.987  40.461  0.00  0.00    +0.000 C 
ATOM      5  C   UNL     1      18.329   9.878  40.429  0.00  0.00    +0.000 C 
ATOM      6  C   UNL     1      18.140   9.934  38.855  0.00  0.00    +0.000 A 
ATOM      7  C   UNL     1      17.007  10.322  38.181  0.00  0.00    +0.000 A 
ATOM      8  C   UNL     1      17.036  10.314  36.781  0.00  0.00    +0.000 A 
ATOM      9  C   UNL     1      18.164   9.931  36.127  0.00  0.00    +0.000 A 
ATOM     10  N   UNL     1      18.214   9.917  34.694  0.00  0.00    +0.000 NA
ATOM     11  C   UNL     1      19.272   9.552  36.869  0.00  0.00    +0.000 A 
ATOM     12  C   UNL     1      19.267   9.550  38.244  0.00  0.00    +0.000 A 
ENDROOT
BRANCH   5  13
ATOM     13  C   UNL     1      17.324   8.596  40.638  0.00  0.00    +0.000 C 
ATOM     14 CL   UNL     1      16.010   9.428  41.541  0.00  0.00    +0.000 Cl
ENDBRANCH   5  13
BRANCH   1  15
ATOM     15  O   UNL     1      22.216   9.280  37.733  0.00  0.00    +0.000 OA
BRANCH  15  17
ATOM     16  C   UNL     1      22.345  11.679  37.934  0.00  0.00    +0.000 C 
ATOM     17  C   UNL     1      22.963  10.404  37.428  0.00  0.00    +0.000 C 
ATOM     18  C   UNL     1      24.327  10.267  38.056  0.00  0.00    +0.000 C 
ATOM     19  C   UNL     1      23.173  10.427  35.923  0.00  0.00    +0.000 C 
ENDBRANCH  15  17
ENDBRANCH   1  15
TORSDOF 3
ENDMDL
MODEL 7
REMARK VINA RESULT:      -5.0     18.904     21.069
REMARK  Name = 
REMARK  3 active torsions:
REMARK  status: ('A' for Active; 'I' for Inactive)
REMARK    1  A    between atoms: C_2  and  O_5
REMARK    2  A    between atoms: O_5  and  C_6
REMARK    3  A    between atoms: C_10  and  C_11
REMARK                            x       y       z     vdW  Elec       q    Type
REMARK                         _______ _______ _______ _____ _____    ______ ____
ROOT
ATOM      1  C   UNL     1      18.496   8.622  40.267  0.00  0.00    +0.000 C 
ATOM      2  O   UNL     1      19.422   8.071  40.905  0.00  0.00    +0.000 OA
ATOM      3  N   UNL     1      18.621   9.752  39.424  0.00  0.00    +0.000 N 
ATOM      4  C   UNL     1      19.880  10.357  39.246  0.00  0.00    +0.000 C 
ATOM      5  C   UNL     1      19.754  11.069  37.792  0.00  0.00    +0.000 C 
ATOM      6  C   UNL     1      18.173  11.192  37.744  0.00  0.00    +0.000 A 
ATOM      7  C   UNL     1      17.439  11.965  36.876  0.00  0.00    +0.000 A 
ATOM      8  C   UNL     1      16.043  11.934  36.983  0.00  0.00    +0.000 A 
ATOM      9  C   UNL     1      15.451  11.155  37.927  0.00  0.00    +0.000 A 
ATOM     10  N   UNL     1      14.023  11.109  38.052  0.00  0.00    +0.000 NA
ATOM     11  C   UNL     1      16.251  10.401  38.771  0.00  0.00    +0.000 A 
ATOM     12  C   UNL     1      17.624  10.415  38.686  0.00  0.00    +0.000 A 
ENDROOT
BRANCH   5  13
ATOM     13  C   UNL     1      19.988  12.589  38.368  0.00  0.00    +0.000 C 
ATOM     14 CL   UNL     1      21.786  12.595  38.392  0.00  0.00    +0.000 Cl
ENDBRANCH   5  13
BRANCH   1  15
ATOM     15  O   UNL     1      17.236   8.013  40.449  0.00  0.00    +0.000 OA
BRANCH  15  17
ATOM     16  C   UNL     1      16.763   9.404  42.360  0.00  0.00    +0.000 C 
ATOM     17  C   UNL     1      16.518   8.113  41.627  0.00  0.00    +0.000 C 
ATOM     18  C   UNL     1      15.046   8.032  41.309  0.00  0.00    +0.000 C 
ATOM     19  C   UNL     1      16.851   6.899  42.478  0.00  0.00    +0.000 C 
ENDBRANCH  15  17
ENDBRANCH   1  15
TORSDOF 3
ENDMDL
MODEL 8
REMARK VINA RESULT:      -5.0      3.906      6.709
REMARK  Name = 
REMARK  3 active torsions:
REMARK  status: ('A' for Active; 'I' for Inactive)
REMARK    1  A    between atoms: C_2  and  O_5
REMARK    2  A    between atoms: O_5  and  C_6
REMARK    3  A    between atoms: C_10  and  C_11
REMARK                            x       y       z     vdW  Elec       q    Type
REMARK                         _______ _______ _______ _____ _____    ______ ____
ROOT
ATOM      1  C   UNL     1      26.031  24.116  29.974  0.00  0.00    +0.000 C 
ATOM      2  O   UNL     1      25.984  24.214  31.222  0.00  0.00    +0.000 OA
ATOM      3  N   UNL     1      25.320  24.916  29.048  0.00  0.00    +0.000 N 
ATOM      4  C   UNL     1      24.463  25.932  29.512  0.00  0.00    +0.000 C 
ATOM      5  C   UNL     1      24.424  26.986  28.277  0.00  0.00    +0.000 C 
ATOM      6  C   UNL     1      24.830  25.981  27.118  0.00  0.00    +0.000 A 
ATOM      7  C   UNL     1      24.710  26.200  25.767  0.00  0.00    +0.000 A 
ATOM      8  C   UNL     1      25.135  25.191  24.894  0.00  0.00    +0.000 A 
ATOM      9  C   UNL     1      25.649  24.035  25.391  0.00  0.00    +0.000 A 
ATOM     10  N   UNL     1      26.091  22.990  24.513  0.00  0.00    +0.000 NA
ATOM     11  C   UNL     1      25.741  23.879  26.765  0.00  0.00    +0.000 A 
ATOM     12  C   UNL     1      25.330  24.855  27.642  0.00  0.00    +0.000 A 
ENDROOT
BRANCH   5  13
ATOM     13  C   UNL     1      22.808  26.833  28.025  0.00  0.00    +0.000 C 
ATOM     14 CL   UNL     1      22.274  26.742  29.739  0.00  0.00    +0.000 Cl
ENDBRANCH   5  13
BRANCH   1  15
ATOM     15  O   UNL     1      26.891  23.096  29.514  0.00  0.00    +0.000 OA
BRANCH  15  17
ATOM     16  C   UNL     1      28.686  24.701  29.405  0.00  0.00    +0.000 C 
ATOM     17  C   UNL     1      28.261  23.258  29.419  0.00  0.00    +0.000 C 
ATOM     18  C   UNL     1      28.913  22.593  30.605  0.00  0.00    +0.000 C 
ATOM     19  C   UNL     1      28.732  22.510  28.182  0.00  0.00    +0.000 C 
ENDBRANCH  15  17
ENDBRANCH   1  15
TORSDOF 3
ENDMDL
MODEL 9
REMARK VINA RESULT:      -5.0     15.820     18.636
REMARK  Name = 
REMARK  3 active torsions:
REMARK  status: ('A' for Active; 'I' for Inactive)
REMARK    1  A    between atoms: C_2  and  O_5
REMARK    2  A    between atoms: O_5  and  C_6
REMARK    3  A    between atoms: C_10  and  C_11
REMARK                            x       y       z     vdW  Elec       q    Type
REMARK                         _______ _______ _______ _____ _____    ______ ____
ROOT
ATOM      1  C   UNL     1      13.309  22.556  20.512  0.00  0.00    +0.000 C 
ATOM      2  O   UNL     1      14.249  21.932  19.968  0.00  0.00    +0.000 OA
ATOM      3  N   UNL     1      12.036  22.030  20.839  0.00  0.00    +0.000 N 
ATOM      4  C   UNL     1      11.739  20.684  20.548  0.00  0.00    +0.000 C 
ATOM      5  C   UNL     1      10.589  20.310  21.631  0.00  0.00    +0.000 C 
ATOM      6  C   UNL     1      10.068  21.781  21.916  0.00  0.00    +0.000 A 
ATOM      7  C   UNL     1       8.900  22.126  22.553  0.00  0.00    +0.000 A 
ATOM      8  C   UNL     1       8.616  23.487  22.720  0.00  0.00    +0.000 A 
ATOM      9  C   UNL     1       9.485  24.425  22.257  0.00  0.00    +0.000 A 
ATOM     10  N   UNL     1       9.212  25.823  22.419  0.00  0.00    +0.000 NA
ATOM     11  C   UNL     1      10.644  24.008  21.623  0.00  0.00    +0.000 A 
ATOM     12  C   UNL     1      10.945  22.677  21.447  0.00  0.00    +0.000 A 
ENDROOT
BRANCH   5  13
ATOM     13  C   UNL     1       9.444  19.981  20.500  0.00  0.00    +0.000 C 
ATOM     14 CL   UNL     1      10.339  18.733  19.565  0.00  0.00    +0.000 Cl
ENDBRANCH   5  13
BRANCH   1  15
ATOM     15  O   UNL     1      13.612  23.904  20.801  0.00  0.00    +0.000 OA
BRANCH  15  17
ATOM     16  C   UNL     1      15.260  23.135  22.382  0.00  0.00    +0.000 C 
ATOM     17  C   UNL     1      14.451  24.279  21.835  0.00  0.00    +0.000 C 
ATOM     18  C   UNL     1      15.410  25.325  21.328  0.00  0.00    +0.000 C 
ATOM     19  C   UNL     1      13.600  24.943  22.905  0.00  0.00    +0.000 C 
ENDBRANCH  15  17
ENDBRANCH   1  15
TORSDOF 3
ENDMDL
MODEL 10
REMARK VINA RESULT:      -5.0     17.546     20.000
REMARK  Name = 
REMARK  3 active torsions:
REMARK  status: ('A' for Active; 'I' for Inactive)
REMARK    1  A    between atoms: C_2  and  O_5
REMARK    2  A    between atoms: O_5  and  C_6
REMARK    3  A    between atoms: C_10  and  C_11
REMARK                            x       y       z     vdW  Elec       q    Type
REMARK                         _______ _______ _______ _____ _____    ______ ____
ROOT
ATOM      1  C   UNL     1       9.861  24.400  21.529  0.00  0.00    +0.000 C 
ATOM      2  O   UNL     1      10.203  25.512  21.993  0.00  0.00    +0.000 OA
ATOM      3  N   UNL     1      10.731  23.341  21.176  0.00  0.00    +0.000 N 
ATOM      4  C   UNL     1      12.121  23.491  21.339  0.00  0.00    +0.000 C 
ATOM      5  C   UNL     1      12.648  21.966  21.512  0.00  0.00    +0.000 C 
ATOM      6  C   UNL     1      11.441  21.232  20.790  0.00  0.00    +0.000 A 
ATOM      7  C   UNL     1      11.415  19.927  20.361  0.00  0.00    +0.000 A 
ATOM      8  C   UNL     1      10.247  19.456  19.750  0.00  0.00    +0.000 A 
ATOM      9  C   UNL     1       9.179  20.282  19.595  0.00  0.00    +0.000 A 
ATOM     10  N   UNL     1       7.974  19.818  18.973  0.00  0.00    +0.000 NA
ATOM     11  C   UNL     1       9.272  21.588  20.050  0.00  0.00    +0.000 A 
ATOM     12  C   UNL     1      10.409  22.075  20.653  0.00  0.00    +0.000 A 
ENDROOT
BRANCH   5  13
ATOM     13  C   UNL     1      13.600  22.002  20.174  0.00  0.00    +0.000 C 
ATOM     14 CL   UNL     1      15.180  22.309  20.974  0.00  0.00    +0.000 Cl
ENDBRANCH   5  13
BRANCH   1  15
ATOM     15  O   UNL     1       8.467  24.253  21.368  0.00  0.00    +0.000 OA
BRANCH  15  17
ATOM     16  C   UNL     1       8.215  23.142  23.492  0.00  0.00    +0.000 C 
ATOM     17  C   UNL     1       7.610  24.018  22.429  0.00  0.00    +0.000 C 
ATOM     18  C   UNL     1       7.248  25.337  23.063  0.00  0.00    +0.000 C 
ATOM     19  C   UNL     1       6.326  23.433  21.866  0.00  0.00    +0.000 C 
ENDBRANCH  15  17
ENDBRANCH   1  15
TORSDOF 3
ENDMDL
