MODEL 1
REMARK VINA RESULT:      -6.1      0.000      0.000
REMARK  Name = 
REMARK  5 active torsions:
REMARK  status: ('A' for Active; 'I' for Inactive)
REMARK    1  A    between atoms: N_2  and  C_4
REMARK    2  A    between atoms: C_7  and  N_8
REMARK    3  A    between atoms: N_8  and  C_9
REMARK    4  A    between atoms: C_9  and  N_11
REMARK    5  A    between atoms: C_12  and  C_14
REMARK                            x       y       z     vdW  Elec       q    Type
REMARK                         _______ _______ _______ _____ _____    ______ ____
ROOT
ATOM      1  N   UNL     1      28.667  22.843  23.188  0.00  0.00    +0.000 NA
ENDROOT
BRANCH   1   5
ATOM      2  C   UNL     1      31.144  23.072  26.619  0.00  0.00    +0.000 A 
ATOM      3  C   UNL     1      29.853  22.580  26.653  0.00  0.00    +0.000 A 
ATOM      4  C   UNL     1      29.050  22.506  25.536  0.00  0.00    +0.000 A 
ATOM      5  C   UNL     1      29.522  22.934  24.318  0.00  0.00    +0.000 A 
ATOM      6  C   UNL     1      30.799  23.426  24.257  0.00  0.00    +0.000 A 
ATOM      7  C   UNL     1      31.589  23.492  25.386  0.00  0.00    +0.000 A 
BRANCH   2   9
ATOM      8  C   UNL     1      32.884  24.237  27.994  0.00  0.00    +0.000 C 
ATOM      9  N   UNL     1      31.961  23.140  27.788  0.00  0.00    +0.000 N 
ATOM     10  C   UNL     1      31.832  22.068  28.761  0.00  0.00    +0.000 C 
ENDBRANCH   2   9
ENDBRANCH   1   5
BRANCH   1  11
ATOM     11  C   UNL     1      27.696  23.829  22.878  0.00  0.00    +0.000 C 
ATOM     12  S   UNL     1      26.147  23.499  23.297  0.00  0.00    +0.000 S 
BRANCH  11  13
ATOM     13  N   UNL     1      28.053  25.061  22.226  0.00  0.00    +0.000 NA
ATOM     14  C   UNL     1      29.053  25.116  21.226  0.00  0.00    +0.000 C 
ATOM     15  O   UNL     1      29.619  24.035  20.931  0.00  0.00    +0.000 OA
BRANCH  14  16
ATOM     16  C   UNL     1      29.437  26.345  20.549  0.00  0.00    +0.000 A 
ATOM     17  C   UNL     1      29.175  27.649  20.918  0.00  0.00    +0.000 A 
ATOM     18  C   UNL     1      29.737  28.490  19.967  0.00  0.00    +0.000 A 
ATOM     19  C   UNL     1      30.322  27.628  19.054  0.00  0.00    +0.000 A 
ATOM     20  O   UNL     1      30.118  26.395  19.440  0.00  0.00    +0.000 OA
ENDBRANCH  14  16
ENDBRANCH  11  13
ENDBRANCH   1  11
TORSDOF 5
ENDMDL
MODEL 2
REMARK VINA RESULT:      -5.9      5.578      8.201
REMARK  Name = 
REMARK  5 active torsions:
REMARK  status: ('A' for Active; 'I' for Inactive)
REMARK    1  A    between atoms: N_2  and  C_4
REMARK    2  A    between atoms: C_7  and  N_8
REMARK    3  A    between atoms: N_8  and  C_9
REMARK    4  A    between atoms: C_9  and  N_11
REMARK    5  A    between atoms: C_12  and  C_14
REMARK                            x       y       z     vdW  Elec       q    Type
REMARK                         _______ _______ _______ _____ _____    ______ ____
ROOT
ATOM      1  N   UNL     1      28.022  22.154  27.932  0.00  0.00    +0.000 NA
ENDROOT
BRANCH   1   5
ATOM      2  C   UNL     1      27.925  23.378  23.876  0.00  0.00    +0.000 A 
ATOM      3  C   UNL     1      29.094  23.058  24.539  0.00  0.00    +0.000 A 
ATOM      4  C   UNL     1      29.124  22.660  25.857  0.00  0.00    +0.000 A 
ATOM      5  C   UNL     1      27.955  22.568  26.575  0.00  0.00    +0.000 A 
ATOM      6  C   UNL     1      26.781  22.880  25.942  0.00  0.00    +0.000 A 
ATOM      7  C   UNL     1      26.771  23.276  24.621  0.00  0.00    +0.000 A 
BRANCH   2   9
ATOM      8  C   UNL     1      29.128  24.218  21.845  0.00  0.00    +0.000 C 
ATOM      9  N   UNL     1      27.914  23.789  22.508  0.00  0.00    +0.000 N 
ATOM     10  C   UNL     1      26.640  23.761  21.810  0.00  0.00    +0.000 C 
ENDBRANCH   2   9
ENDBRANCH   1   5
BRANCH   1  11
ATOM     11  C   UNL     1      28.274  23.054  28.999  0.00  0.00    +0.000 C 
ATOM     12  S   UNL     1      29.624  22.789  29.888  0.00  0.00    +0.000 S 
BRANCH  11  13
ATOM     13  N   UNL     1      27.387  24.149  29.287  0.00  0.00    +0.000 NA
ATOM     14  C   UNL     1      26.255  23.995  30.124  0.00  0.00    +0.000 C 
ATOM     15  O   UNL     1      26.059  22.853  30.606  0.00  0.00    +0.000 OA
BRANCH  14  16
ATOM     16  C   UNL     1      25.339  25.081  30.433  0.00  0.00    +0.000 A 
ATOM     17  C   UNL     1      24.679  25.927  29.563  0.00  0.00    +0.000 A 
ATOM     18  C   UNL     1      23.913  26.809  30.313  0.00  0.00    +0.000 A 
ATOM     19  C   UNL     1      24.156  26.439  31.625  0.00  0.00    +0.000 A 
ATOM     20  O   UNL     1      24.990  25.432  31.638  0.00  0.00    +0.000 OA
ENDBRANCH  14  16
ENDBRANCH  11  13
ENDBRANCH   1  11
TORSDOF 5
ENDMDL
MODEL 3
REMARK VINA RESULT:      -5.8     25.986     29.137
REMARK  Name = 
REMARK  5 active torsions:
REMARK  status: ('A' for Active; 'I' for Inactive)
REMARK    1  A    between atoms: N_2  and  C_4
REMARK    2  A    between atoms: C_7  and  N_8
REMARK    3  A    between atoms: N_8  and  C_9
REMARK    4  A    between atoms: C_9  and  N_11
REMARK    5  A    between atoms: C_12  and  C_14
REMARK                            x       y       z     vdW  Elec       q    Type
REMARK                         _______ _______ _______ _____ _____    ______ ____
ROOT
ATOM      1  N   UNL     1      34.230  -2.707  34.464  0.00  0.00    +0.000 NA
ENDROOT
BRANCH   1   5
ATOM      2  C   UNL     1      33.807   1.509  34.405  0.00  0.00    +0.000 A 
ATOM      3  C   UNL     1      33.847   0.772  35.573  0.00  0.00    +0.000 A 
ATOM      4  C   UNL     1      33.984  -0.599  35.590  0.00  0.00    +0.000 A 
ATOM      5  C   UNL     1      34.089  -1.295  34.410  0.00  0.00    +0.000 A 
ATOM      6  C   UNL     1      34.052  -0.588  33.237  0.00  0.00    +0.000 A 
ATOM      7  C   UNL     1      33.915   0.784  33.239  0.00  0.00    +0.000 A 
BRANCH   2   9
ATOM      8  C   UNL     1      33.947   3.709  35.595  0.00  0.00    +0.000 C 
ATOM      9  N   UNL     1      33.664   2.930  34.407  0.00  0.00    +0.000 N 
ATOM     10  C   UNL     1      33.223   3.561  33.175  0.00  0.00    +0.000 C 
ENDBRANCH   2   9
ENDBRANCH   1   5
BRANCH   1  11
ATOM     11  C   UNL     1      33.226  -3.599  34.007  0.00  0.00    +0.000 C 
ATOM     12  S   UNL     1      32.046  -3.994  35.073  0.00  0.00    +0.000 S 
BRANCH  11  13
ATOM     13  N   UNL     1      33.241  -4.130  32.671  0.00  0.00    +0.000 NA
ATOM     14  C   UNL     1      34.146  -5.146  32.280  0.00  0.00    +0.000 C 
ATOM     15  O   UNL     1      34.940  -5.565  33.157  0.00  0.00    +0.000 OA
BRANCH  14  16
ATOM     16  C   UNL     1      34.187  -5.704  30.937  0.00  0.00    +0.000 A 
ATOM     17  C   UNL     1      33.585  -5.230  29.789  0.00  0.00    +0.000 A 
ATOM     18  C   UNL     1      33.902  -6.091  28.746  0.00  0.00    +0.000 A 
ATOM     19  C   UNL     1      34.698  -7.059  29.335  0.00  0.00    +0.000 A 
ATOM     20  O   UNL     1      34.831  -6.787  30.607  0.00  0.00    +0.000 OA
ENDBRANCH  14  16
ENDBRANCH  11  13
ENDBRANCH   1  11
TORSDOF 5
ENDMDL
MODEL 4
REMARK VINA RESULT:      -5.7     23.937     26.429
REMARK  Name = 
REMARK  5 active torsions:
REMARK  status: ('A' for Active; 'I' for Inactive)
REMARK    1  A    between atoms: N_2  and  C_4
REMARK    2  A    between atoms: C_7  and  N_8
REMARK    3  A    between atoms: N_8  and  C_9
REMARK    4  A    between atoms: C_9  and  N_11
REMARK    5  A    between atoms: C_12  and  C_14
REMARK                            x       y       z     vdW  Elec       q    Type
REMARK                         _______ _______ _______ _____ _____    ______ ____
ROOT
ATOM      1  N   UNL     1      16.543   7.375  41.162  0.00  0.00    +0.000 NA
ENDROOT
BRANCH   1   5
ATOM      2  C   UNL     1      19.483   4.325  41.065  0.00  0.00    +0.000 A 
ATOM      3  C   UNL     1      18.521   4.413  42.052  0.00  0.00    +0.000 A 
ATOM      4  C   UNL     1      17.566   5.405  42.082  0.00  0.00    +0.000 A 
ATOM      5  C   UNL     1      17.541   6.368  41.101  0.00  0.00    +0.000 A 
ATOM      6  C   UNL     1      18.484   6.303  40.109  0.00  0.00    +0.000 A 
ATOM      7  C   UNL     1      19.432   5.302  40.095  0.00  0.00    +0.000 A 
BRANCH   2   9
ATOM      8  C   UNL     1      20.239   2.051  40.333  0.00  0.00    +0.000 C 
ATOM      9  N   UNL     1      20.465   3.289  41.051  0.00  0.00    +0.000 N 
ATOM     10  C   UNL     1      21.698   3.523  41.785  0.00  0.00    +0.000 C 
ENDBRANCH   2   9
ENDBRANCH   1   5
BRANCH   1  11
ATOM     11  C   UNL     1      16.847   8.761  41.150  0.00  0.00    +0.000 C 
ATOM     12  S   UNL     1      17.753   9.330  42.390  0.00  0.00    +0.000 S 
BRANCH  11  13
ATOM     13  N   UNL     1      16.382   9.625  40.098  0.00  0.00    +0.000 NA
ATOM     14  C   UNL     1      17.173   9.912  38.960  0.00  0.00    +0.000 C 
ATOM     15  O   UNL     1      18.306   9.375  38.909  0.00  0.00    +0.000 OA
BRANCH  14  16
ATOM     16  C   UNL     1      16.732  10.782  37.881  0.00  0.00    +0.000 A 
ATOM     17  C   UNL     1      15.463  11.265  37.628  0.00  0.00    +0.000 A 
ATOM     18  C   UNL     1      15.520  12.057  36.489  0.00  0.00    +0.000 A 
ATOM     19  C   UNL     1      16.851  12.010  36.108  0.00  0.00    +0.000 A 
ATOM     20  O   UNL     1      17.510  11.256  36.951  0.00  0.00    +0.000 OA
ENDBRANCH  14  16
ENDBRANCH  11  13
ENDBRANCH   1  11
TORSDOF 5
ENDMDL
MODEL 5
REMARK VINA RESULT:      -5.7      1.966      2.581
REMARK  Name = 
REMARK  5 active torsions:
REMARK  status: ('A' for Active; 'I' for Inactive)
REMARK    1  A    between atoms: N_2  and  C_4
REMARK    2  A    between atoms: C_7  and  N_8
REMARK    3  A    between atoms: N_8  and  C_9
REMARK    4  A    between atoms: C_9  and  N_11
REMARK    5  A    between atoms: C_12  and  C_14
REMARK                            x       y       z     vdW  Elec       q    Type
REMARK                         _______ _______ _______ _____ _____    ______ ____
ROOT
ATOM      1  N   UNL     1      28.483  23.137  24.118  0.00  0.00    +0.000 NA
ENDROOT
BRANCH   1   5
ATOM      2  C   UNL     1      28.107  22.631  28.309  0.00  0.00    +0.000 A 
ATOM      3  C   UNL     1      29.268  22.347  27.617  0.00  0.00    +0.000 A 
ATOM      4  C   UNL     1      29.389  22.513  26.255  0.00  0.00    +0.000 A 
ATOM      5  C   UNL     1      28.324  22.978  25.521  0.00  0.00    +0.000 A 
ATOM      6  C   UNL     1      27.160  23.267  26.183  0.00  0.00    +0.000 A 
ATOM      7  C   UNL     1      27.058  23.096  27.547  0.00  0.00    +0.000 A 
BRANCH   2   9
ATOM      8  C   UNL     1      29.145  22.647  30.589  0.00  0.00    +0.000 C 
ATOM      9  N   UNL     1      28.001  22.453  29.722  0.00  0.00    +0.000 N 
ATOM     10  C   UNL     1      26.704  22.068  30.254  0.00  0.00    +0.000 C 
ENDBRANCH   2   9
ENDBRANCH   1   5
BRANCH   1  11
ATOM     11  C   UNL     1      27.575  23.881  23.321  0.00  0.00    +0.000 C 
ATOM     12  S   UNL     1      26.035  23.328  23.244  0.00  0.00    +0.000 S 
BRANCH  11  13
ATOM     13  N   UNL     1      27.986  25.063  22.614  0.00  0.00    +0.000 NA
ATOM     14  C   UNL     1      28.879  25.007  21.517  0.00  0.00    +0.000 C 
ATOM     15  O   UNL     1      29.298  23.871  21.186  0.00  0.00    +0.000 OA
BRANCH  14  16
ATOM     16  C   UNL     1      29.314  26.185  20.782  0.00  0.00    +0.000 A 
ATOM     17  C   UNL     1      29.143  27.515  21.107  0.00  0.00    +0.000 A 
ATOM     18  C   UNL     1      29.724  28.285  20.108  0.00  0.00    +0.000 A 
ATOM     19  C   UNL     1      30.227  27.355  19.213  0.00  0.00    +0.000 A 
ATOM     20  O   UNL     1      29.962  26.152  19.652  0.00  0.00    +0.000 OA
ENDBRANCH  14  16
ENDBRANCH  11  13
ENDBRANCH   1  11
TORSDOF 5
ENDMDL
MODEL 6
REMARK VINA RESULT:      -5.6      2.927      4.461
REMARK  Name = 
REMARK  5 active torsions:
REMARK  status: ('A' for Active; 'I' for Inactive)
REMARK    1  A    between atoms: N_2  and  C_4
REMARK    2  A    between atoms: C_7  and  N_8
REMARK    3  A    between atoms: N_8  and  C_9
REMARK    4  A    between atoms: C_9  and  N_11
REMARK    5  A    between atoms: C_12  and  C_14
REMARK                            x       y       z     vdW  Elec       q    Type
REMARK                         _______ _______ _______ _____ _____    ______ ____
ROOT
ATOM      1  N   UNL     1      30.298  23.588  23.500  0.00  0.00    +0.000 NA
ENDROOT
BRANCH   1   5
ATOM      2  C   UNL     1      31.141  22.661  27.548  0.00  0.00    +0.000 A 
ATOM      3  C   UNL     1      30.202  21.980  26.799  0.00  0.00    +0.000 A 
ATOM      4  C   UNL     1      29.929  22.282  25.483  0.00  0.00    +0.000 A 
ATOM      5  C   UNL     1      30.604  23.303  24.857  0.00  0.00    +0.000 A 
ATOM      6  C   UNL     1      31.541  23.995  25.577  0.00  0.00    +0.000 A 
ATOM      7  C   UNL     1      31.801  23.678  26.894  0.00  0.00    +0.000 A 
BRANCH   2   9
ATOM      8  C   UNL     1      30.511  22.740  29.972  0.00  0.00    +0.000 C 
ATOM      9  N   UNL     1      31.410  22.332  28.911  0.00  0.00    +0.000 N 
ATOM     10  C   UNL     1      32.618  21.575  29.193  0.00  0.00    +0.000 C 
ENDBRANCH   2   9
ENDBRANCH   1   5
BRANCH   1  11
ATOM     11  C   UNL     1      29.259  24.474  23.115  0.00  0.00    +0.000 C 
ATOM     12  S   UNL     1      29.218  24.927  21.541  0.00  0.00    +0.000 S 
BRANCH  11  13
ATOM     13  N   UNL     1      28.289  24.954  24.062  0.00  0.00    +0.000 NA
ATOM     14  C   UNL     1      27.081  24.259  24.312  0.00  0.00    +0.000 C 
ATOM     15  O   UNL     1      26.893  23.200  23.667  0.00  0.00    +0.000 OA
BRANCH  14  16
ATOM     16  C   UNL     1      26.079  24.719  25.262  0.00  0.00    +0.000 A 
ATOM     17  C   UNL     1      25.762  24.196  26.500  0.00  0.00    +0.000 A 
ATOM     18  C   UNL     1      24.741  24.963  27.046  0.00  0.00    +0.000 A 
ATOM     19  C   UNL     1      24.493  25.930  26.087  0.00  0.00    +0.000 A 
ATOM     20  O   UNL     1      25.297  25.742  25.072  0.00  0.00    +0.000 OA
ENDBRANCH  14  16
ENDBRANCH  11  13
ENDBRANCH   1  11
TORSDOF 5
ENDMDL
MODEL 7
REMARK VINA RESULT:      -5.6     22.192     24.553
REMARK  Name = 
REMARK  5 active torsions:
REMARK  status: ('A' for Active; 'I' for Inactive)
REMARK    1  A    between atoms: N_2  and  C_4
REMARK    2  A    between atoms: C_7  and  N_8
REMARK    3  A    between atoms: N_8  and  C_9
REMARK    4  A    between atoms: C_9  and  N_11
REMARK    5  A    between atoms: C_12  and  C_14
REMARK                            x       y       z     vdW  Elec       q    Type
REMARK                         _______ _______ _______ _____ _____    ______ ____
ROOT
ATOM      1  N   UNL     1      18.503   8.765  38.624  0.00  0.00    +0.000 NA
ENDROOT
BRANCH   1   5
ATOM      2  C   UNL     1      16.997   9.438  42.528  0.00  0.00    +0.000 A 
ATOM      3  C   UNL     1      18.295   9.035  42.280  0.00  0.00    +0.000 A 
ATOM      4  C   UNL     1      18.783   8.817  41.011  0.00  0.00    +0.000 A 
ATOM      5  C   UNL     1      17.967   8.998  39.918  0.00  0.00    +0.000 A 
ATOM      6  C   UNL     1      16.675   9.398  40.136  0.00  0.00    +0.000 A 
ATOM      7  C   UNL     1      16.205   9.612  41.415  0.00  0.00    +0.000 A 
BRANCH   2   9
ATOM      8  C   UNL     1      16.406  10.996  44.399  0.00  0.00    +0.000 C 
ATOM      9  N   UNL     1      16.509   9.659  43.852  0.00  0.00    +0.000 N 
ATOM     10  C   UNL     1      16.122   8.491  44.627  0.00  0.00    +0.000 C 
ENDBRANCH   2   9
ENDBRANCH   1   5
BRANCH   1  11
ATOM     11  C   UNL     1      18.947   9.812  37.776  0.00  0.00    +0.000 C 
ATOM     12  S   UNL     1      20.536  10.204  37.855  0.00  0.00    +0.000 S 
BRANCH  11  13
ATOM     13  N   UNL     1      18.047  10.497  36.889  0.00  0.00    +0.000 NA
ATOM     14  C   UNL     1      17.718   9.981  35.612  0.00  0.00    +0.000 C 
ATOM     15  O   UNL     1      18.251   8.893  35.286  0.00  0.00    +0.000 OA
BRANCH  14  16
ATOM     16  C   UNL     1      16.811  10.651  34.692  0.00  0.00    +0.000 A 
ATOM     17  C   UNL     1      16.796  10.606  33.312  0.00  0.00    +0.000 A 
ATOM     18  C   UNL     1      15.751  11.404  32.863  0.00  0.00    +0.000 A 
ATOM     19  C   UNL     1      15.179  11.898  34.024  0.00  0.00    +0.000 A 
ATOM     20  O   UNL     1      15.833  11.429  35.056  0.00  0.00    +0.000 OA
ENDBRANCH  14  16
ENDBRANCH  11  13
ENDBRANCH   1  11
TORSDOF 5
ENDMDL
MODEL 8
REMARK VINA RESULT:      -5.6      4.738      9.293
REMARK  Name = 
REMARK  5 active torsions:
REMARK  status: ('A' for Active; 'I' for Inactive)
REMARK    1  A    between atoms: N_2  and  C_4
REMARK    2  A    between atoms: C_7  and  N_8
REMARK    3  A    between atoms: N_8  and  C_9
REMARK    4  A    between atoms: C_9  and  N_11
REMARK    5  A    between atoms: C_12  and  C_14
REMARK                            x       y       z     vdW  Elec       q    Type
REMARK                         _______ _______ _______ _____ _____    ______ ____
ROOT
ATOM      1  N   UNL     1      31.082  21.815  27.486  0.00  0.00    +0.000 NA
ENDROOT
BRANCH   1   5
ATOM      2  C   UNL     1      28.465  23.051  24.390  0.00  0.00    +0.000 A 
ATOM      3  C   UNL     1      29.819  22.856  24.199  0.00  0.00    +0.000 A 
ATOM      4  C   UNL     1      30.668  22.453  25.206  0.00  0.00    +0.000 A 
ATOM      5  C   UNL     1      30.179  22.229  26.471  0.00  0.00    +0.000 A 
ATOM      6  C   UNL     1      28.839  22.415  26.688  0.00  0.00    +0.000 A 
ATOM      7  C   UNL     1      28.004  22.818  25.667  0.00  0.00    +0.000 A 
BRANCH   2   9
ATOM      8  C   UNL     1      26.168  23.555  23.527  0.00  0.00    +0.000 C 
ATOM      9  N   UNL     1      27.600  23.469  23.333  0.00  0.00    +0.000 N 
ATOM     10  C   UNL     1      28.213  23.801  22.058  0.00  0.00    +0.000 C 
ENDBRANCH   2   9
ENDBRANCH   1   5
BRANCH   1  11
ATOM     11  C   UNL     1      31.586  22.699  28.474  0.00  0.00    +0.000 C 
ATOM     12  S   UNL     1      32.603  23.877  27.963  0.00  0.00    +0.000 S 
BRANCH  11  13
ATOM     13  N   UNL     1      31.222  22.567  29.859  0.00  0.00    +0.000 NA
ATOM     14  C   UNL     1      31.979  21.781  30.761  0.00  0.00    +0.000 C 
ATOM     15  O   UNL     1      32.988  21.199  30.295  0.00  0.00    +0.000 OA
BRANCH  14  16
ATOM     16  C   UNL     1      31.636  21.628  32.166  0.00  0.00    +0.000 A 
ATOM     17  C   UNL     1      30.399  21.387  32.730  0.00  0.00    +0.000 A 
ATOM     18  C   UNL     1      30.556  21.319  34.108  0.00  0.00    +0.000 A 
ATOM     19  C   UNL     1      31.911  21.526  34.306  0.00  0.00    +0.000 A 
ATOM     20  O   UNL     1      32.490  21.701  33.146  0.00  0.00    +0.000 OA
ENDBRANCH  14  16
ENDBRANCH  11  13
ENDBRANCH   1  11
TORSDOF 5
ENDMDL
MODEL 9
REMARK VINA RESULT:      -5.5     19.212     22.824
REMARK  Name = 
REMARK  5 active torsions:
REMARK  status: ('A' for Active; 'I' for Inactive)
REMARK    1  A    between atoms: N_2  and  C_4
REMARK    2  A    between atoms: C_7  and  N_8
REMARK    3  A    between atoms: N_8  and  C_9
REMARK    4  A    between atoms: C_9  and  N_11
REMARK    5  A    between atoms: C_12  and  C_14
REMARK                            x       y       z     vdW  Elec       q    Type
REMARK                         _______ _______ _______ _____ _____    ______ ____
ROOT
ATOM      1  N   UNL     1      33.790   5.989  36.073  0.00  0.00    +0.000 NA
ENDROOT
BRANCH   1   5
ATOM      2  C   UNL     1      33.602   2.204  34.174  0.00  0.00    +0.000 A 
ATOM      3  C   UNL     1      33.908   2.362  35.512  0.00  0.00    +0.000 A 
ATOM      4  C   UNL     1      33.968   3.593  36.128  0.00  0.00    +0.000 A 
ATOM      5  C   UNL     1      33.720   4.736  35.407  0.00  0.00    +0.000 A 
ATOM      6  C   UNL     1      33.414   4.608  34.077  0.00  0.00    +0.000 A 
ATOM      7  C   UNL     1      33.357   3.367  33.479  0.00  0.00    +0.000 A 
BRANCH   2   9
ATOM      8  C   UNL     1      34.316   0.627  32.363  0.00  0.00    +0.000 C 
ATOM      9  N   UNL     1      33.545   0.920  33.554  0.00  0.00    +0.000 N 
ATOM     10  C   UNL     1      32.683  -0.081  34.163  0.00  0.00    +0.000 C 
ENDBRANCH   2   9
ENDBRANCH   1   5
BRANCH   1  11
ATOM     11  C   UNL     1      34.816   6.936  35.822  0.00  0.00    +0.000 C 
ATOM     12  S   UNL     1      36.323   6.346  35.571  0.00  0.00    +0.000 S 
BRANCH  11  13
ATOM     13  N   UNL     1      34.546   8.348  35.790  0.00  0.00    +0.000 NA
ATOM     14  C   UNL     1      34.293   9.089  36.969  0.00  0.00    +0.000 C 
ATOM     15  O   UNL     1      34.315   8.455  38.052  0.00  0.00    +0.000 OA
BRANCH  14  16
ATOM     16  C   UNL     1      34.016  10.518  36.969  0.00  0.00    +0.000 A 
ATOM     17  C   UNL     1      34.339  11.458  36.011  0.00  0.00    +0.000 A 
ATOM     18  C   UNL     1      33.874  12.693  36.442  0.00  0.00    +0.000 A 
ATOM     19  C   UNL     1      33.281  12.425  37.665  0.00  0.00    +0.000 A 
ATOM     20  O   UNL     1      33.392  11.148  37.923  0.00  0.00    +0.000 OA
ENDBRANCH  14  16
ENDBRANCH  11  13
ENDBRANCH   1  11
TORSDOF 5
ENDMDL
MODEL 10
REMARK VINA RESULT:      -5.5     32.072     33.191
REMARK  Name = 
REMARK  5 active torsions:
REMARK  status: ('A' for Active; 'I' for Inactive)
REMARK    1  A    between atoms: N_2  and  C_4
REMARK    2  A    between atoms: C_7  and  N_8
REMARK    3  A    between atoms: N_8  and  C_9
REMARK    4  A    between atoms: C_9  and  N_11
REMARK    5  A    between atoms: C_12  and  C_14
REMARK                            x       y       z     vdW  Elec       q    Type
REMARK                         _______ _______ _______ _____ _____    ______ ____
ROOT
ATOM      1  N   UNL     1      23.618  -8.644  24.513  0.00  0.00    +0.000 NA
ENDROOT
BRANCH   1   5
ATOM      2  C   UNL     1      19.999  -6.867  25.819  0.00  0.00    +0.000 A 
ATOM      3  C   UNL     1      21.035  -6.144  25.260  0.00  0.00    +0.000 A 
ATOM      4  C   UNL     1      22.211  -6.723  24.836  0.00  0.00    +0.000 A 
ATOM      5  C   UNL     1      22.394  -8.080  24.960  0.00  0.00    +0.000 A 
ATOM      6  C   UNL     1      21.382  -8.821  25.511  0.00  0.00    +0.000 A 
ATOM      7  C   UNL     1      20.212  -8.223  25.930  0.00  0.00    +0.000 A 
BRANCH   2   9
ATOM      8  C   UNL     1      18.755  -4.853  26.639  0.00  0.00    +0.000 C 
ATOM      9  N   UNL     1      18.788  -6.249  26.253  0.00  0.00    +0.000 N 
ATOM     10  C   UNL     1      17.591  -7.073  26.292  0.00  0.00    +0.000 C 
ENDBRANCH   2   9
ENDBRANCH   1   5
BRANCH   1  11
ATOM     11  C   UNL     1      24.131  -8.430  23.207  0.00  0.00    +0.000 C 
ATOM     12  S   UNL     1      23.144  -8.804  21.955  0.00  0.00    +0.000 S 
BRANCH  11  13
ATOM     13  N   UNL     1      25.455  -7.910  22.993  0.00  0.00    +0.000 NA
ATOM     14  C   UNL     1      26.555  -8.757  22.718  0.00  0.00    +0.000 C 
ATOM     15  O   UNL     1      26.324  -9.989  22.669  0.00  0.00    +0.000 OA
BRANCH  14  16
ATOM     16  C   UNL     1      27.906  -8.262  22.497  0.00  0.00    +0.000 A 
ATOM     17  C   UNL     1      28.306  -7.097  21.873  0.00  0.00    +0.000 A 
ATOM     18  C   UNL     1      29.693  -7.046  21.897  0.00  0.00    +0.000 A 
ATOM     19  C   UNL     1      30.064  -8.210  22.550  0.00  0.00    +0.000 A 
ATOM     20  O   UNL     1      28.988  -8.879  22.876  0.00  0.00    +0.000 OA
ENDBRANCH  14  16
ENDBRANCH  11  13
ENDBRANCH   1  11
TORSDOF 5
ENDMDL
