MODEL 1
REMARK VINA RESULT:      -5.9      0.000      0.000
REMARK  Name = 
REMARK  4 active torsions:
REMARK  status: ('A' for Active; 'I' for Inactive)
REMARK    1  A    between atoms: N_7  and  C_8
REMARK    2  A    between atoms: C_8  and  C_9
REMARK    3  A    between atoms: N_11  and  C_12
REMARK    4  A    between atoms: C_12  and  C_13
REMARK                            x       y       z     vdW  Elec       q    Type
REMARK                         _______ _______ _______ _____ _____    ______ ____
ROOT
ATOM      1  C   UNL     1      16.877  10.164  34.301  0.00  0.00    +0.000 C 
ATOM      2  O   UNL     1      17.869  10.246  33.550  0.00  0.00    +0.000 OA
ATOM      3  N   UNL     1      15.630  10.472  33.789  0.00  0.00    +0.000 NA
ENDROOT
BRANCH   1   4
ATOM      4  C   UNL     1      17.166   9.733  35.700  0.00  0.00    +0.000 C 
BRANCH   4  11
ATOM      5  C   UNL     1      17.770  12.650  37.167  0.00  0.00    +0.000 C 
ATOM      6  C   UNL     1      17.763  11.170  37.431  0.00  0.00    +0.000 C 
ATOM      7  C   UNL     1      16.324  10.757  37.759  0.00  0.00    +0.000 C 
ATOM      8  C   UNL     1      18.680  10.774  38.535  0.00  0.00    +0.000 C 
ATOM      9  O   UNL     1      19.493   9.765  38.097  0.00  0.00    +0.000 OA
ATOM     10  C   UNL     1      19.346   9.634  36.729  0.00  0.00    +0.000 C 
ATOM     11  N   UNL     1      18.245  10.417  36.301  0.00  0.00    +0.000 NA
ENDBRANCH   4  11
ENDBRANCH   1   4
BRANCH   3  12
ATOM     12  C   UNL     1      15.087  10.873  32.582  0.00  0.00    +0.000 C 
BRANCH  12  13
ATOM     13  C   UNL     1      15.039  12.498  32.419  0.00  0.00    +0.000 C 
ATOM     14  C   UNL     1      16.156  12.490  31.145  0.00  0.00    +0.000 C 
ATOM     15  C   UNL     1      15.515  13.537  30.295  0.00  0.00    +0.000 C 
ATOM     16  C   UNL     1      14.126  13.790  30.875  0.00  0.00    +0.000 C 
ATOM     17  O   UNL     1      13.871  12.527  31.453  0.00  0.00    +0.000 OA
ENDBRANCH  12  13
ENDBRANCH   3  12
TORSDOF 4
ENDMDL
MODEL 2
REMARK VINA RESULT:      -5.6      1.766      6.770
REMARK  Name = 
REMARK  4 active torsions:
REMARK  status: ('A' for Active; 'I' for Inactive)
REMARK    1  A    between atoms: N_7  and  C_8
REMARK    2  A    between atoms: C_8  and  C_9
REMARK    3  A    between atoms: N_11  and  C_12
REMARK    4  A    between atoms: C_12  and  C_13
REMARK                            x       y       z     vdW  Elec       q    Type
REMARK                         _______ _______ _______ _____ _____    ______ ____
ROOT
ATOM      1  C   UNL     1      15.185  11.753  34.960  0.00  0.00    +0.000 C 
ATOM      2  O   UNL     1      14.182  12.129  35.598  0.00  0.00    +0.000 OA
ATOM      3  N   UNL     1      16.360  11.516  35.648  0.00  0.00    +0.000 NA
ENDROOT
BRANCH   1   4
ATOM      4  C   UNL     1      14.987  11.602  33.488  0.00  0.00    +0.000 C 
BRANCH   4  11
ATOM      5  C   UNL     1      16.361  12.877  30.748  0.00  0.00    +0.000 C 
ATOM      6  C   UNL     1      15.029  12.548  31.362  0.00  0.00    +0.000 C 
ATOM      7  C   UNL     1      14.748  11.063  31.111  0.00  0.00    +0.000 C 
ATOM      8  C   UNL     1      13.921  13.384  30.824  0.00  0.00    +0.000 C 
ATOM      9  O   UNL     1      13.235  13.941  31.869  0.00  0.00    +0.000 OA
ATOM     10  C   UNL     1      13.950  13.732  33.033  0.00  0.00    +0.000 C 
ATOM     11  N   UNL     1      15.005  12.820  32.777  0.00  0.00    +0.000 NA
ENDBRANCH   4  11
ENDBRANCH   1   4
BRANCH   3  12
ATOM     12  C   UNL     1      16.811  11.562  36.955  0.00  0.00    +0.000 C 
BRANCH  12  13
ATOM     13  C   UNL     1      17.584  10.194  37.405  0.00  0.00    +0.000 C 
ATOM     14  C   UNL     1      18.241   9.954  35.862  0.00  0.00    +0.000 C 
ATOM     15  C   UNL     1      19.597   9.491  36.280  0.00  0.00    +0.000 C 
ATOM     16  C   UNL     1      19.722   9.773  37.775  0.00  0.00    +0.000 C 
ATOM     17  O   UNL     1      18.849  10.878  37.886  0.00  0.00    +0.000 OA
ENDBRANCH  12  13
ENDBRANCH   3  12
TORSDOF 4
ENDMDL
MODEL 3
REMARK VINA RESULT:      -5.4     27.524     30.172
REMARK  Name = 
REMARK  4 active torsions:
REMARK  status: ('A' for Active; 'I' for Inactive)
REMARK    1  A    between atoms: N_7  and  C_8
REMARK    2  A    between atoms: C_8  and  C_9
REMARK    3  A    between atoms: N_11  and  C_12
REMARK    4  A    between atoms: C_12  and  C_13
REMARK                            x       y       z     vdW  Elec       q    Type
REMARK                         _______ _______ _______ _____ _____    ______ ____
ROOT
ATOM      1  C   UNL     1      31.248  22.354   9.564  0.00  0.00    +0.000 C 
ATOM      2  O   UNL     1      30.751  23.141   8.733  0.00  0.00    +0.000 OA
ATOM      3  N   UNL     1      30.450  21.877  10.587  0.00  0.00    +0.000 NA
ENDROOT
BRANCH   1   4
ATOM      4  C   UNL     1      32.684  22.014   9.345  0.00  0.00    +0.000 C 
BRANCH   4  11
ATOM      5  C   UNL     1      33.611  20.507  12.155  0.00  0.00    +0.000 C 
ATOM      6  C   UNL     1      34.159  21.039  10.859  0.00  0.00    +0.000 C 
ATOM      7  C   UNL     1      33.953  19.966   9.785  0.00  0.00    +0.000 C 
ATOM      8  C   UNL     1      35.596  21.414  10.949  0.00  0.00    +0.000 C 
ATOM      9  O   UNL     1      35.753  22.690  10.480  0.00  0.00    +0.000 OA
ATOM     10  C   UNL     1      34.506  23.262  10.317  0.00  0.00    +0.000 C 
ATOM     11  N   UNL     1      33.511  22.263  10.461  0.00  0.00    +0.000 NA
ENDBRANCH   4  11
ENDBRANCH   1   4
BRANCH   3  12
ATOM     12  C   UNL     1      29.140  22.008  11.012  0.00  0.00    +0.000 C 
BRANCH  12  13
ATOM     13  C   UNL     1      28.895  23.358  11.900  0.00  0.00    +0.000 C 
ATOM     14  C   UNL     1      27.224  23.099  11.993  0.00  0.00    +0.000 C 
ATOM     15  C   UNL     1      27.025  23.515  13.413  0.00  0.00    +0.000 C 
ATOM     16  C   UNL     1      28.411  23.640  14.038  0.00  0.00    +0.000 C 
ATOM     17  O   UNL     1      29.117  22.705  13.249  0.00  0.00    +0.000 OA
ENDBRANCH  12  13
ENDBRANCH   3  12
TORSDOF 4
ENDMDL
MODEL 4
REMARK VINA RESULT:      -5.3     17.989     19.546
REMARK  Name = 
REMARK  4 active torsions:
REMARK  status: ('A' for Active; 'I' for Inactive)
REMARK    1  A    between atoms: N_7  and  C_8
REMARK    2  A    between atoms: C_8  and  C_9
REMARK    3  A    between atoms: N_11  and  C_12
REMARK    4  A    between atoms: C_12  and  C_13
REMARK                            x       y       z     vdW  Elec       q    Type
REMARK                         _______ _______ _______ _____ _____    ______ ____
ROOT
ATOM      1  C   UNL     1      33.303   4.851  34.279  0.00  0.00    +0.000 C 
ATOM      2  O   UNL     1      32.314   5.222  33.616  0.00  0.00    +0.000 OA
ATOM      3  N   UNL     1      33.919   3.660  33.943  0.00  0.00    +0.000 NA
ENDROOT
BRANCH   1   4
ATOM      4  C   UNL     1      33.712   5.765  35.386  0.00  0.00    +0.000 C 
BRANCH   4  11
ATOM      5  C   UNL     1      36.962   5.305  35.888  0.00  0.00    +0.000 C 
ATOM      6  C   UNL     1      35.754   5.971  36.485  0.00  0.00    +0.000 C 
ATOM      7  C   UNL     1      35.563   7.319  35.781  0.00  0.00    +0.000 C 
ATOM      8  C   UNL     1      35.867   6.166  37.956  0.00  0.00    +0.000 C 
ATOM      9  O   UNL     1      34.749   5.659  38.560  0.00  0.00    +0.000 OA
ATOM     10  C   UNL     1      34.029   4.935  37.630  0.00  0.00    +0.000 C 
ATOM     11  N   UNL     1      34.565   5.168  36.338  0.00  0.00    +0.000 NA
ENDBRANCH   4  11
ENDBRANCH   1   4
BRANCH   3  12
ATOM     12  C   UNL     1      33.770   2.658  33.001  0.00  0.00    +0.000 C 
BRANCH  12  13
ATOM     13  C   UNL     1      33.017   1.336  33.598  0.00  0.00    +0.000 C 
ATOM     14  C   UNL     1      34.105   0.273  32.854  0.00  0.00    +0.000 C 
ATOM     15  C   UNL     1      34.234  -0.712  33.968  0.00  0.00    +0.000 C 
ATOM     16  C   UNL     1      33.588  -0.079  35.197  0.00  0.00    +0.000 C 
ATOM     17  O   UNL     1      33.791   1.287  34.900  0.00  0.00    +0.000 OA
ENDBRANCH  12  13
ENDBRANCH   3  12
TORSDOF 4
ENDMDL
MODEL 5
REMARK VINA RESULT:      -5.0     20.667     23.321
REMARK  Name = 
REMARK  4 active torsions:
REMARK  status: ('A' for Active; 'I' for Inactive)
REMARK    1  A    between atoms: N_7  and  C_8
REMARK    2  A    between atoms: C_8  and  C_9
REMARK    3  A    between atoms: N_11  and  C_12
REMARK    4  A    between atoms: C_12  and  C_13
REMARK                            x       y       z     vdW  Elec       q    Type
REMARK                         _______ _______ _______ _____ _____    ______ ____
ROOT
ATOM      1  C   UNL     1      33.262  -4.147  33.061  0.00  0.00    +0.000 C 
ATOM      2  O   UNL     1      32.459  -4.908  33.636  0.00  0.00    +0.000 OA
ATOM      3  N   UNL     1      33.376  -2.843  33.507  0.00  0.00    +0.000 NA
ENDROOT
BRANCH   1   4
ATOM      4  C   UNL     1      34.024  -4.754  31.931  0.00  0.00    +0.000 C 
BRANCH   4  11
ATOM      5  C   UNL     1      32.444  -7.257  30.426  0.00  0.00    +0.000 C 
ATOM      6  C   UNL     1      33.807  -6.645  30.590  0.00  0.00    +0.000 C 
ATOM      7  C   UNL     1      33.926  -5.485  29.595  0.00  0.00    +0.000 C 
ATOM      8  C   UNL     1      34.910  -7.622  30.382  0.00  0.00    +0.000 C 
ATOM      9  O   UNL     1      35.763  -7.566  31.450  0.00  0.00    +0.000 OA
ATOM     10  C   UNL     1      35.179  -6.808  32.447  0.00  0.00    +0.000 C 
ATOM     11  N   UNL     1      34.026  -6.165  31.932  0.00  0.00    +0.000 NA
ENDBRANCH   4  11
ENDBRANCH   1   4
BRANCH   3  12
ATOM     12  C   UNL     1      32.828  -2.045  34.495  0.00  0.00    +0.000 C 
BRANCH  12  13
ATOM     13  C   UNL     1      33.575  -0.597  34.624  0.00  0.00    +0.000 C 
ATOM     14  C   UNL     1      34.236  -0.701  33.068  0.00  0.00    +0.000 C 
ATOM     15  C   UNL     1      34.049   0.724  32.664  0.00  0.00    +0.000 C 
ATOM     16  C   UNL     1      33.138   1.365  33.706  0.00  0.00    +0.000 C 
ATOM     17  O   UNL     1      32.408   0.229  34.121  0.00  0.00    +0.000 OA
ENDBRANCH  12  13
ENDBRANCH   3  12
TORSDOF 4
ENDMDL
MODEL 6
REMARK VINA RESULT:      -5.0     28.316     30.332
REMARK  Name = 
REMARK  4 active torsions:
REMARK  status: ('A' for Active; 'I' for Inactive)
REMARK    1  A    between atoms: N_7  and  C_8
REMARK    2  A    between atoms: C_8  and  C_9
REMARK    3  A    between atoms: N_11  and  C_12
REMARK    4  A    between atoms: C_12  and  C_13
REMARK                            x       y       z     vdW  Elec       q    Type
REMARK                         _______ _______ _______ _____ _____    ______ ____
ROOT
ATOM      1  C   UNL     1      33.621  20.276  10.516  0.00  0.00    +0.000 C 
ATOM      2  O   UNL     1      33.761  20.993   9.506  0.00  0.00    +0.000 OA
ATOM      3  N   UNL     1      34.733  19.642  11.039  0.00  0.00    +0.000 NA
ENDROOT
BRANCH   1   4
ATOM      4  C   UNL     1      32.231  20.187  11.051  0.00  0.00    +0.000 C 
BRANCH   4  11
ATOM      5  C   UNL     1      30.583  22.794   9.819  0.00  0.00    +0.000 C 
ATOM      6  C   UNL     1      30.460  21.680  10.822  0.00  0.00    +0.000 C 
ATOM      7  C   UNL     1      29.997  20.424  10.077  0.00  0.00    +0.000 C 
ATOM      8  C   UNL     1      29.521  22.002  11.931  0.00  0.00    +0.000 C 
ATOM      9  O   UNL     1      30.148  21.775  13.126  0.00  0.00    +0.000 OA
ATOM     10  C   UNL     1      31.493  21.565  12.890  0.00  0.00    +0.000 C 
ATOM     11  N   UNL     1      31.707  21.420  11.496  0.00  0.00    +0.000 NA
ENDBRANCH   4  11
ENDBRANCH   1   4
BRANCH   3  12
ATOM     12  C   UNL     1      36.086  19.554  10.769  0.00  0.00    +0.000 C 
BRANCH  12  13
ATOM     13  C   UNL     1      36.945  18.960  12.027  0.00  0.00    +0.000 C 
ATOM     14  C   UNL     1      37.068  20.477  12.772  0.00  0.00    +0.000 C 
ATOM     15  C   UNL     1      36.872  20.035  14.184  0.00  0.00    +0.000 C 
ATOM     16  C   UNL     1      36.391  18.587  14.134  0.00  0.00    +0.000 C 
ATOM     17  O   UNL     1      35.746  18.591  12.877  0.00  0.00    +0.000 OA
ENDBRANCH  12  13
ENDBRANCH   3  12
TORSDOF 4
ENDMDL
MODEL 7
REMARK VINA RESULT:      -5.0     21.162     23.268
REMARK  Name = 
REMARK  4 active torsions:
REMARK  status: ('A' for Active; 'I' for Inactive)
REMARK    1  A    between atoms: N_7  and  C_8
REMARK    2  A    between atoms: C_8  and  C_9
REMARK    3  A    between atoms: N_11  and  C_12
REMARK    4  A    between atoms: C_12  and  C_13
REMARK                            x       y       z     vdW  Elec       q    Type
REMARK                         _______ _______ _______ _____ _____    ______ ____
ROOT
ATOM      1  C   UNL     1      29.056  25.628  20.931  0.00  0.00    +0.000 C 
ATOM      2  O   UNL     1      29.766  24.631  20.693  0.00  0.00    +0.000 OA
ATOM      3  N   UNL     1      29.316  26.805  20.254  0.00  0.00    +0.000 NA
ENDROOT
BRANCH   1   4
ATOM      4  C   UNL     1      27.981  25.421  21.945  0.00  0.00    +0.000 C 
BRANCH   4  11
ATOM      5  C   UNL     1      28.976  22.983  23.967  0.00  0.00    +0.000 C 
ATOM      6  C   UNL     1      27.774  23.815  23.617  0.00  0.00    +0.000 C 
ATOM      7  C   UNL     1      27.881  25.142  24.376  0.00  0.00    +0.000 C 
ATOM      8  C   UNL     1      26.487  23.138  23.936  0.00  0.00    +0.000 C 
ATOM      9  O   UNL     1      25.685  23.161  22.828  0.00  0.00    +0.000 OA
ATOM     10  C   UNL     1      26.432  23.582  21.745  0.00  0.00    +0.000 C 
ATOM     11  N   UNL     1      27.684  24.066  22.200  0.00  0.00    +0.000 NA
ENDBRANCH   4  11
ENDBRANCH   1   4
BRANCH   3  12
ATOM     12  C   UNL     1      30.201  27.262  19.294  0.00  0.00    +0.000 C 
BRANCH  12  13
ATOM     13  C   UNL     1      29.668  28.608  18.534  0.00  0.00    +0.000 C 
ATOM     14  C   UNL     1      29.562  27.824  17.036  0.00  0.00    +0.000 C 
ATOM     15  C   UNL     1      28.288  28.444  16.564  0.00  0.00    +0.000 C 
ATOM     16  C   UNL     1      27.674  29.162  17.761  0.00  0.00    +0.000 C 
ATOM     17  O   UNL     1      28.197  28.375  18.811  0.00  0.00    +0.000 OA
ENDBRANCH  12  13
ENDBRANCH   3  12
TORSDOF 4
ENDMDL
MODEL 8
REMARK VINA RESULT:      -5.0      2.934      6.967
REMARK  Name = 
REMARK  4 active torsions:
REMARK  status: ('A' for Active; 'I' for Inactive)
REMARK    1  A    between atoms: N_7  and  C_8
REMARK    2  A    between atoms: C_8  and  C_9
REMARK    3  A    between atoms: N_11  and  C_12
REMARK    4  A    between atoms: C_12  and  C_13
REMARK                            x       y       z     vdW  Elec       q    Type
REMARK                         _______ _______ _______ _____ _____    ______ ____
ROOT
ATOM      1  C   UNL     1      19.114  10.096  37.562  0.00  0.00    +0.000 C 
ATOM      2  O   UNL     1      18.937   9.116  38.313  0.00  0.00    +0.000 OA
ATOM      3  N   UNL     1      20.335  10.235  36.929  0.00  0.00    +0.000 NA
ENDROOT
BRANCH   1   4
ATOM      4  C   UNL     1      17.952  11.024  37.435  0.00  0.00    +0.000 C 
BRANCH   4  11
ATOM      5  C   UNL     1      14.641  11.273  37.406  0.00  0.00    +0.000 C 
ATOM      6  C   UNL     1      15.854  11.497  36.545  0.00  0.00    +0.000 C 
ATOM      7  C   UNL     1      16.435  12.870  36.899  0.00  0.00    +0.000 C 
ATOM      8  C   UNL     1      15.554  11.420  35.090  0.00  0.00    +0.000 C 
ATOM      9  O   UNL     1      16.428  10.549  34.500  0.00  0.00    +0.000 OA
ATOM     10  C   UNL     1      17.116   9.870  35.488  0.00  0.00    +0.000 C 
ATOM     11  N   UNL     1      16.852  10.476  36.742  0.00  0.00    +0.000 NA
ENDBRANCH   4  11
ENDBRANCH   1   4
BRANCH   3  12
ATOM     12  C   UNL     1      21.537   9.554  36.856  0.00  0.00    +0.000 C 
BRANCH  12  13
ATOM     13  C   UNL     1      22.823  10.501  37.206  0.00  0.00    +0.000 C 
ATOM     14  C   UNL     1      23.804   9.175  37.592  0.00  0.00    +0.000 C 
ATOM     15  C   UNL     1      25.070   9.662  36.969  0.00  0.00    +0.000 C 
ATOM     16  C   UNL     1      24.708  10.874  36.115  0.00  0.00    +0.000 C 
ATOM     17  O   UNL     1      23.371  10.552  35.794  0.00  0.00    +0.000 OA
ENDBRANCH  12  13
ENDBRANCH   3  12
TORSDOF 4
ENDMDL
MODEL 9
REMARK VINA RESULT:      -4.8     28.136     31.014
REMARK  Name = 
REMARK  4 active torsions:
REMARK  status: ('A' for Active; 'I' for Inactive)
REMARK    1  A    between atoms: N_7  and  C_8
REMARK    2  A    between atoms: C_8  and  C_9
REMARK    3  A    between atoms: N_11  and  C_12
REMARK    4  A    between atoms: C_12  and  C_13
REMARK                            x       y       z     vdW  Elec       q    Type
REMARK                         _______ _______ _______ _____ _____    ______ ____
ROOT
ATOM      1  C   UNL     1      32.812  21.511  10.227  0.00  0.00    +0.000 C 
ATOM      2  O   UNL     1      33.821  21.624  10.952  0.00  0.00    +0.000 OA
ATOM      3  N   UNL     1      31.564  21.521  10.821  0.00  0.00    +0.000 NA
ENDROOT
BRANCH   1   4
ATOM      4  C   UNL     1      33.086  21.375   8.767  0.00  0.00    +0.000 C 
BRANCH   4  11
ATOM      5  C   UNL     1      30.401  19.993   7.384  0.00  0.00    +0.000 C 
ATOM      6  C   UNL     1      31.828  20.363   7.089  0.00  0.00    +0.000 C 
ATOM      7  C   UNL     1      31.860  21.845   6.699  0.00  0.00    +0.000 C 
ATOM      8  C   UNL     1      32.432  19.530   6.013  0.00  0.00    +0.000 C 
ATOM      9  O   UNL     1      33.619  19.017   6.460  0.00  0.00    +0.000 OA
ATOM     10  C   UNL     1      33.722  19.249   7.818  0.00  0.00    +0.000 C 
ATOM     11  N   UNL     1      32.691  20.135   8.221  0.00  0.00    +0.000 NA
ENDBRANCH   4  11
ENDBRANCH   1   4
BRANCH   3  12
ATOM     12  C   UNL     1      31.033  21.638  12.092  0.00  0.00    +0.000 C 
BRANCH  12  13
ATOM     13  C   UNL     1      30.193  23.024  12.302  0.00  0.00    +0.000 C 
ATOM     14  C   UNL     1      28.835  22.427  11.485  0.00  0.00    +0.000 C 
ATOM     15  C   UNL     1      27.783  23.004  12.373  0.00  0.00    +0.000 C 
ATOM     16  C   UNL     1      28.492  23.522  13.622  0.00  0.00    +0.000 C 
ATOM     17  O   UNL     1      29.603  22.651  13.647  0.00  0.00    +0.000 OA
ENDBRANCH  12  13
ENDBRANCH   3  12
TORSDOF 4
ENDMDL
MODEL 10
REMARK VINA RESULT:      -4.8     16.673     18.073
REMARK  Name = 
REMARK  4 active torsions:
REMARK  status: ('A' for Active; 'I' for Inactive)
REMARK    1  A    between atoms: N_7  and  C_8
REMARK    2  A    between atoms: C_8  and  C_9
REMARK    3  A    between atoms: N_11  and  C_12
REMARK    4  A    between atoms: C_12  and  C_13
REMARK                            x       y       z     vdW  Elec       q    Type
REMARK                         _______ _______ _______ _____ _____    ______ ____
ROOT
ATOM      1  C   UNL     1      25.652  24.101  27.126  0.00  0.00    +0.000 C 
ATOM      2  O   UNL     1      24.557  24.696  27.083  0.00  0.00    +0.000 OA
ATOM      3  N   UNL     1      26.140  23.524  25.968  0.00  0.00    +0.000 NA
ENDROOT
BRANCH   1   4
ATOM      4  C   UNL     1      26.320  24.084  28.460  0.00  0.00    +0.000 C 
BRANCH   4  11
ATOM      5  C   UNL     1      29.163  22.529  27.736  0.00  0.00    +0.000 C 
ATOM      6  C   UNL     1      28.389  23.107  28.888  0.00  0.00    +0.000 C 
ATOM      7  C   UNL     1      28.664  24.614  28.932  0.00  0.00    +0.000 C 
ATOM      8  C   UNL     1      28.735  22.479  30.192  0.00  0.00    +0.000 C 
ATOM      9  O   UNL     1      27.584  22.076  30.812  0.00  0.00    +0.000 OA
ATOM     10  C   UNL     1      26.537  22.172  29.915  0.00  0.00    +0.000 C 
ATOM     11  N   UNL     1      26.973  22.870  28.761  0.00  0.00    +0.000 NA
ENDBRANCH   4  11
ENDBRANCH   1   4
BRANCH   3  12
ATOM     12  C   UNL     1      25.758  23.397  24.645  0.00  0.00    +0.000 C 
BRANCH  12  13
ATOM     13  C   UNL     1      26.721  24.236  23.626  0.00  0.00    +0.000 C 
ATOM     14  C   UNL     1      28.132  23.783  24.446  0.00  0.00    +0.000 C 
ATOM     15  C   UNL     1      29.006  23.562  23.256  0.00  0.00    +0.000 C 
ATOM     16  C   UNL     1      28.098  23.572  22.030  0.00  0.00    +0.000 C 
ATOM     17  O   UNL     1      26.895  23.119  22.616  0.00  0.00    +0.000 OA
ENDBRANCH  12  13
ENDBRANCH   3  12
TORSDOF 4
ENDMDL
