MODEL 1
REMARK VINA RESULT:      -7.1      0.000      0.000
REMARK  Name = 
REMARK  4 active torsions:
REMARK  status: ('A' for Active; 'I' for Inactive)
REMARK    1  A    between atoms: C_2  and  N_3
REMARK    2  A    between atoms: C_2  and  C_16
REMARK    3  A    between atoms: N_3  and  N_4
REMARK    4  A    between atoms: C_5  and  C_7
REMARK                            x       y       z     vdW  Elec       q    Type
REMARK                         _______ _______ _______ _____ _____    ______ ____
ROOT
ATOM      1  N   UNL     1      17.574  11.791  36.509  0.00  0.00    +0.000 NA
ATOM      2  C   UNL     1      16.282  11.411  36.142  0.00  0.00    +0.000 C 
ATOM      3  O   UNL     1      15.534  10.828  36.963  0.00  0.00    +0.000 OA
ENDROOT
BRANCH   2   4
ATOM      4  C   UNL     1      15.741  11.677  34.783  0.00  0.00    +0.000 A 
ATOM      5  C   UNL     1      14.943  12.706  34.393  0.00  0.00    +0.000 A 
ATOM      6  C   UNL     1      14.566  12.767  33.113  0.00  0.00    +0.000 A 
ATOM      7  C   UNL     1      15.024  11.770  32.285  0.00  0.00    +0.000 A 
ATOM      8  S   UNL     1      15.953  10.803  33.336  0.00  0.00    +0.000 S 
ATOM      9  C   UNL     1      14.611  11.821  30.841  0.00  0.00    +0.000 C 
ATOM     10  C   UNL     1      14.862  13.198  30.265  0.00  0.00    +0.000 C 
ATOM     11  C   UNL     1      14.535  14.290  31.248  0.00  0.00    +0.000 C 
ATOM     12  C   UNL     1      13.689  13.789  32.399  0.00  0.00    +0.000 C 
ENDBRANCH   2   4
BRANCH   1  13
ATOM     13  N   UNL     1      18.036  11.511  37.811  0.00  0.00    +0.000 NA
BRANCH  13  15
ATOM     14  C   UNL     1      18.434   9.328  38.706  0.00  0.00    +0.000 C 
ATOM     15  C   UNL     1      18.896  10.396  38.064  0.00  0.00    +0.000 C 
BRANCH  15  16
ATOM     16  C   UNL     1      20.286  10.428  37.619  0.00  0.00    +0.000 A 
ATOM     17  C   UNL     1      20.791   9.691  36.574  0.00  0.00    +0.000 A 
ATOM     18  C   UNL     1      22.124  10.005  36.481  0.00  0.00    +0.000 A 
ATOM     19  C   UNL     1      22.384  10.924  37.478  0.00  0.00    +0.000 A 
ATOM     20  O   UNL     1      21.261  11.143  38.126  0.00  0.00    +0.000 OA
ENDBRANCH  15  16
ENDBRANCH  13  15
ENDBRANCH   1  13
TORSDOF 4
ENDMDL
MODEL 2
REMARK VINA RESULT:      -6.9      1.545      1.992
REMARK  Name = 
REMARK  4 active torsions:
REMARK  status: ('A' for Active; 'I' for Inactive)
REMARK    1  A    between atoms: C_2  and  N_3
REMARK    2  A    between atoms: C_2  and  C_16
REMARK    3  A    between atoms: N_3  and  N_4
REMARK    4  A    between atoms: C_5  and  C_7
REMARK                            x       y       z     vdW  Elec       q    Type
REMARK                         _______ _______ _______ _____ _____    ______ ____
ROOT
ATOM      1  N   UNL     1      17.303  10.298  36.880  0.00  0.00    +0.000 NA
ATOM      2  C   UNL     1      17.107   9.926  35.549  0.00  0.00    +0.000 C 
ATOM      3  O   UNL     1      17.497   8.806  35.138  0.00  0.00    +0.000 OA
ENDROOT
BRANCH   2   4
ATOM      4  C   UNL     1      16.437  10.824  34.572  0.00  0.00    +0.000 A 
ATOM      5  C   UNL     1      16.705  10.958  33.247  0.00  0.00    +0.000 A 
ATOM      6  C   UNL     1      15.978  11.825  32.537  0.00  0.00    +0.000 A 
ATOM      7  C   UNL     1      15.006  12.520  33.216  0.00  0.00    +0.000 A 
ATOM      8  S   UNL     1      15.158  11.926  34.806  0.00  0.00    +0.000 S 
ATOM      9  C   UNL     1      14.178  13.500  32.434  0.00  0.00    +0.000 C 
ATOM     10  C   UNL     1      13.641  12.857  31.174  0.00  0.00    +0.000 C 
ATOM     11  C   UNL     1      14.650  11.944  30.531  0.00  0.00    +0.000 C 
ATOM     12  C   UNL     1      16.051  12.181  31.055  0.00  0.00    +0.000 C 
ENDBRANCH   2   4
BRANCH   1  13
ATOM     13  N   UNL     1      17.946   9.406  37.762  0.00  0.00    +0.000 NA
BRANCH  13  15
ATOM     14  C   UNL     1      18.963  10.149  39.796  0.00  0.00    +0.000 C 
ATOM     15  C   UNL     1      19.091   9.814  38.517  0.00  0.00    +0.000 C 
BRANCH  15  16
ATOM     16  C   UNL     1      20.405   9.864  37.882  0.00  0.00    +0.000 A 
ATOM     17  C   UNL     1      21.586  10.099  38.545  0.00  0.00    +0.000 A 
ATOM     18  C   UNL     1      22.580  10.066  37.600  0.00  0.00    +0.000 A 
ATOM     19  C   UNL     1      21.966   9.813  36.390  0.00  0.00    +0.000 A 
ATOM     20  O   UNL     1      20.675   9.701  36.610  0.00  0.00    +0.000 OA
ENDBRANCH  15  16
ENDBRANCH  13  15
ENDBRANCH   1  13
TORSDOF 4
ENDMDL
MODEL 3
REMARK VINA RESULT:      -6.9      1.630      2.862
REMARK  Name = 
REMARK  4 active torsions:
REMARK  status: ('A' for Active; 'I' for Inactive)
REMARK    1  A    between atoms: C_2  and  N_3
REMARK    2  A    between atoms: C_2  and  C_16
REMARK    3  A    between atoms: N_3  and  N_4
REMARK    4  A    between atoms: C_5  and  C_7
REMARK                            x       y       z     vdW  Elec       q    Type
REMARK                         _______ _______ _______ _____ _____    ______ ____
ROOT
ATOM      1  N   UNL     1      16.926  10.841  36.614  0.00  0.00    +0.000 NA
ATOM      2  C   UNL     1      15.765  11.536  36.270  0.00  0.00    +0.000 C 
ATOM      3  O   UNL     1      15.000  11.974  37.163  0.00  0.00    +0.000 OA
ENDROOT
BRANCH   2   4
ATOM      4  C   UNL     1      15.388  11.786  34.854  0.00  0.00    +0.000 A 
ATOM      5  C   UNL     1      14.663  12.822  34.358  0.00  0.00    +0.000 A 
ATOM      6  C   UNL     1      14.437  12.866  33.042  0.00  0.00    +0.000 A 
ATOM      7  C   UNL     1      14.965  11.844  32.289  0.00  0.00    +0.000 A 
ATOM      8  S   UNL     1      15.747  10.880  33.456  0.00  0.00    +0.000 S 
ATOM      9  C   UNL     1      14.721  11.876  30.807  0.00  0.00    +0.000 C 
ATOM     10  C   UNL     1      15.066  13.237  30.241  0.00  0.00    +0.000 C 
ATOM     11  C   UNL     1      14.652  14.354  31.160  0.00  0.00    +0.000 C 
ATOM     12  C   UNL     1      13.669  13.892  32.215  0.00  0.00    +0.000 C 
ENDBRANCH   2   4
BRANCH   1  13
ATOM     13  N   UNL     1      17.232  10.632  37.974  0.00  0.00    +0.000 NA
BRANCH  13  15
ATOM     14  C   UNL     1      19.487   9.849  37.797  0.00  0.00    +0.000 C 
ATOM     15  C   UNL     1      18.289   9.749  38.363  0.00  0.00    +0.000 C 
BRANCH  15  16
ATOM     16  C   UNL     1      18.054   8.732  39.384  0.00  0.00    +0.000 A 
ATOM     17  C   UNL     1      17.217   8.885  40.464  0.00  0.00    +0.000 A 
ATOM     18  C   UNL     1      17.276   7.713  41.176  0.00  0.00    +0.000 A 
ATOM     19  C   UNL     1      18.152   6.885  40.501  0.00  0.00    +0.000 A 
ATOM     20  O   UNL     1      18.587   7.536  39.445  0.00  0.00    +0.000 OA
ENDBRANCH  15  16
ENDBRANCH  13  15
ENDBRANCH   1  13
TORSDOF 4
ENDMDL
MODEL 4
REMARK VINA RESULT:      -6.9      2.971      8.022
REMARK  Name = 
REMARK  4 active torsions:
REMARK  status: ('A' for Active; 'I' for Inactive)
REMARK    1  A    between atoms: C_2  and  N_3
REMARK    2  A    between atoms: C_2  and  C_16
REMARK    3  A    between atoms: N_3  and  N_4
REMARK    4  A    between atoms: C_5  and  C_7
REMARK                            x       y       z     vdW  Elec       q    Type
REMARK                         _______ _______ _______ _____ _____    ______ ____
ROOT
ATOM      1  N   UNL     1      15.407  11.325  36.024  0.00  0.00    +0.000 NA
ATOM      2  C   UNL     1      16.568  11.479  36.782  0.00  0.00    +0.000 C 
ATOM      3  O   UNL     1      17.413  12.355  36.478  0.00  0.00    +0.000 OA
ENDROOT
BRANCH   2   4
ATOM      4  C   UNL     1      16.853  10.627  37.967  0.00  0.00    +0.000 A 
ATOM      5  C   UNL     1      16.079  10.452  39.069  0.00  0.00    +0.000 A 
ATOM      6  C   UNL     1      16.518   9.632  40.029  0.00  0.00    +0.000 A 
ATOM      7  C   UNL     1      17.732   9.025  39.816  0.00  0.00    +0.000 A 
ATOM      8  S   UNL     1      18.196   9.629  38.292  0.00  0.00    +0.000 S 
ATOM      9  C   UNL     1      18.242   8.098  40.884  0.00  0.00    +0.000 C 
ATOM     10  C   UNL     1      17.172   7.105  41.282  0.00  0.00    +0.000 C 
ATOM     11  C   UNL     1      15.806   7.735  41.331  0.00  0.00    +0.000 C 
ATOM     12  C   UNL     1      15.875   9.247  41.357  0.00  0.00    +0.000 C 
ENDBRANCH   2   4
BRANCH   1  13
ATOM     13  N   UNL     1      15.190  12.160  34.909  0.00  0.00    +0.000 NA
BRANCH  13  15
ATOM     14  C   UNL     1      16.109  10.569  33.377  0.00  0.00    +0.000 C 
ATOM     15  C   UNL     1      15.422  11.688  33.579  0.00  0.00    +0.000 C 
BRANCH  15  16
ATOM     16  C   UNL     1      14.906  12.437  32.436  0.00  0.00    +0.000 A 
ATOM     17  C   UNL     1      15.207  12.167  31.123  0.00  0.00    +0.000 A 
ATOM     18  C   UNL     1      14.527  13.090  30.367  0.00  0.00    +0.000 A 
ATOM     19  C   UNL     1      13.834  13.891  31.252  0.00  0.00    +0.000 A 
ATOM     20  O   UNL     1      14.091  13.464  32.468  0.00  0.00    +0.000 OA
ENDBRANCH  15  16
ENDBRANCH  13  15
ENDBRANCH   1  13
TORSDOF 4
ENDMDL
MODEL 5
REMARK VINA RESULT:      -6.8      2.197      7.643
REMARK  Name = 
REMARK  4 active torsions:
REMARK  status: ('A' for Active; 'I' for Inactive)
REMARK    1  A    between atoms: C_2  and  N_3
REMARK    2  A    between atoms: C_2  and  C_16
REMARK    3  A    between atoms: N_3  and  N_4
REMARK    4  A    between atoms: C_5  and  C_7
REMARK                            x       y       z     vdW  Elec       q    Type
REMARK                         _______ _______ _______ _____ _____    ______ ____
ROOT
ATOM      1  N   UNL     1      17.342  11.182  35.973  0.00  0.00    +0.000 NA
ATOM      2  C   UNL     1      17.955  10.556  37.059  0.00  0.00    +0.000 C 
ATOM      3  O   UNL     1      17.267   9.938  37.907  0.00  0.00    +0.000 OA
ENDROOT
BRANCH   2   4
ATOM      4  C   UNL     1      19.428  10.591  37.258  0.00  0.00    +0.000 A 
ATOM      5  C   UNL     1      20.363   9.786  36.689  0.00  0.00    +0.000 A 
ATOM      6  C   UNL     1      21.647   9.986  36.999  0.00  0.00    +0.000 A 
ATOM      7  C   UNL     1      21.919  11.005  37.880  0.00  0.00    +0.000 A 
ATOM      8  S   UNL     1      20.371  11.627  38.228  0.00  0.00    +0.000 S 
ATOM      9  C   UNL     1      23.357  11.246  38.241  0.00  0.00    +0.000 C 
ATOM     10  C   UNL     1      24.211  11.330  36.995  0.00  0.00    +0.000 C 
ATOM     11  C   UNL     1      23.787  10.332  35.951  0.00  0.00    +0.000 C 
ATOM     12  C   UNL     1      22.895   9.251  36.522  0.00  0.00    +0.000 C 
ENDBRANCH   2   4
BRANCH   1  13
ATOM     13  N   UNL     1      15.940  11.118  35.836  0.00  0.00    +0.000 NA
BRANCH  13  15
ATOM     14  C   UNL     1      14.490  12.915  35.211  0.00  0.00    +0.000 C 
ATOM     15  C   UNL     1      15.261  11.896  34.846  0.00  0.00    +0.000 C 
BRANCH  15  16
ATOM     16  C   UNL     1      15.410  11.572  33.430  0.00  0.00    +0.000 A 
ATOM     17  C   UNL     1      14.905  12.325  32.397  0.00  0.00    +0.000 A 
ATOM     18  C   UNL     1      15.260  11.685  31.236  0.00  0.00    +0.000 A 
ATOM     19  C   UNL     1      15.970  10.561  31.606  0.00  0.00    +0.000 A 
ATOM     20  O   UNL     1      16.033  10.538  32.918  0.00  0.00    +0.000 OA
ENDBRANCH  15  16
ENDBRANCH  13  15
ENDBRANCH   1  13
TORSDOF 4
ENDMDL
MODEL 6
REMARK VINA RESULT:      -6.7      1.704      2.021
REMARK  Name = 
REMARK  4 active torsions:
REMARK  status: ('A' for Active; 'I' for Inactive)
REMARK    1  A    between atoms: C_2  and  N_3
REMARK    2  A    between atoms: C_2  and  C_16
REMARK    3  A    between atoms: N_3  and  N_4
REMARK    4  A    between atoms: C_5  and  C_7
REMARK                            x       y       z     vdW  Elec       q    Type
REMARK                         _______ _______ _______ _____ _____    ______ ____
ROOT
ATOM      1  N   UNL     1      17.250  11.257  36.517  0.00  0.00    +0.000 NA
ATOM      2  C   UNL     1      16.939  10.458  35.416  0.00  0.00    +0.000 C 
ATOM      3  O   UNL     1      17.267   9.247  35.397  0.00  0.00    +0.000 OA
ENDROOT
BRANCH   2   4
ATOM      4  C   UNL     1      16.214  10.996  34.234  0.00  0.00    +0.000 A 
ATOM      5  C   UNL     1      15.330  12.026  34.200  0.00  0.00    +0.000 A 
ATOM      6  C   UNL     1      14.788  12.359  33.025  0.00  0.00    +0.000 A 
ATOM      7  C   UNL     1      15.177  11.620  31.933  0.00  0.00    +0.000 A 
ATOM      8  S   UNL     1      16.275  10.504  32.604  0.00  0.00    +0.000 S 
ATOM      9  C   UNL     1      14.578  11.979  30.602  0.00  0.00    +0.000 C 
ATOM     10  C   UNL     1      14.694  13.467  30.352  0.00  0.00    +0.000 C 
ATOM     11  C   UNL     1      14.450  14.271  31.601  0.00  0.00    +0.000 C 
ATOM     12  C   UNL     1      13.783  13.454  32.686  0.00  0.00    +0.000 C 
ENDBRANCH   2   4
BRANCH   1  13
ATOM     13  N   UNL     1      17.940  10.693  37.610  0.00  0.00    +0.000 NA
BRANCH  13  15
ATOM     14  C   UNL     1      20.174   9.923  37.237  0.00  0.00    +0.000 C 
ATOM     15  C   UNL     1      19.357  10.841  37.742  0.00  0.00    +0.000 C 
BRANCH  15  16
ATOM     16  C   UNL     1      19.911  12.002  38.433  0.00  0.00    +0.000 A 
ATOM     17  C   UNL     1      19.666  13.309  38.087  0.00  0.00    +0.000 A 
ATOM     18  C   UNL     1      20.366  14.088  38.975  0.00  0.00    +0.000 A 
ATOM     19  C   UNL     1      21.014  13.222  39.833  0.00  0.00    +0.000 A 
ATOM     20  O   UNL     1      20.713  11.995  39.470  0.00  0.00    +0.000 OA
ENDBRANCH  15  16
ENDBRANCH  13  15
ENDBRANCH   1  13
TORSDOF 4
ENDMDL
MODEL 7
REMARK VINA RESULT:      -6.7     20.725     22.690
REMARK  Name = 
REMARK  4 active torsions:
REMARK  status: ('A' for Active; 'I' for Inactive)
REMARK    1  A    between atoms: C_2  and  N_3
REMARK    2  A    between atoms: C_2  and  C_16
REMARK    3  A    between atoms: N_3  and  N_4
REMARK    4  A    between atoms: C_5  and  C_7
REMARK                            x       y       z     vdW  Elec       q    Type
REMARK                         _______ _______ _______ _____ _____    ______ ____
ROOT
ATOM      1  N   UNL     1      29.680  24.512  22.173  0.00  0.00    +0.000 NA
ATOM      2  C   UNL     1      28.710  23.647  22.682  0.00  0.00    +0.000 C 
ATOM      3  O   UNL     1      27.788  23.222  21.945  0.00  0.00    +0.000 OA
ENDROOT
BRANCH   2   4
ATOM      4  C   UNL     1      28.726  23.195  24.099  0.00  0.00    +0.000 A 
ATOM      5  C   UNL     1      29.790  22.753  24.818  0.00  0.00    +0.000 A 
ATOM      6  C   UNL     1      29.592  22.395  26.090  0.00  0.00    +0.000 A 
ATOM      7  C   UNL     1      28.309  22.506  26.571  0.00  0.00    +0.000 A 
ATOM      8  S   UNL     1      27.451  23.102  25.225  0.00  0.00    +0.000 S 
ATOM      9  C   UNL     1      28.066  22.108  28.000  0.00  0.00    +0.000 C 
ATOM     10  C   UNL     1      29.075  22.768  28.914  0.00  0.00    +0.000 C 
ATOM     11  C   UNL     1      30.449  22.813  28.301  0.00  0.00    +0.000 C 
ATOM     12  C   UNL     1      30.582  21.870  27.125  0.00  0.00    +0.000 C 
ENDBRANCH   2   4
BRANCH   1  13
ATOM     13  N   UNL     1      29.614  24.909  20.822  0.00  0.00    +0.000 NA
BRANCH  13  15
ATOM     14  C   UNL     1      27.993  26.666  20.921  0.00  0.00    +0.000 C 
ATOM     15  C   UNL     1      29.154  26.214  20.459  0.00  0.00    +0.000 C 
BRANCH  15  16
ATOM     16  C   UNL     1      29.960  27.055  19.577  0.00  0.00    +0.000 A 
ATOM     17  C   UNL     1      30.093  28.417  19.701  0.00  0.00    +0.000 A 
ATOM     18  C   UNL     1      30.925  28.824  18.688  0.00  0.00    +0.000 A 
ATOM     19  C   UNL     1      31.268  27.689  17.980  0.00  0.00    +0.000 A 
ATOM     20  O   UNL     1      30.670  26.665  18.547  0.00  0.00    +0.000 OA
ENDBRANCH  15  16
ENDBRANCH  13  15
ENDBRANCH   1  13
TORSDOF 4
ENDMDL
MODEL 8
REMARK VINA RESULT:      -6.4     19.955     21.978
REMARK  Name = 
REMARK  4 active torsions:
REMARK  status: ('A' for Active; 'I' for Inactive)
REMARK    1  A    between atoms: C_2  and  N_3
REMARK    2  A    between atoms: C_2  and  C_16
REMARK    3  A    between atoms: N_3  and  N_4
REMARK    4  A    between atoms: C_5  and  C_7
REMARK                            x       y       z     vdW  Elec       q    Type
REMARK                         _______ _______ _______ _____ _____    ______ ____
ROOT
ATOM      1  N   UNL     1      29.702  24.314  22.086  0.00  0.00    +0.000 NA
ATOM      2  C   UNL     1      28.630  23.629  22.661  0.00  0.00    +0.000 C 
ATOM      3  O   UNL     1      27.607  23.366  21.984  0.00  0.00    +0.000 OA
ENDROOT
BRANCH   2   4
ATOM      4  C   UNL     1      28.651  23.187  24.080  0.00  0.00    +0.000 A 
ATOM      5  C   UNL     1      29.724  22.779  24.808  0.00  0.00    +0.000 A 
ATOM      6  C   UNL     1      29.529  22.423  26.081  0.00  0.00    +0.000 A 
ATOM      7  C   UNL     1      28.242  22.501  26.555  0.00  0.00    +0.000 A 
ATOM      8  S   UNL     1      27.374  23.065  25.202  0.00  0.00    +0.000 S 
ATOM      9  C   UNL     1      28.003  22.105  27.985  0.00  0.00    +0.000 C 
ATOM     10  C   UNL     1      28.988  22.799  28.900  0.00  0.00    +0.000 C 
ATOM     11  C   UNL     1      30.363  22.879  28.294  0.00  0.00    +0.000 C 
ATOM     12  C   UNL     1      30.528  21.933  27.123  0.00  0.00    +0.000 C 
ENDBRANCH   2   4
BRANCH   1  13
ATOM     13  N   UNL     1      29.626  24.711  20.735  0.00  0.00    +0.000 NA
BRANCH  13  15
ATOM     14  C   UNL     1      30.001  26.579  19.288  0.00  0.00    +0.000 C 
ATOM     15  C   UNL     1      29.430  26.083  20.381  0.00  0.00    +0.000 C 
BRANCH  15  16
ATOM     16  C   UNL     1      28.603  26.945  21.220  0.00  0.00    +0.000 A 
ATOM     17  C   UNL     1      29.055  28.061  21.882  0.00  0.00    +0.000 A 
ATOM     18  C   UNL     1      27.978  28.584  22.552  0.00  0.00    +0.000 A 
ATOM     19  C   UNL     1      26.904  27.762  22.275  0.00  0.00    +0.000 A 
ATOM     20  O   UNL     1      27.326  26.804  21.480  0.00  0.00    +0.000 OA
ENDBRANCH  15  16
ENDBRANCH  13  15
ENDBRANCH   1  13
TORSDOF 4
ENDMDL
MODEL 9
REMARK VINA RESULT:      -6.3     19.696     22.775
REMARK  Name = 
REMARK  4 active torsions:
REMARK  status: ('A' for Active; 'I' for Inactive)
REMARK    1  A    between atoms: C_2  and  N_3
REMARK    2  A    between atoms: C_2  and  C_16
REMARK    3  A    between atoms: N_3  and  N_4
REMARK    4  A    between atoms: C_5  and  C_7
REMARK                            x       y       z     vdW  Elec       q    Type
REMARK                         _______ _______ _______ _____ _____    ______ ____
ROOT
ATOM      1  N   UNL     1      33.599  -2.800  33.085  0.00  0.00    +0.000 NA
ATOM      2  C   UNL     1      33.761  -4.182  33.185  0.00  0.00    +0.000 C 
ATOM      3  O   UNL     1      34.218  -4.694  34.236  0.00  0.00    +0.000 OA
ENDROOT
BRANCH   2   4
ATOM      4  C   UNL     1      33.405  -5.099  32.070  0.00  0.00    +0.000 A 
ATOM      5  C   UNL     1      33.703  -4.959  30.752  0.00  0.00    +0.000 A 
ATOM      6  C   UNL     1      33.291  -5.906  29.904  0.00  0.00    +0.000 A 
ATOM      7  C   UNL     1      32.589  -6.957  30.444  0.00  0.00    +0.000 A 
ATOM      8  S   UNL     1      32.543  -6.568  32.102  0.00  0.00    +0.000 S 
ATOM      9  C   UNL     1      32.116  -8.032  29.506  0.00  0.00    +0.000 C 
ATOM     10  C   UNL     1      33.250  -8.501  28.621  0.00  0.00    +0.000 C 
ATOM     11  C   UNL     1      34.132  -7.363  28.181  0.00  0.00    +0.000 C 
ATOM     12  C   UNL     1      33.476  -6.015  28.394  0.00  0.00    +0.000 C 
ENDBRANCH   2   4
BRANCH   1  13
ATOM     13  N   UNL     1      33.956  -1.979  34.174  0.00  0.00    +0.000 NA
BRANCH  13  15
ATOM     14  C   UNL     1      32.154  -0.978  35.389  0.00  0.00    +0.000 C 
ATOM     15  C   UNL     1      33.161  -0.844  34.532  0.00  0.00    +0.000 C 
BRANCH  15  16
ATOM     16  C   UNL     1      33.454   0.465  33.957  0.00  0.00    +0.000 A 
ATOM     17  C   UNL     1      33.907   0.674  32.676  0.00  0.00    +0.000 A 
ATOM     18  C   UNL     1      34.056   2.030  32.529  0.00  0.00    +0.000 A 
ATOM     19  C   UNL     1      33.688   2.601  33.731  0.00  0.00    +0.000 A 
ATOM     20  O   UNL     1      33.338   1.631  34.546  0.00  0.00    +0.000 OA
ENDBRANCH  15  16
ENDBRANCH  13  15
ENDBRANCH   1  13
TORSDOF 4
ENDMDL
MODEL 10
REMARK VINA RESULT:      -6.3      3.353      8.269
REMARK  Name = 
REMARK  4 active torsions:
REMARK  status: ('A' for Active; 'I' for Inactive)
REMARK    1  A    between atoms: C_2  and  N_3
REMARK    2  A    between atoms: C_2  and  C_16
REMARK    3  A    between atoms: N_3  and  N_4
REMARK    4  A    between atoms: C_5  and  C_7
REMARK                            x       y       z     vdW  Elec       q    Type
REMARK                         _______ _______ _______ _____ _____    ______ ____
ROOT
ATOM      1  N   UNL     1      18.325   9.806  37.416  0.00  0.00    +0.000 NA
ATOM      2  C   UNL     1      19.367  10.466  38.068  0.00  0.00    +0.000 C 
ATOM      3  O   UNL     1      19.129  11.449  38.811  0.00  0.00    +0.000 OA
ENDROOT
BRANCH   2   4
ATOM      4  C   UNL     1      20.784  10.043  37.916  0.00  0.00    +0.000 A 
ATOM      5  C   UNL     1      21.526  10.017  36.778  0.00  0.00    +0.000 A 
ATOM      6  C   UNL     1      22.794   9.604  36.857  0.00  0.00    +0.000 A 
ATOM      7  C   UNL     1      23.249   9.235  38.100  0.00  0.00    +0.000 A 
ATOM      8  S   UNL     1      21.885   9.484  39.090  0.00  0.00    +0.000 S 
ATOM      9  C   UNL     1      24.673   8.768  38.208  0.00  0.00    +0.000 C 
ATOM     10  C   UNL     1      25.607   9.746  37.529  0.00  0.00    +0.000 C 
ATOM     11  C   UNL     1      25.022  10.294  36.255  0.00  0.00    +0.000 C 
ATOM     12  C   UNL     1      23.850   9.471  35.764  0.00  0.00    +0.000 C 
ENDBRANCH   2   4
BRANCH   1  13
ATOM     13  N   UNL     1      17.000  10.252  37.596  0.00  0.00    +0.000 NA
BRANCH  13  15
ATOM     14  C   UNL     1      16.999  11.399  35.496  0.00  0.00    +0.000 C 
ATOM     15  C   UNL     1      16.347  11.040  36.597  0.00  0.00    +0.000 C 
BRANCH  15  16
ATOM     16  C   UNL     1      14.959  11.455  36.784  0.00  0.00    +0.000 A 
ATOM     17  C   UNL     1      14.347  12.474  36.094  0.00  0.00    +0.000 A 
ATOM     18  C   UNL     1      13.058  12.544  36.560  0.00  0.00    +0.000 A 
ATOM     19  C   UNL     1      12.932  11.562  37.522  0.00  0.00    +0.000 A 
ATOM     20  O   UNL     1      14.088  10.943  37.618  0.00  0.00    +0.000 OA
ENDBRANCH  15  16
ENDBRANCH  13  15
ENDBRANCH   1  13
TORSDOF 4
ENDMDL
