MODEL 1
REMARK VINA RESULT:      -8.5      0.000      0.000
REMARK  Name = 
REMARK  8 active torsions:
REMARK  status: ('A' for Active; 'I' for Inactive)
REMARK    1  A    between atoms: C_5  and  N_6
REMARK    2  A    between atoms: C_7  and  C_9
REMARK    3  A    between atoms: C_9  and  O_10
REMARK    4  A    between atoms: O_10  and  C_11
REMARK    5  A    between atoms: C_11  and  C_13
REMARK    6  A    between atoms: C_13  and  C_14
REMARK    7  A    between atoms: C_14  and  C_15
REMARK    8  A    between atoms: C_14  and  C_21
REMARK                            x       y       z     vdW  Elec       q    Type
REMARK                         _______ _______ _______ _____ _____    ______ ____
ROOT
ATOM      1  C   UNL     1      38.880   4.617  17.103  0.00  0.00    +0.000 C 
ATOM      2  O   UNL     1      39.390   5.381  16.239  0.00  0.00    +0.000 OA
ENDROOT
BRANCH   1   3
ATOM      3  O   UNL     1      38.213   3.497  16.664  0.00  0.00    +0.000 OA
BRANCH   3   4
ATOM      4  C   UNL     1      36.807   3.556  16.512  0.00  0.00    +0.000 C 
BRANCH   4   6
ATOM      5  N   UNL     1      36.941   1.064  16.649  0.00  0.00    +0.000 NA
ATOM      6  C   UNL     1      36.245   2.214  16.227  0.00  0.00    +0.000 C 
ATOM      7  O   UNL     1      35.167   2.119  15.620  0.00  0.00    +0.000 OA
BRANCH   5  12
ATOM      8  C   UNL     1      34.677  -4.064  15.593  0.00  0.00    +0.000 C 
ATOM      9  C   UNL     1      35.276  -2.711  15.877  0.00  0.00    +0.000 A 
ATOM     10  C   UNL     1      35.994  -2.056  14.906  0.00  0.00    +0.000 A 
ATOM     11  C   UNL     1      36.539  -0.822  15.166  0.00  0.00    +0.000 A 
ATOM     12  C   UNL     1      36.390  -0.212  16.379  0.00  0.00    +0.000 A 
ATOM     13  C   UNL     1      35.661  -0.884  17.363  0.00  0.00    +0.000 A 
ATOM     14  C   UNL     1      35.528  -0.183  18.670  0.00  0.00    +0.000 C 
ATOM     15  C   UNL     1      35.118  -2.113  17.103  0.00  0.00    +0.000 A 
ENDBRANCH   5  12
ENDBRANCH   4   6
ENDBRANCH   3   4
ENDBRANCH   1   3
BRANCH   1  16
ATOM     16  C   UNL     1      39.021   4.960  18.508  0.00  0.00    +0.000 C 
BRANCH  16  17
ATOM     17  C   UNL     1      39.548   6.260  18.882  0.00  0.00    +0.000 C 
BRANCH  17  18
ATOM     18  C   UNL     1      38.697   7.410  19.026  0.00  0.00    +0.000 A 
ATOM     19  C   UNL     1      38.641   8.044  20.256  0.00  0.00    +0.000 A 
ATOM     20  C   UNL     1      37.846   9.161  20.485  0.00  0.00    +0.000 A 
ATOM     21  C   UNL     1      37.077   9.680  19.476  0.00  0.00    +0.000 A 
ATOM     22  C   UNL     1      37.113   9.074  18.249  0.00  0.00    +0.000 A 
ATOM     23  C   UNL     1      37.910   7.951  18.015  0.00  0.00    +0.000 A 
ENDBRANCH  17  18
BRANCH  17  24
ATOM     24  C   UNL     1      40.962   6.375  19.150  0.00  0.00    +0.000 A 
ATOM     25  C   UNL     1      41.872   6.689  18.161  0.00  0.00    +0.000 A 
ATOM     26  C   UNL     1      43.218   6.823  18.417  0.00  0.00    +0.000 A 
ATOM     27  C   UNL     1      43.701   6.641  19.694  0.00  0.00    +0.000 A 
ATOM     28  C   UNL     1      42.789   6.323  20.696  0.00  0.00    +0.000 A 
ATOM     29  C   UNL     1      41.446   6.193  20.426  0.00  0.00    +0.000 A 
ENDBRANCH  17  24
ENDBRANCH  16  17
ENDBRANCH   1  16
TORSDOF 8
ENDMDL
MODEL 2
REMARK VINA RESULT:      -8.4      0.449      3.484
REMARK  Name = 
REMARK  8 active torsions:
REMARK  status: ('A' for Active; 'I' for Inactive)
REMARK    1  A    between atoms: C_5  and  N_6
REMARK    2  A    between atoms: C_7  and  C_9
REMARK    3  A    between atoms: C_9  and  O_10
REMARK    4  A    between atoms: O_10  and  C_11
REMARK    5  A    between atoms: C_11  and  C_13
REMARK    6  A    between atoms: C_13  and  C_14
REMARK    7  A    between atoms: C_14  and  C_15
REMARK    8  A    between atoms: C_14  and  C_21
REMARK                            x       y       z     vdW  Elec       q    Type
REMARK                         _______ _______ _______ _____ _____    ______ ____
ROOT
ATOM      1  C   UNL     1      38.675   4.558  17.383  0.00  0.00    +0.000 C 
ATOM      2  O   UNL     1      39.325   5.016  16.406  0.00  0.00    +0.000 OA
ENDROOT
BRANCH   1   3
ATOM      3  O   UNL     1      37.615   3.721  17.122  0.00  0.00    +0.000 OA
BRANCH   3   4
ATOM      4  C   UNL     1      37.178   3.572  15.784  0.00  0.00    +0.000 C 
BRANCH   4   6
ATOM      5  N   UNL     1      37.127   1.107  16.198  0.00  0.00    +0.000 NA
ATOM      6  C   UNL     1      36.568   2.237  15.569  0.00  0.00    +0.000 C 
ATOM      7  O   UNL     1      35.572   2.131  14.838  0.00  0.00    +0.000 OA
BRANCH   5  12
ATOM      8  C   UNL     1      34.675  -3.980  15.392  0.00  0.00    +0.000 C 
ATOM      9  C   UNL     1      35.323  -2.637  15.611  0.00  0.00    +0.000 A 
ATOM     10  C   UNL     1      36.252  -2.165  14.715  0.00  0.00    +0.000 A 
ATOM     11  C   UNL     1      36.841  -0.940  14.915  0.00  0.00    +0.000 A 
ATOM     12  C   UNL     1      36.531  -0.161  15.993  0.00  0.00    +0.000 A 
ATOM     13  C   UNL     1      35.586  -0.648  16.900  0.00  0.00    +0.000 A 
ATOM     14  C   UNL     1      35.282   0.234  18.062  0.00  0.00    +0.000 C 
ATOM     15  C   UNL     1      35.000  -1.868  16.700  0.00  0.00    +0.000 A 
ENDBRANCH   5  12
ENDBRANCH   4   6
ENDBRANCH   3   4
ENDBRANCH   1   3
BRANCH   1  16
ATOM     16  C   UNL     1      39.076   4.938  18.728  0.00  0.00    +0.000 C 
BRANCH  16  17
ATOM     17  C   UNL     1      39.672   6.242  18.959  0.00  0.00    +0.000 C 
BRANCH  17  18
ATOM     18  C   UNL     1      41.097   6.422  19.026  0.00  0.00    +0.000 A 
ATOM     19  C   UNL     1      41.717   6.356  20.262  0.00  0.00    +0.000 A 
ATOM     20  C   UNL     1      43.089   6.518  20.419  0.00  0.00    +0.000 A 
ATOM     21  C   UNL     1      43.886   6.752  19.328  0.00  0.00    +0.000 A 
ATOM     22  C   UNL     1      43.301   6.822  18.093  0.00  0.00    +0.000 A 
ATOM     23  C   UNL     1      41.922   6.660  17.931  0.00  0.00    +0.000 A 
ENDBRANCH  17  18
BRANCH  17  24
ATOM     24  C   UNL     1      38.797   7.383  19.084  0.00  0.00    +0.000 A 
ATOM     25  C   UNL     1      38.569   8.001  20.296  0.00  0.00    +0.000 A 
ATOM     26  C   UNL     1      37.754   9.105  20.415  0.00  0.00    +0.000 A 
ATOM     27  C   UNL     1      37.130   9.629  19.305  0.00  0.00    +0.000 A 
ATOM     28  C   UNL     1      37.355   9.009  18.080  0.00  0.00    +0.000 A 
ATOM     29  C   UNL     1      38.174   7.907  17.974  0.00  0.00    +0.000 A 
ENDBRANCH  17  24
ENDBRANCH  16  17
ENDBRANCH   1  16
TORSDOF 8
ENDMDL
MODEL 3
REMARK VINA RESULT:      -8.1      1.517      4.192
REMARK  Name = 
REMARK  8 active torsions:
REMARK  status: ('A' for Active; 'I' for Inactive)
REMARK    1  A    between atoms: C_5  and  N_6
REMARK    2  A    between atoms: C_7  and  C_9
REMARK    3  A    between atoms: C_9  and  O_10
REMARK    4  A    between atoms: O_10  and  C_11
REMARK    5  A    between atoms: C_11  and  C_13
REMARK    6  A    between atoms: C_13  and  C_14
REMARK    7  A    between atoms: C_14  and  C_15
REMARK    8  A    between atoms: C_14  and  C_21
REMARK                            x       y       z     vdW  Elec       q    Type
REMARK                         _______ _______ _______ _____ _____    ______ ____
ROOT
ATOM      1  C   UNL     1      40.008   6.118  17.290  0.00  0.00    +0.000 C 
ATOM      2  O   UNL     1      40.377   7.240  16.852  0.00  0.00    +0.000 OA
ENDROOT
BRANCH   1   3
ATOM      3  O   UNL     1      39.559   5.185  16.386  0.00  0.00    +0.000 OA
BRANCH   3   4
ATOM      4  C   UNL     1      38.182   5.159  16.059  0.00  0.00    +0.000 C 
BRANCH   4   6
ATOM      5  N   UNL     1      36.872   3.105  15.498  0.00  0.00    +0.000 NA
ATOM      6  C   UNL     1      37.564   3.871  16.457  0.00  0.00    +0.000 C 
ATOM      7  O   UNL     1      37.666   3.481  17.631  0.00  0.00    +0.000 OA
BRANCH   5  12
ATOM      8  C   UNL     1      34.599  -1.884  17.073  0.00  0.00    +0.000 C 
ATOM      9  C   UNL     1      35.201  -0.568  16.652  0.00  0.00    +0.000 A 
ATOM     10  C   UNL     1      34.603   0.613  17.017  0.00  0.00    +0.000 A 
ATOM     11  C   UNL     1      35.153   1.812  16.634  0.00  0.00    +0.000 A 
ATOM     12  C   UNL     1      36.295   1.872  15.887  0.00  0.00    +0.000 A 
ATOM     13  C   UNL     1      36.898   0.667  15.518  0.00  0.00    +0.000 A 
ATOM     14  C   UNL     1      38.140   0.781  14.702  0.00  0.00    +0.000 C 
ATOM     15  C   UNL     1      36.350  -0.527  15.901  0.00  0.00    +0.000 A 
ENDBRANCH   5  12
ENDBRANCH   4   6
ENDBRANCH   3   4
ENDBRANCH   1   3
BRANCH   1  16
ATOM     16  C   UNL     1      40.075   5.871  18.722  0.00  0.00    +0.000 C 
BRANCH  16  17
ATOM     17  C   UNL     1      40.789   6.801  19.579  0.00  0.00    +0.000 C 
BRANCH  17  18
ATOM     18  C   UNL     1      42.177   6.616  19.906  0.00  0.00    +0.000 A 
ATOM     19  C   UNL     1      43.131   6.947  18.959  0.00  0.00    +0.000 A 
ATOM     20  C   UNL     1      44.495   6.802  19.189  0.00  0.00    +0.000 A 
ATOM     21  C   UNL     1      44.943   6.316  20.390  0.00  0.00    +0.000 A 
ATOM     22  C   UNL     1      44.023   5.981  21.346  0.00  0.00    +0.000 A 
ATOM     23  C   UNL     1      42.652   6.125  21.118  0.00  0.00    +0.000 A 
ENDBRANCH  17  18
BRANCH  17  24
ATOM     24  C   UNL     1      40.081   7.957  20.076  0.00  0.00    +0.000 A 
ATOM     25  C   UNL     1      40.719   9.156  20.320  0.00  0.00    +0.000 A 
ATOM     26  C   UNL     1      40.043  10.268  20.772  0.00  0.00    +0.000 A 
ATOM     27  C   UNL     1      38.685  10.209  20.996  0.00  0.00    +0.000 A 
ATOM     28  C   UNL     1      38.037   9.003  20.752  0.00  0.00    +0.000 A 
ATOM     29  C   UNL     1      38.725   7.899  20.301  0.00  0.00    +0.000 A 
ENDBRANCH  17  24
ENDBRANCH  16  17
ENDBRANCH   1  16
TORSDOF 8
ENDMDL
MODEL 4
REMARK VINA RESULT:      -8.0      4.395      9.424
REMARK  Name = 
REMARK  8 active torsions:
REMARK  status: ('A' for Active; 'I' for Inactive)
REMARK    1  A    between atoms: C_5  and  N_6
REMARK    2  A    between atoms: C_7  and  C_9
REMARK    3  A    between atoms: C_9  and  O_10
REMARK    4  A    between atoms: O_10  and  C_11
REMARK    5  A    between atoms: C_11  and  C_13
REMARK    6  A    between atoms: C_13  and  C_14
REMARK    7  A    between atoms: C_14  and  C_15
REMARK    8  A    between atoms: C_14  and  C_21
REMARK                            x       y       z     vdW  Elec       q    Type
REMARK                         _______ _______ _______ _____ _____    ______ ____
ROOT
ATOM      1  C   UNL     1      39.116  -2.469  15.782  0.00  0.00    +0.000 C 
ATOM      2  O   UNL     1      39.915  -3.307  16.278  0.00  0.00    +0.000 OA
ENDROOT
BRANCH   1   3
ATOM      3  O   UNL     1      39.453  -1.137  15.845  0.00  0.00    +0.000 OA
BRANCH   3   4
ATOM      4  C   UNL     1      39.796  -0.463  14.648  0.00  0.00    +0.000 C 
BRANCH   4   6
ATOM      5  N   UNL     1      38.234   1.338  15.398  0.00  0.00    +0.000 NA
ATOM      6  C   UNL     1      38.821   0.612  14.344  0.00  0.00    +0.000 C 
ATOM      7  O   UNL     1      38.534   0.860  13.163  0.00  0.00    +0.000 OA
BRANCH   5  12
ATOM      8  C   UNL     1      34.558   5.517  14.148  0.00  0.00    +0.000 C 
ATOM      9  C   UNL     1      35.532   4.417  14.483  0.00  0.00    +0.000 A 
ATOM     10  C   UNL     1      35.103   3.113  14.555  0.00  0.00    +0.000 A 
ATOM     11  C   UNL     1      35.992   2.111  14.858  0.00  0.00    +0.000 A 
ATOM     12  C   UNL     1      37.312   2.369  15.096  0.00  0.00    +0.000 A 
ATOM     13  C   UNL     1      37.741   3.696  15.022  0.00  0.00    +0.000 A 
ATOM     14  C   UNL     1      39.188   3.931  15.292  0.00  0.00    +0.000 C 
ATOM     15  C   UNL     1      36.855   4.694  14.719  0.00  0.00    +0.000 A 
ENDBRANCH   5  12
ENDBRANCH   4   6
ENDBRANCH   3   4
ENDBRANCH   1   3
BRANCH   1  16
ATOM     16  C   UNL     1      37.886  -2.951  15.175  0.00  0.00    +0.000 C 
BRANCH  16  17
ATOM     17  C   UNL     1      36.668  -3.002  15.964  0.00  0.00    +0.000 C 
BRANCH  17  18
ATOM     18  C   UNL     1      36.392  -2.040  16.995  0.00  0.00    +0.000 A 
ATOM     19  C   UNL     1      36.896  -2.263  18.265  0.00  0.00    +0.000 A 
ATOM     20  C   UNL     1      36.680  -1.386  19.321  0.00  0.00    +0.000 A 
ATOM     21  C   UNL     1      35.942  -0.246  19.131  0.00  0.00    +0.000 A 
ATOM     22  C   UNL     1      35.430   0.002  17.886  0.00  0.00    +0.000 A 
ATOM     23  C   UNL     1      35.646  -0.878  16.822  0.00  0.00    +0.000 A 
ENDBRANCH  17  18
BRANCH  17  24
ATOM     24  C   UNL     1      35.700  -4.031  15.663  0.00  0.00    +0.000 A 
ATOM     25  C   UNL     1      34.606  -3.794  14.857  0.00  0.00    +0.000 A 
ATOM     26  C   UNL     1      33.694  -4.780  14.549  0.00  0.00    +0.000 A 
ATOM     27  C   UNL     1      33.854  -6.052  15.050  0.00  0.00    +0.000 A 
ATOM     28  C   UNL     1      34.955  -6.297  15.865  0.00  0.00    +0.000 A 
ATOM     29  C   UNL     1      35.860  -5.303  16.164  0.00  0.00    +0.000 A 
ENDBRANCH  17  24
ENDBRANCH  16  17
ENDBRANCH   1  16
TORSDOF 8
ENDMDL
MODEL 5
REMARK VINA RESULT:      -7.9      2.145      8.714
REMARK  Name = 
REMARK  8 active torsions:
REMARK  status: ('A' for Active; 'I' for Inactive)
REMARK    1  A    between atoms: C_5  and  N_6
REMARK    2  A    between atoms: C_7  and  C_9
REMARK    3  A    between atoms: C_9  and  O_10
REMARK    4  A    between atoms: O_10  and  C_11
REMARK    5  A    between atoms: C_11  and  C_13
REMARK    6  A    between atoms: C_13  and  C_14
REMARK    7  A    between atoms: C_14  and  C_15
REMARK    8  A    between atoms: C_14  and  C_21
REMARK                            x       y       z     vdW  Elec       q    Type
REMARK                         _______ _______ _______ _____ _____    ______ ____
ROOT
ATOM      1  C   UNL     1      36.108   2.796  14.367  0.00  0.00    +0.000 C 
ATOM      2  O   UNL     1      34.995   3.370  14.500  0.00  0.00    +0.000 OA
ENDROOT
BRANCH   1   3
ATOM      3  O   UNL     1      37.249   3.545  14.541  0.00  0.00    +0.000 OA
BRANCH   3   4
ATOM      4  C   UNL     1      37.151   4.791  15.206  0.00  0.00    +0.000 C 
BRANCH   4   6
ATOM      5  N   UNL     1      38.739   6.150  16.577  0.00  0.00    +0.000 NA
ATOM      6  C   UNL     1      38.164   4.899  16.285  0.00  0.00    +0.000 C 
ATOM      7  O   UNL     1      38.491   3.883  16.919  0.00  0.00    +0.000 OA
BRANCH   5  12
ATOM      8  C   UNL     1      42.632   6.558  20.727  0.00  0.00    +0.000 C 
ATOM      9  C   UNL     1      41.607   6.446  19.628  0.00  0.00    +0.000 A 
ATOM     10  C   UNL     1      40.273   6.334  19.936  0.00  0.00    +0.000 A 
ATOM     11  C   UNL     1      39.339   6.234  18.933  0.00  0.00    +0.000 A 
ATOM     12  C   UNL     1      39.698   6.242  17.615  0.00  0.00    +0.000 A 
ATOM     13  C   UNL     1      41.056   6.356  17.308  0.00  0.00    +0.000 A 
ATOM     14  C   UNL     1      41.400   6.357  15.859  0.00  0.00    +0.000 C 
ATOM     15  C   UNL     1      41.985   6.455  18.308  0.00  0.00    +0.000 A 
ENDBRANCH   5  12
ENDBRANCH   4   6
ENDBRANCH   3   4
ENDBRANCH   1   3
BRANCH   1  16
ATOM     16  C   UNL     1      36.130   1.380  14.036  0.00  0.00    +0.000 C 
BRANCH  16  17
ATOM     17  C   UNL     1      36.786   0.443  14.930  0.00  0.00    +0.000 C 
BRANCH  17  18
ATOM     18  C   UNL     1      36.168   0.000  16.151  0.00  0.00    +0.000 A 
ATOM     19  C   UNL     1      35.424  -1.167  16.133  0.00  0.00    +0.000 A 
ATOM     20  C   UNL     1      34.793  -1.669  17.265  0.00  0.00    +0.000 A 
ATOM     21  C   UNL     1      34.892  -1.006  18.461  0.00  0.00    +0.000 A 
ATOM     22  C   UNL     1      35.622   0.151  18.510  0.00  0.00    +0.000 A 
ATOM     23  C   UNL     1      36.257   0.658  17.374  0.00  0.00    +0.000 A 
ENDBRANCH  17  18
BRANCH  17  24
ATOM     24  C   UNL     1      38.077  -0.079  14.548  0.00  0.00    +0.000 A 
ATOM     25  C   UNL     1      38.826  -0.870  15.395  0.00  0.00    +0.000 A 
ATOM     26  C   UNL     1      40.047  -1.389  15.025  0.00  0.00    +0.000 A 
ATOM     27  C   UNL     1      40.563  -1.124  13.776  0.00  0.00    +0.000 A 
ATOM     28  C   UNL     1      39.812  -0.326  12.918  0.00  0.00    +0.000 A 
ATOM     29  C   UNL     1      38.593   0.186  13.300  0.00  0.00    +0.000 A 
ENDBRANCH  17  24
ENDBRANCH  16  17
ENDBRANCH   1  16
TORSDOF 8
ENDMDL
MODEL 6
REMARK VINA RESULT:      -7.9      2.214      9.430
REMARK  Name = 
REMARK  8 active torsions:
REMARK  status: ('A' for Active; 'I' for Inactive)
REMARK    1  A    between atoms: C_5  and  N_6
REMARK    2  A    between atoms: C_7  and  C_9
REMARK    3  A    between atoms: C_9  and  O_10
REMARK    4  A    between atoms: O_10  and  C_11
REMARK    5  A    between atoms: C_11  and  C_13
REMARK    6  A    between atoms: C_13  and  C_14
REMARK    7  A    between atoms: C_14  and  C_15
REMARK    8  A    between atoms: C_14  and  C_21
REMARK                            x       y       z     vdW  Elec       q    Type
REMARK                         _______ _______ _______ _____ _____    ______ ____
ROOT
ATOM      1  C   UNL     1      36.662   2.440  15.287  0.00  0.00    +0.000 C 
ATOM      2  O   UNL     1      35.595   3.029  14.970  0.00  0.00    +0.000 OA
ENDROOT
BRANCH   1   3
ATOM      3  O   UNL     1      37.429   2.984  16.291  0.00  0.00    +0.000 OA
BRANCH   3   4
ATOM      4  C   UNL     1      37.683   4.376  16.278  0.00  0.00    +0.000 C 
BRANCH   4   6
ATOM      5  N   UNL     1      39.573   5.789  17.103  0.00  0.00    +0.000 NA
ATOM      6  C   UNL     1      38.651   4.751  17.338  0.00  0.00    +0.000 C 
ATOM      7  O   UNL     1      38.635   4.145  18.420  0.00  0.00    +0.000 OA
BRANCH   5  12
ATOM      8  C   UNL     1      43.274   7.257  21.189  0.00  0.00    +0.000 C 
ATOM      9  C   UNL     1      42.300   6.866  20.106  0.00  0.00    +0.000 A 
ATOM     10  C   UNL     1      41.004   6.545  20.428  0.00  0.00    +0.000 A 
ATOM     11  C   UNL     1      40.116   6.190  19.440  0.00  0.00    +0.000 A 
ATOM     12  C   UNL     1      40.485   6.144  18.126  0.00  0.00    +0.000 A 
ATOM     13  C   UNL     1      41.806   6.471  17.807  0.00  0.00    +0.000 A 
ATOM     14  C   UNL     1      42.164   6.403  16.362  0.00  0.00    +0.000 C 
ATOM     15  C   UNL     1      42.688   6.824  18.791  0.00  0.00    +0.000 A 
ENDBRANCH   5  12
ENDBRANCH   4   6
ENDBRANCH   3   4
ENDBRANCH   1   3
BRANCH   1  16
ATOM     16  C   UNL     1      37.027   1.225  14.576  0.00  0.00    +0.000 C 
BRANCH  16  17
ATOM     17  C   UNL     1      37.410   0.042  15.326  0.00  0.00    +0.000 C 
BRANCH  17  18
ATOM     18  C   UNL     1      38.677  -0.606  15.123  0.00  0.00    +0.000 A 
ATOM     19  C   UNL     1      39.705   0.113  14.536  0.00  0.00    +0.000 A 
ATOM     20  C   UNL     1      40.961  -0.433  14.302  0.00  0.00    +0.000 A 
ATOM     21  C   UNL     1      41.225  -1.731  14.654  0.00  0.00    +0.000 A 
ATOM     22  C   UNL     1      40.229  -2.467  15.237  0.00  0.00    +0.000 A 
ATOM     23  C   UNL     1      38.965  -1.922  15.473  0.00  0.00    +0.000 A 
ENDBRANCH  17  18
BRANCH  17  24
ATOM     24  C   UNL     1      36.499  -0.460  16.327  0.00  0.00    +0.000 A 
ATOM     25  C   UNL     1      35.412  -1.244  15.999  0.00  0.00    +0.000 A 
ATOM     26  C   UNL     1      34.554  -1.745  16.953  0.00  0.00    +0.000 A 
ATOM     27  C   UNL     1      34.762  -1.467  18.286  0.00  0.00    +0.000 A 
ATOM     28  C   UNL     1      35.856  -0.676  18.623  0.00  0.00    +0.000 A 
ATOM     29  C   UNL     1      36.706  -0.182  17.659  0.00  0.00    +0.000 A 
ENDBRANCH  17  24
ENDBRANCH  16  17
ENDBRANCH   1  16
TORSDOF 8
ENDMDL
MODEL 7
REMARK VINA RESULT:      -7.9      2.407      9.045
REMARK  Name = 
REMARK  8 active torsions:
REMARK  status: ('A' for Active; 'I' for Inactive)
REMARK    1  A    between atoms: C_5  and  N_6
REMARK    2  A    between atoms: C_7  and  C_9
REMARK    3  A    between atoms: C_9  and  O_10
REMARK    4  A    between atoms: O_10  and  C_11
REMARK    5  A    between atoms: C_11  and  C_13
REMARK    6  A    between atoms: C_13  and  C_14
REMARK    7  A    between atoms: C_14  and  C_15
REMARK    8  A    between atoms: C_14  and  C_21
REMARK                            x       y       z     vdW  Elec       q    Type
REMARK                         _______ _______ _______ _____ _____    ______ ____
ROOT
ATOM      1  C   UNL     1      37.476   1.680  13.342  0.00  0.00    +0.000 C 
ATOM      2  O   UNL     1      38.120   2.034  12.319  0.00  0.00    +0.000 OA
ENDROOT
BRANCH   1   3
ATOM      3  O   UNL     1      37.503   2.505  14.443  0.00  0.00    +0.000 OA
BRANCH   3   4
ATOM      4  C   UNL     1      38.735   3.084  14.830  0.00  0.00    +0.000 C 
BRANCH   4   6
ATOM      5  N   UNL     1      39.334   5.121  16.151  0.00  0.00    +0.000 NA
ATOM      6  C   UNL     1      38.565   3.947  16.025  0.00  0.00    +0.000 C 
ATOM      7  O   UNL     1      37.746   3.624  16.899  0.00  0.00    +0.000 OA
BRANCH   5  12
ATOM      8  C   UNL     1      38.563   8.434  20.730  0.00  0.00    +0.000 C 
ATOM      9  C   UNL     1      38.767   7.564  19.517  0.00  0.00    +0.000 A 
ATOM     10  C   UNL     1      39.560   6.444  19.596  0.00  0.00    +0.000 A 
ATOM     11  C   UNL     1      39.744   5.650  18.490  0.00  0.00    +0.000 A 
ATOM     12  C   UNL     1      39.156   5.941  17.292  0.00  0.00    +0.000 A 
ATOM     13  C   UNL     1      38.352   7.081  17.218  0.00  0.00    +0.000 A 
ATOM     14  C   UNL     1      37.734   7.360  15.891  0.00  0.00    +0.000 C 
ATOM     15  C   UNL     1      38.169   7.871  18.320  0.00  0.00    +0.000 A 
ENDBRANCH   5  12
ENDBRANCH   4   6
ENDBRANCH   3   4
ENDBRANCH   1   3
BRANCH   1  16
ATOM     16  C   UNL     1      36.744   0.424  13.307  0.00  0.00    +0.000 C 
BRANCH  16  17
ATOM     17  C   UNL     1      37.043  -0.610  14.282  0.00  0.00    +0.000 C 
BRANCH  17  18
ATOM     18  C   UNL     1      36.110  -0.972  15.313  0.00  0.00    +0.000 A 
ATOM     19  C   UNL     1      35.643   0.016  16.163  0.00  0.00    +0.000 A 
ATOM     20  C   UNL     1      34.738  -0.244  17.186  0.00  0.00    +0.000 A 
ATOM     21  C   UNL     1      34.272  -1.517  17.387  0.00  0.00    +0.000 A 
ATOM     22  C   UNL     1      34.715  -2.515  16.562  0.00  0.00    +0.000 A 
ATOM     23  C   UNL     1      35.624  -2.258  15.533  0.00  0.00    +0.000 A 
ENDBRANCH  17  18
BRANCH  17  24
ATOM     24  C   UNL     1      38.302  -1.310  14.173  0.00  0.00    +0.000 A 
ATOM     25  C   UNL     1      38.609  -2.097  13.083  0.00  0.00    +0.000 A 
ATOM     26  C   UNL     1      39.818  -2.747  12.964  0.00  0.00    +0.000 A 
ATOM     27  C   UNL     1      40.769  -2.627  13.953  0.00  0.00    +0.000 A 
ATOM     28  C   UNL     1      40.464  -1.835  15.055  0.00  0.00    +0.000 A 
ATOM     29  C   UNL     1      39.252  -1.189  15.161  0.00  0.00    +0.000 A 
ENDBRANCH  17  24
ENDBRANCH  16  17
ENDBRANCH   1  16
TORSDOF 8
ENDMDL
MODEL 8
REMARK VINA RESULT:      -7.8      2.719      8.433
REMARK  Name = 
REMARK  8 active torsions:
REMARK  status: ('A' for Active; 'I' for Inactive)
REMARK    1  A    between atoms: C_5  and  N_6
REMARK    2  A    between atoms: C_7  and  C_9
REMARK    3  A    between atoms: C_9  and  O_10
REMARK    4  A    between atoms: O_10  and  C_11
REMARK    5  A    between atoms: C_11  and  C_13
REMARK    6  A    between atoms: C_13  and  C_14
REMARK    7  A    between atoms: C_14  and  C_15
REMARK    8  A    between atoms: C_14  and  C_21
REMARK                            x       y       z     vdW  Elec       q    Type
REMARK                         _______ _______ _______ _____ _____    ______ ____
ROOT
ATOM      1  C   UNL     1      37.658   1.521  12.037  0.00  0.00    +0.000 C 
ATOM      2  O   UNL     1      38.171   1.049  10.988  0.00  0.00    +0.000 OA
ENDROOT
BRANCH   1   3
ATOM      3  O   UNL     1      38.084   2.756  12.469  0.00  0.00    +0.000 OA
BRANCH   3   4
ATOM      4  C   UNL     1      37.117   3.716  12.852  0.00  0.00    +0.000 C 
BRANCH   4   6
ATOM      5  N   UNL     1      38.624   3.912  14.837  0.00  0.00    +0.000 NA
ATOM      6  C   UNL     1      37.483   4.354  14.140  0.00  0.00    +0.000 C 
ATOM      7  O   UNL     1      36.778   5.271  14.589  0.00  0.00    +0.000 OA
BRANCH   5  12
ATOM      8  C   UNL     1      40.020   6.472  19.740  0.00  0.00    +0.000 C 
ATOM      9  C   UNL     1      39.657   5.795  18.443  0.00  0.00    +0.000 A 
ATOM     10  C   UNL     1      38.657   4.854  18.412  0.00  0.00    +0.000 A 
ATOM     11  C   UNL     1      38.326   4.239  17.229  0.00  0.00    +0.000 A 
ATOM     12  C   UNL     1      38.968   4.535  16.061  0.00  0.00    +0.000 A 
ATOM     13  C   UNL     1      39.985   5.493  16.100  0.00  0.00    +0.000 A 
ATOM     14  C   UNL     1      40.660   5.782  14.803  0.00  0.00    +0.000 C 
ATOM     15  C   UNL     1      40.314   6.105  17.278  0.00  0.00    +0.000 A 
ENDBRANCH   5  12
ENDBRANCH   4   6
ENDBRANCH   3   4
ENDBRANCH   1   3
BRANCH   1  16
ATOM     16  C   UNL     1      36.648   0.740  12.734  0.00  0.00    +0.000 C 
BRANCH  16  17
ATOM     17  C   UNL     1      36.990   0.067  13.974  0.00  0.00    +0.000 C 
BRANCH  17  18
ATOM     18  C   UNL     1      36.209   0.239  15.169  0.00  0.00    +0.000 A 
ATOM     19  C   UNL     1      36.041  -0.845  16.013  0.00  0.00    +0.000 A 
ATOM     20  C   UNL     1      35.303  -0.770  17.189  0.00  0.00    +0.000 A 
ATOM     21  C   UNL     1      34.707   0.409  17.555  0.00  0.00    +0.000 A 
ATOM     22  C   UNL     1      34.856   1.498  16.740  0.00  0.00    +0.000 A 
ATOM     23  C   UNL     1      35.596   1.426  15.557  0.00  0.00    +0.000 A 
ENDBRANCH  17  18
BRANCH  17  24
ATOM     24  C   UNL     1      38.125  -0.826  13.979  0.00  0.00    +0.000 A 
ATOM     25  C   UNL     1      39.264  -0.556  14.709  0.00  0.00    +0.000 A 
ATOM     26  C   UNL     1      40.339  -1.417  14.735  0.00  0.00    +0.000 A 
ATOM     27  C   UNL     1      40.304  -2.591  14.017  0.00  0.00    +0.000 A 
ATOM     28  C   UNL     1      39.158  -2.868  13.279  0.00  0.00    +0.000 A 
ATOM     29  C   UNL     1      38.090  -2.000  13.262  0.00  0.00    +0.000 A 
ENDBRANCH  17  24
ENDBRANCH  16  17
ENDBRANCH   1  16
TORSDOF 8
ENDMDL
MODEL 9
REMARK VINA RESULT:      -7.8      2.783      9.271
REMARK  Name = 
REMARK  8 active torsions:
REMARK  status: ('A' for Active; 'I' for Inactive)
REMARK    1  A    between atoms: C_5  and  N_6
REMARK    2  A    between atoms: C_7  and  C_9
REMARK    3  A    between atoms: C_9  and  O_10
REMARK    4  A    between atoms: O_10  and  C_11
REMARK    5  A    between atoms: C_11  and  C_13
REMARK    6  A    between atoms: C_13  and  C_14
REMARK    7  A    between atoms: C_14  and  C_15
REMARK    8  A    between atoms: C_14  and  C_21
REMARK                            x       y       z     vdW  Elec       q    Type
REMARK                         _______ _______ _______ _____ _____    ______ ____
ROOT
ATOM      1  C   UNL     1      37.453   1.734  12.233  0.00  0.00    +0.000 C 
ATOM      2  O   UNL     1      38.058   1.606  11.136  0.00  0.00    +0.000 OA
ENDROOT
BRANCH   1   3
ATOM      3  O   UNL     1      37.586   2.924  12.911  0.00  0.00    +0.000 OA
BRANCH   3   4
ATOM      4  C   UNL     1      38.871   3.508  13.017  0.00  0.00    +0.000 C 
BRANCH   4   6
ATOM      5  N   UNL     1      39.366   5.176  14.813  0.00  0.00    +0.000 NA
ATOM      6  C   UNL     1      39.193   3.832  14.429  0.00  0.00    +0.000 C 
ATOM      7  O   UNL     1      39.305   2.914  15.255  0.00  0.00    +0.000 OA
BRANCH   5  12
ATOM      8  C   UNL     1      40.593   6.422  20.243  0.00  0.00    +0.000 C 
ATOM      9  C   UNL     1      40.274   6.091  18.807  0.00  0.00    +0.000 A 
ATOM     10  C   UNL     1      39.087   5.479  18.487  0.00  0.00    +0.000 A 
ATOM     11  C   UNL     1      38.796   5.180  17.178  0.00  0.00    +0.000 A 
ATOM     12  C   UNL     1      39.664   5.473  16.165  0.00  0.00    +0.000 A 
ATOM     13  C   UNL     1      40.871   6.094  16.497  0.00  0.00    +0.000 A 
ATOM     14  C   UNL     1      41.787   6.392  15.360  0.00  0.00    +0.000 C 
ATOM     15  C   UNL     1      41.158   6.393  17.801  0.00  0.00    +0.000 A 
ENDBRANCH   5  12
ENDBRANCH   4   6
ENDBRANCH   3   4
ENDBRANCH   1   3
BRANCH   1  16
ATOM     16  C   UNL     1      36.652   0.625  12.724  0.00  0.00    +0.000 C 
BRANCH  16  17
ATOM     17  C   UNL     1      37.072  -0.093  13.914  0.00  0.00    +0.000 C 
BRANCH  17  18
ATOM     18  C   UNL     1      38.302  -0.836  13.956  0.00  0.00    +0.000 A 
ATOM     19  C   UNL     1      38.446  -1.931  13.121  0.00  0.00    +0.000 A 
ATOM     20  C   UNL     1      39.600  -2.706  13.095  0.00  0.00    +0.000 A 
ATOM     21  C   UNL     1      40.655  -2.400  13.915  0.00  0.00    +0.000 A 
ATOM     22  C   UNL     1      40.543  -1.322  14.751  0.00  0.00    +0.000 A 
ATOM     23  C   UNL     1      39.384  -0.541  14.781  0.00  0.00    +0.000 A 
ENDBRANCH  17  18
BRANCH  17  24
ATOM     24  C   UNL     1      36.239  -0.016  15.091  0.00  0.00    +0.000 A 
ATOM     25  C   UNL     1      35.815  -1.144  15.763  0.00  0.00    +0.000 A 
ATOM     26  C   UNL     1      35.040  -1.073  16.899  0.00  0.00    +0.000 A 
ATOM     27  C   UNL     1      34.660   0.150  17.403  0.00  0.00    +0.000 A 
ATOM     28  C   UNL     1      35.084   1.292  16.729  0.00  0.00    +0.000 A 
ATOM     29  C   UNL     1      35.859   1.207  15.595  0.00  0.00    +0.000 A 
ENDBRANCH  17  24
ENDBRANCH  16  17
ENDBRANCH   1  16
TORSDOF 8
ENDMDL
MODEL 10
REMARK VINA RESULT:      -7.7      2.607      8.685
REMARK  Name = 
REMARK  8 active torsions:
REMARK  status: ('A' for Active; 'I' for Inactive)
REMARK    1  A    between atoms: C_5  and  N_6
REMARK    2  A    between atoms: C_7  and  C_9
REMARK    3  A    between atoms: C_9  and  O_10
REMARK    4  A    between atoms: O_10  and  C_11
REMARK    5  A    between atoms: C_11  and  C_13
REMARK    6  A    between atoms: C_13  and  C_14
REMARK    7  A    between atoms: C_14  and  C_15
REMARK    8  A    between atoms: C_14  and  C_21
REMARK                            x       y       z     vdW  Elec       q    Type
REMARK                         _______ _______ _______ _____ _____    ______ ____
ROOT
ATOM      1  C   UNL     1      39.015  -0.035  12.853  0.00  0.00    +0.000 C 
ATOM      2  O   UNL     1      39.877  -0.902  13.158  0.00  0.00    +0.000 OA
ENDROOT
BRANCH   1   3
ATOM      3  O   UNL     1      39.455   1.207  12.457  0.00  0.00    +0.000 OA
BRANCH   3   4
ATOM      4  C   UNL     1      38.669   2.341  12.772  0.00  0.00    +0.000 C 
BRANCH   4   6
ATOM      5  N   UNL     1      38.631   4.183  14.461  0.00  0.00    +0.000 NA
ATOM      6  C   UNL     1      39.019   2.876  14.111  0.00  0.00    +0.000 C 
ATOM      7  O   UNL     1      39.649   2.163  14.907  0.00  0.00    +0.000 OA
BRANCH   5  12
ATOM      8  C   UNL     1      39.981   6.231  19.611  0.00  0.00    +0.000 C 
ATOM      9  C   UNL     1      39.630   5.689  18.249  0.00  0.00    +0.000 A 
ATOM     10  C   UNL     1      38.548   4.857  18.096  0.00  0.00    +0.000 A 
ATOM     11  C   UNL     1      38.228   4.365  16.854  0.00  0.00    +0.000 A 
ATOM     12  C   UNL     1      38.962   4.679  15.745  0.00  0.00    +0.000 A 
ATOM     13  C   UNL     1      40.062   5.526  15.909  0.00  0.00    +0.000 A 
ATOM     14  C   UNL     1      40.834   5.838  14.674  0.00  0.00    +0.000 C 
ATOM     15  C   UNL     1      40.379   6.015  17.146  0.00  0.00    +0.000 A 
ENDBRANCH   5  12
ENDBRANCH   4   6
ENDBRANCH   3   4
ENDBRANCH   1   3
BRANCH   1  16
ATOM     16  C   UNL     1      37.607  -0.390  12.938  0.00  0.00    +0.000 C 
BRANCH  16  17
ATOM     17  C   UNL     1      36.995  -0.596  14.238  0.00  0.00    +0.000 C 
BRANCH  17  18
ATOM     18  C   UNL     1      36.261   0.446  14.903  0.00  0.00    +0.000 A 
ATOM     19  C   UNL     1      36.076   0.358  16.272  0.00  0.00    +0.000 A 
ATOM     20  C   UNL     1      35.381   1.319  16.997  0.00  0.00    +0.000 A 
ATOM     21  C   UNL     1      34.846   2.409  16.360  0.00  0.00    +0.000 A 
ATOM     22  C   UNL     1      35.013   2.524  15.006  0.00  0.00    +0.000 A 
ATOM     23  C   UNL     1      35.711   1.560  14.275  0.00  0.00    +0.000 A 
ENDBRANCH  17  18
BRANCH  17  24
ATOM     24  C   UNL     1      37.102  -1.900  14.847  0.00  0.00    +0.000 A 
ATOM     25  C   UNL     1      38.103  -2.209  15.745  0.00  0.00    +0.000 A 
ATOM     26  C   UNL     1      38.194  -3.445  16.346  0.00  0.00    +0.000 A 
ATOM     27  C   UNL     1      37.270  -4.425  16.058  0.00  0.00    +0.000 A 
ATOM     28  C   UNL     1      36.259  -4.120  15.153  0.00  0.00    +0.000 A 
ATOM     29  C   UNL     1      36.179  -2.880  14.560  0.00  0.00    +0.000 A 
ENDBRANCH  17  24
ENDBRANCH  16  17
ENDBRANCH   1  16
TORSDOF 8
ENDMDL
