MODEL 1
REMARK VINA RESULT:      -7.4      0.000      0.000
REMARK  Name = 
REMARK  8 active torsions:
REMARK  status: ('A' for Active; 'I' for Inactive)
REMARK    1  A    between atoms: C_2  and  C_3
REMARK    2  A    between atoms: C_3  and  N_4
REMARK    3  A    between atoms: C_5  and  C_6
REMARK    4  A    between atoms: C_6  and  C_8
REMARK    5  A    between atoms: C_11  and  O_12
REMARK    6  A    between atoms: O_12  and  C_13
REMARK    7  A    between atoms: C_13  and  C_14
REMARK    8  A    between atoms: C_20  and  O_21
REMARK                            x       y       z     vdW  Elec       q    Type
REMARK                         _______ _______ _______ _____ _____    ______ ____
ROOT
ATOM      1  C   UNL     1      36.466   2.632  15.953  0.00  0.00    +0.000 A 
ATOM      2  C   UNL     1      36.997   2.744  17.199  0.00  0.00    +0.000 A 
ATOM      3  C   UNL     1      37.681   3.915  17.481  0.00  0.00    +0.000 A 
ATOM      4  C   UNL     1      37.816   4.924  16.537  0.00  0.00    +0.000 A 
ATOM      5  C   UNL     1      37.258   4.765  15.282  0.00  0.00    +0.000 A 
ATOM      6  C   UNL     1      36.576   3.600  14.999  0.00  0.00    +0.000 A 
ENDROOT
BRANCH   1   7
ATOM      7  C   UNL     1      35.674   1.297  15.568  0.00  0.00    +0.000 C 
ATOM      8  O   UNL     1      35.572   1.619  14.099  0.00  0.00    +0.000 OA
BRANCH   7  10
ATOM      9  N   UNL     1      37.039  -0.767  16.169  0.00  0.00    +0.000 N 
ATOM     10  C   UNL     1      36.904   0.337  15.443  0.00  0.00    +0.000 A 
ATOM     11  N   UNL     1      37.949   0.441  14.664  0.00  0.00    +0.000 NA
ATOM     12  C   UNL     1      38.796  -0.612  14.875  0.00  0.00    +0.000 A 
ATOM     13  C   UNL     1      40.007  -0.997  14.347  0.00  0.00    +0.000 A 
ATOM     14  C   UNL     1      40.603  -2.159  14.806  0.00  0.00    +0.000 A 
ATOM     15  C   UNL     1      40.031  -2.951  15.777  0.00  0.00    +0.000 A 
ATOM     16  C   UNL     1      38.819  -2.551  16.294  0.00  0.00    +0.000 A 
ATOM     17  C   UNL     1      38.205  -1.396  15.852  0.00  0.00    +0.000 A 
BRANCH   9  18
ATOM     18  C   UNL     1      36.134  -1.304  17.173  0.00  0.00    +0.000 C 
BRANCH  18  20
ATOM     19  C   UNL     1      35.679   0.006  19.167  0.00  0.00    +0.000 C 
ATOM     20  C   UNL     1      36.587  -1.045  18.577  0.00  0.00    +0.000 C 
ENDBRANCH  18  20
ENDBRANCH   9  18
ENDBRANCH   7  10
ENDBRANCH   1   7
BRANCH   5  21
ATOM     21  O   UNL     1      37.383   5.769  14.318  0.00  0.00    +0.000 OA
ATOM     22  C   UNL     1      36.975   5.529  13.003  0.00  0.00    +0.000 C 
ENDBRANCH   5  21
BRANCH   4  23
ATOM     23  O   UNL     1      38.487   6.097  16.781  0.00  0.00    +0.000 OA
BRANCH  23  24
ATOM     24  C   UNL     1      38.545   6.641  18.109  0.00  0.00    +0.000 C 
BRANCH  24  25
ATOM     25  C   UNL     1      39.984   6.601  18.582  0.00  0.00    +0.000 A 
ATOM     26  C   UNL     1      41.021   6.580  17.684  0.00  0.00    +0.000 A 
ATOM     27  C   UNL     1      42.309   6.545  18.149  0.00  0.00    +0.000 A 
ATOM     28  C   UNL     1      42.638   6.527  19.486  0.00  0.00    +0.000 A 
ATOM     29  C   UNL     1      41.572   6.548  20.363  0.00  0.00    +0.000 A 
ATOM     30  C   UNL     1      40.273   6.585  19.925  0.00  0.00    +0.000 A 
ENDBRANCH  24  25
ENDBRANCH  23  24
ENDBRANCH   4  23
TORSDOF 8
ENDMDL
MODEL 2
REMARK VINA RESULT:      -7.4      1.501      2.094
REMARK  Name = 
REMARK  8 active torsions:
REMARK  status: ('A' for Active; 'I' for Inactive)
REMARK    1  A    between atoms: C_2  and  C_3
REMARK    2  A    between atoms: C_3  and  N_4
REMARK    3  A    between atoms: C_5  and  C_6
REMARK    4  A    between atoms: C_6  and  C_8
REMARK    5  A    between atoms: C_11  and  O_12
REMARK    6  A    between atoms: O_12  and  C_13
REMARK    7  A    between atoms: C_13  and  C_14
REMARK    8  A    between atoms: C_20  and  O_21
REMARK                            x       y       z     vdW  Elec       q    Type
REMARK                         _______ _______ _______ _____ _____    ______ ____
ROOT
ATOM      1  C   UNL     1      37.192   2.725  15.270  0.00  0.00    +0.000 A 
ATOM      2  C   UNL     1      36.811   3.122  16.513  0.00  0.00    +0.000 A 
ATOM      3  C   UNL     1      37.582   4.101  17.117  0.00  0.00    +0.000 A 
ATOM      4  C   UNL     1      38.688   4.650  16.484  0.00  0.00    +0.000 A 
ATOM      5  C   UNL     1      39.037   4.215  15.219  0.00  0.00    +0.000 A 
ATOM      6  C   UNL     1      38.271   3.240  14.614  0.00  0.00    +0.000 A 
ENDROOT
BRANCH   1   7
ATOM      7  C   UNL     1      36.345   1.589  14.527  0.00  0.00    +0.000 C 
ATOM      8  O   UNL     1      36.989   1.799  13.180  0.00  0.00    +0.000 OA
BRANCH   7  10
ATOM      9  N   UNL     1      36.887  -0.467  15.927  0.00  0.00    +0.000 N 
ATOM     10  C   UNL     1      37.217   0.356  14.939  0.00  0.00    +0.000 A 
ATOM     11  N   UNL     1      38.349  -0.053  14.429  0.00  0.00    +0.000 NA
ATOM     12  C   UNL     1      38.782  -1.171  15.088  0.00  0.00    +0.000 A 
ATOM     13  C   UNL     1      39.877  -1.995  14.974  0.00  0.00    +0.000 A 
ATOM     14  C   UNL     1      40.003  -3.073  15.835  0.00  0.00    +0.000 A 
ATOM     15  C   UNL     1      39.070  -3.355  16.808  0.00  0.00    +0.000 A 
ATOM     16  C   UNL     1      37.980  -2.519  16.908  0.00  0.00    +0.000 A 
ATOM     17  C   UNL     1      37.833  -1.439  16.061  0.00  0.00    +0.000 A 
BRANCH   9  18
ATOM     18  C   UNL     1      35.717  -0.420  16.790  0.00  0.00    +0.000 C 
BRANCH  18  20
ATOM     19  C   UNL     1      35.642  -0.599  19.211  0.00  0.00    +0.000 C 
ATOM     20  C   UNL     1      35.951   0.332  18.063  0.00  0.00    +0.000 C 
ENDBRANCH  18  20
ENDBRANCH   9  18
ENDBRANCH   7  10
ENDBRANCH   1   7
BRANCH   5  21
ATOM     21  O   UNL     1      40.148   4.755  14.564  0.00  0.00    +0.000 OA
ATOM     22  C   UNL     1      39.970   5.560  13.436  0.00  0.00    +0.000 C 
ENDBRANCH   5  21
BRANCH   4  23
ATOM     23  O   UNL     1      39.475   5.621  17.052  0.00  0.00    +0.000 OA
BRANCH  23  24
ATOM     24  C   UNL     1      39.739   5.611  18.465  0.00  0.00    +0.000 C 
BRANCH  24  25
ATOM     25  C   UNL     1      39.043   6.802  19.092  0.00  0.00    +0.000 A 
ATOM     26  C   UNL     1      37.968   7.394  18.477  0.00  0.00    +0.000 A 
ATOM     27  C   UNL     1      37.365   8.469  19.075  0.00  0.00    +0.000 A 
ATOM     28  C   UNL     1      37.775   9.006  20.275  0.00  0.00    +0.000 A 
ATOM     29  C   UNL     1      38.858   8.388  20.866  0.00  0.00    +0.000 A 
ATOM     30  C   UNL     1      39.481   7.309  20.291  0.00  0.00    +0.000 A 
ENDBRANCH  24  25
ENDBRANCH  23  24
ENDBRANCH   4  23
TORSDOF 8
ENDMDL
MODEL 3
REMARK VINA RESULT:      -7.2      2.853      8.500
REMARK  Name = 
REMARK  8 active torsions:
REMARK  status: ('A' for Active; 'I' for Inactive)
REMARK    1  A    between atoms: C_2  and  C_3
REMARK    2  A    between atoms: C_3  and  N_4
REMARK    3  A    between atoms: C_5  and  C_6
REMARK    4  A    between atoms: C_6  and  C_8
REMARK    5  A    between atoms: C_11  and  O_12
REMARK    6  A    between atoms: O_12  and  C_13
REMARK    7  A    between atoms: C_13  and  C_14
REMARK    8  A    between atoms: C_20  and  O_21
REMARK                            x       y       z     vdW  Elec       q    Type
REMARK                         _______ _______ _______ _____ _____    ______ ____
ROOT
ATOM      1  C   UNL     1      36.434   1.373  15.438  0.00  0.00    +0.000 A 
ATOM      2  C   UNL     1      37.553   0.821  14.899  0.00  0.00    +0.000 A 
ATOM      3  C   UNL     1      37.890  -0.451  15.331  0.00  0.00    +0.000 A 
ATOM      4  C   UNL     1      37.122  -1.127  16.268  0.00  0.00    +0.000 A 
ATOM      5  C   UNL     1      35.991  -0.526  16.789  0.00  0.00    +0.000 A 
ATOM      6  C   UNL     1      35.653   0.740  16.360  0.00  0.00    +0.000 A 
ENDROOT
BRANCH   1   7
ATOM      7  C   UNL     1      36.001   2.844  14.984  0.00  0.00    +0.000 C 
ATOM      8  O   UNL     1      34.914   2.991  16.018  0.00  0.00    +0.000 OA
BRANCH   7  10
ATOM      9  N   UNL     1      38.011   4.395  15.173  0.00  0.00    +0.000 N 
ATOM     10  C   UNL     1      37.090   3.649  15.771  0.00  0.00    +0.000 A 
ATOM     11  N   UNL     1      37.280   3.723  17.062  0.00  0.00    +0.000 NA
ATOM     12  C   UNL     1      38.349   4.533  17.331  0.00  0.00    +0.000 A 
ATOM     13  C   UNL     1      38.976   4.953  18.481  0.00  0.00    +0.000 A 
ATOM     14  C   UNL     1      40.066   5.801  18.384  0.00  0.00    +0.000 A 
ATOM     15  C   UNL     1      40.552   6.245  17.174  0.00  0.00    +0.000 A 
ATOM     16  C   UNL     1      39.912   5.815  16.033  0.00  0.00    +0.000 A 
ATOM     17  C   UNL     1      38.824   4.969  16.105  0.00  0.00    +0.000 A 
BRANCH   9  18
ATOM     18  C   UNL     1      38.204   4.626  13.750  0.00  0.00    +0.000 C 
BRANCH  18  20
ATOM     19  C   UNL     1      38.452   2.978  11.984  0.00  0.00    +0.000 C 
ATOM     20  C   UNL     1      39.167   3.667  13.121  0.00  0.00    +0.000 C 
ENDBRANCH  18  20
ENDBRANCH   9  18
ENDBRANCH   7  10
ENDBRANCH   1   7
BRANCH   5  21
ATOM     21  O   UNL     1      35.206  -1.191  17.734  0.00  0.00    +0.000 OA
ATOM     22  C   UNL     1      33.965  -1.717  17.365  0.00  0.00    +0.000 C 
ENDBRANCH   5  21
BRANCH   4  23
ATOM     23  O   UNL     1      37.427  -2.388  16.721  0.00  0.00    +0.000 OA
BRANCH  23  24
ATOM     24  C   UNL     1      37.710  -3.447  15.791  0.00  0.00    +0.000 C 
BRANCH  24  25
ATOM     25  C   UNL     1      36.429  -4.214  15.532  0.00  0.00    +0.000 A 
ATOM     26  C   UNL     1      35.506  -3.759  14.625  0.00  0.00    +0.000 A 
ATOM     27  C   UNL     1      34.359  -4.480  14.418  0.00  0.00    +0.000 A 
ATOM     28  C   UNL     1      34.067  -5.655  15.075  0.00  0.00    +0.000 A 
ATOM     29  C   UNL     1      35.016  -6.085  15.980  0.00  0.00    +0.000 A 
ATOM     30  C   UNL     1      36.173  -5.384  16.207  0.00  0.00    +0.000 A 
ENDBRANCH  24  25
ENDBRANCH  23  24
ENDBRANCH   4  23
TORSDOF 8
ENDMDL
MODEL 4
REMARK VINA RESULT:      -7.1      1.985      3.077
REMARK  Name = 
REMARK  8 active torsions:
REMARK  status: ('A' for Active; 'I' for Inactive)
REMARK    1  A    between atoms: C_2  and  C_3
REMARK    2  A    between atoms: C_3  and  N_4
REMARK    3  A    between atoms: C_5  and  C_6
REMARK    4  A    between atoms: C_6  and  C_8
REMARK    5  A    between atoms: C_11  and  O_12
REMARK    6  A    between atoms: O_12  and  C_13
REMARK    7  A    between atoms: C_13  and  C_14
REMARK    8  A    between atoms: C_20  and  O_21
REMARK                            x       y       z     vdW  Elec       q    Type
REMARK                         _______ _______ _______ _____ _____    ______ ____
ROOT
ATOM      1  C   UNL     1      38.234   4.563  16.054  0.00  0.00    +0.000 A 
ATOM      2  C   UNL     1      38.069   4.284  17.373  0.00  0.00    +0.000 A 
ATOM      3  C   UNL     1      38.943   4.900  18.254  0.00  0.00    +0.000 A 
ATOM      4  C   UNL     1      39.937   5.759  17.809  0.00  0.00    +0.000 A 
ATOM      5  C   UNL     1      40.067   6.014  16.456  0.00  0.00    +0.000 A 
ATOM      6  C   UNL     1      39.198   5.402  15.577  0.00  0.00    +0.000 A 
ENDROOT
BRANCH   1   7
ATOM      7  C   UNL     1      37.260   3.872  14.989  0.00  0.00    +0.000 C 
ATOM      8  O   UNL     1      37.938   4.464  13.780  0.00  0.00    +0.000 OA
BRANCH   7  10
ATOM      9  N   UNL     1      37.331   1.330  15.113  0.00  0.00    +0.000 N 
ATOM     10  C   UNL     1      37.968   2.478  14.911  0.00  0.00    +0.000 A 
ATOM     11  N   UNL     1      39.223   2.209  14.660  0.00  0.00    +0.000 NA
ATOM     12  C   UNL     1      39.426   0.857  14.694  0.00  0.00    +0.000 A 
ATOM     13  C   UNL     1      40.519   0.041  14.508  0.00  0.00    +0.000 A 
ATOM     14  C   UNL     1      40.362  -1.330  14.620  0.00  0.00    +0.000 A 
ATOM     15  C   UNL     1      39.150  -1.915  14.912  0.00  0.00    +0.000 A 
ATOM     16  C   UNL     1      38.067  -1.083  15.094  0.00  0.00    +0.000 A 
ATOM     17  C   UNL     1      38.199   0.287  14.988  0.00  0.00    +0.000 A 
BRANCH   9  18
ATOM     18  C   UNL     1      35.927   1.118  15.423  0.00  0.00    +0.000 C 
BRANCH  18  20
ATOM     19  C   UNL     1      34.748  -0.169  17.112  0.00  0.00    +0.000 C 
ATOM     20  C   UNL     1      35.654   1.019  16.893  0.00  0.00    +0.000 C 
ENDBRANCH  18  20
ENDBRANCH   9  18
ENDBRANCH   7  10
ENDBRANCH   1   7
BRANCH   5  21
ATOM     21  O   UNL     1      41.063   6.876  15.989  0.00  0.00    +0.000 OA
ATOM     22  C   UNL     1      42.199   6.356  15.362  0.00  0.00    +0.000 C 
ENDBRANCH   5  21
BRANCH   4  23
ATOM     23  O   UNL     1      40.822   6.386  18.652  0.00  0.00    +0.000 OA
BRANCH  23  24
ATOM     24  C   UNL     1      40.520   6.529  20.050  0.00  0.00    +0.000 C 
BRANCH  24  25
ATOM     25  C   UNL     1      39.950   7.914  20.279  0.00  0.00    +0.000 A 
ATOM     26  C   UNL     1      40.766   9.018  20.297  0.00  0.00    +0.000 A 
ATOM     27  C   UNL     1      40.214  10.254  20.506  0.00  0.00    +0.000 A 
ATOM     28  C   UNL     1      38.868  10.467  20.705  0.00  0.00    +0.000 A 
ATOM     29  C   UNL     1      38.076   9.337  20.680  0.00  0.00    +0.000 A 
ATOM     30  C   UNL     1      38.601   8.086  20.472  0.00  0.00    +0.000 A 
ENDBRANCH  24  25
ENDBRANCH  23  24
ENDBRANCH   4  23
TORSDOF 8
ENDMDL
MODEL 5
REMARK VINA RESULT:      -7.0      2.471      7.581
REMARK  Name = 
REMARK  8 active torsions:
REMARK  status: ('A' for Active; 'I' for Inactive)
REMARK    1  A    between atoms: C_2  and  C_3
REMARK    2  A    between atoms: C_3  and  N_4
REMARK    3  A    between atoms: C_5  and  C_6
REMARK    4  A    between atoms: C_6  and  C_8
REMARK    5  A    between atoms: C_11  and  O_12
REMARK    6  A    between atoms: O_12  and  C_13
REMARK    7  A    between atoms: C_13  and  C_14
REMARK    8  A    between atoms: C_20  and  O_21
REMARK                            x       y       z     vdW  Elec       q    Type
REMARK                         _______ _______ _______ _____ _____    ______ ____
ROOT
ATOM      1  C   UNL     1      35.668   1.533  14.818  0.00  0.00    +0.000 A 
ATOM      2  C   UNL     1      36.462   1.062  13.820  0.00  0.00    +0.000 A 
ATOM      3  C   UNL     1      36.884  -0.253  13.929  0.00  0.00    +0.000 A 
ATOM      4  C   UNL     1      36.514  -1.049  15.004  0.00  0.00    +0.000 A 
ATOM      5  C   UNL     1      35.705  -0.526  15.996  0.00  0.00    +0.000 A 
ATOM      6  C   UNL     1      35.283   0.783  15.890  0.00  0.00    +0.000 A 
ENDROOT
BRANCH   1   7
ATOM      7  C   UNL     1      35.159   3.048  14.751  0.00  0.00    +0.000 C 
ATOM      8  O   UNL     1      34.259   2.942  15.956  0.00  0.00    +0.000 OA
BRANCH   7  10
ATOM      9  N   UNL     1      37.221   4.533  14.900  0.00  0.00    +0.000 N 
ATOM     10  C   UNL     1      36.360   3.720  15.499  0.00  0.00    +0.000 A 
ATOM     11  N   UNL     1      36.712   3.605  16.753  0.00  0.00    +0.000 NA
ATOM     12  C   UNL     1      37.828   4.357  16.995  0.00  0.00    +0.000 A 
ATOM     13  C   UNL     1      38.606   4.601  18.104  0.00  0.00    +0.000 A 
ATOM     14  C   UNL     1      39.699   5.442  17.988  0.00  0.00    +0.000 A 
ATOM     15  C   UNL     1      40.044   6.049  16.801  0.00  0.00    +0.000 A 
ATOM     16  C   UNL     1      39.255   5.794  15.701  0.00  0.00    +0.000 A 
ATOM     17  C   UNL     1      38.159   4.959  15.792  0.00  0.00    +0.000 A 
BRANCH   9  18
ATOM     18  C   UNL     1      37.242   4.963  13.511  0.00  0.00    +0.000 C 
BRANCH  18  20
ATOM     19  C   UNL     1      37.376   3.707  11.436  0.00  0.00    +0.000 C 
ATOM     20  C   UNL     1      38.157   4.145  12.652  0.00  0.00    +0.000 C 
ENDBRANCH  18  20
ENDBRANCH   9  18
ENDBRANCH   7  10
ENDBRANCH   1   7
BRANCH   5  21
ATOM     21  O   UNL     1      35.322  -1.311  17.086  0.00  0.00    +0.000 OA
ATOM     22  C   UNL     1      33.968  -1.568  17.321  0.00  0.00    +0.000 C 
ENDBRANCH   5  21
BRANCH   4  23
ATOM     23  O   UNL     1      36.914  -2.355  15.145  0.00  0.00    +0.000 OA
BRANCH  23  24
ATOM     24  C   UNL     1      38.294  -2.672  15.388  0.00  0.00    +0.000 C 
BRANCH  24  25
ATOM     25  C   UNL     1      38.438  -3.112  16.831  0.00  0.00    +0.000 A 
ATOM     26  C   UNL     1      38.453  -2.193  17.850  0.00  0.00    +0.000 A 
ATOM     27  C   UNL     1      38.585  -2.629  19.143  0.00  0.00    +0.000 A 
ATOM     28  C   UNL     1      38.707  -3.956  19.493  0.00  0.00    +0.000 A 
ATOM     29  C   UNL     1      38.689  -4.853  18.445  0.00  0.00    +0.000 A 
ATOM     30  C   UNL     1      38.557  -4.445  17.141  0.00  0.00    +0.000 A 
ENDBRANCH  24  25
ENDBRANCH  23  24
ENDBRANCH   4  23
TORSDOF 8
ENDMDL
MODEL 6
REMARK VINA RESULT:      -6.9      2.441      7.481
REMARK  Name = 
REMARK  8 active torsions:
REMARK  status: ('A' for Active; 'I' for Inactive)
REMARK    1  A    between atoms: C_2  and  C_3
REMARK    2  A    between atoms: C_3  and  N_4
REMARK    3  A    between atoms: C_5  and  C_6
REMARK    4  A    between atoms: C_6  and  C_8
REMARK    5  A    between atoms: C_11  and  O_12
REMARK    6  A    between atoms: O_12  and  C_13
REMARK    7  A    between atoms: C_13  and  C_14
REMARK    8  A    between atoms: C_20  and  O_21
REMARK                            x       y       z     vdW  Elec       q    Type
REMARK                         _______ _______ _______ _____ _____    ______ ____
ROOT
ATOM      1  C   UNL     1      36.012   0.666  15.433  0.00  0.00    +0.000 A 
ATOM      2  C   UNL     1      36.705   0.453  14.283  0.00  0.00    +0.000 A 
ATOM      3  C   UNL     1      37.494  -0.684  14.233  0.00  0.00    +0.000 A 
ATOM      4  C   UNL     1      37.573  -1.561  15.306  0.00  0.00    +0.000 A 
ATOM      5  C   UNL     1      36.849  -1.304  16.455  0.00  0.00    +0.000 A 
ATOM      6  C   UNL     1      36.062  -0.172  16.507  0.00  0.00    +0.000 A 
ENDROOT
BRANCH   1   7
ATOM      7  C   UNL     1      35.091   1.969  15.551  0.00  0.00    +0.000 C 
ATOM      8  O   UNL     1      34.596   1.659  16.941  0.00  0.00    +0.000 OA
BRANCH   7  10
ATOM      9  N   UNL     1      36.622   3.976  15.215  0.00  0.00    +0.000 N 
ATOM     10  C   UNL     1      36.199   2.985  15.991  0.00  0.00    +0.000 A 
ATOM     11  N   UNL     1      36.864   3.035  17.115  0.00  0.00    +0.000 NA
ATOM     12  C   UNL     1      37.747   4.080  17.089  0.00  0.00    +0.000 A 
ATOM     13  C   UNL     1      38.671   4.584  17.974  0.00  0.00    +0.000 A 
ATOM     14  C   UNL     1      39.420   5.690  17.609  0.00  0.00    +0.000 A 
ATOM     15  C   UNL     1      39.278   6.310  16.387  0.00  0.00    +0.000 A 
ATOM     16  C   UNL     1      38.349   5.791  15.514  0.00  0.00    +0.000 A 
ATOM     17  C   UNL     1      37.590   4.689  15.855  0.00  0.00    +0.000 A 
BRANCH   9  18
ATOM     18  C   UNL     1      36.180   4.325  13.874  0.00  0.00    +0.000 C 
BRANCH  18  20
ATOM     19  C   UNL     1      37.517   4.879  11.923  0.00  0.00    +0.000 C 
ATOM     20  C   UNL     1      37.042   3.742  12.796  0.00  0.00    +0.000 C 
ENDBRANCH  18  20
ENDBRANCH   9  18
ENDBRANCH   7  10
ENDBRANCH   1   7
BRANCH   5  21
ATOM     21  O   UNL     1      36.916  -2.175  17.545  0.00  0.00    +0.000 OA
ATOM     22  C   UNL     1      37.483  -1.747  18.749  0.00  0.00    +0.000 C 
ENDBRANCH   5  21
BRANCH   4  23
ATOM     23  O   UNL     1      38.346  -2.697  15.292  0.00  0.00    +0.000 OA
BRANCH  23  24
ATOM     24  C   UNL     1      39.710  -2.655  15.741  0.00  0.00    +0.000 C 
BRANCH  24  25
ATOM     25  C   UNL     1      40.580  -2.194  14.588  0.00  0.00    +0.000 A 
ATOM     26  C   UNL     1      41.187  -0.964  14.611  0.00  0.00    +0.000 A 
ATOM     27  C   UNL     1      41.966  -0.582  13.551  0.00  0.00    +0.000 A 
ATOM     28  C   UNL     1      42.183  -1.368  12.440  0.00  0.00    +0.000 A 
ATOM     29  C   UNL     1      41.559  -2.599  12.449  0.00  0.00    +0.000 A 
ATOM     30  C   UNL     1      40.774  -3.008  13.498  0.00  0.00    +0.000 A 
ENDBRANCH  24  25
ENDBRANCH  23  24
ENDBRANCH   4  23
TORSDOF 8
ENDMDL
MODEL 7
REMARK VINA RESULT:      -6.9     24.072     26.798
REMARK  Name = 
REMARK  8 active torsions:
REMARK  status: ('A' for Active; 'I' for Inactive)
REMARK    1  A    between atoms: C_2  and  C_3
REMARK    2  A    between atoms: C_3  and  N_4
REMARK    3  A    between atoms: C_5  and  C_6
REMARK    4  A    between atoms: C_6  and  C_8
REMARK    5  A    between atoms: C_11  and  O_12
REMARK    6  A    between atoms: O_12  and  C_13
REMARK    7  A    between atoms: C_13  and  C_14
REMARK    8  A    between atoms: C_20  and  O_21
REMARK                            x       y       z     vdW  Elec       q    Type
REMARK                         _______ _______ _______ _____ _____    ______ ____
ROOT
ATOM      1  C   UNL     1      25.843  15.654  34.447  0.00  0.00    +0.000 A 
ATOM      2  C   UNL     1      25.498  15.343  33.170  0.00  0.00    +0.000 A 
ATOM      3  C   UNL     1      24.741  16.278  32.484  0.00  0.00    +0.000 A 
ATOM      4  C   UNL     1      24.354  17.474  33.074  0.00  0.00    +0.000 A 
ATOM      5  C   UNL     1      24.728  17.747  34.376  0.00  0.00    +0.000 A 
ATOM      6  C   UNL     1      25.483  16.818  35.061  0.00  0.00    +0.000 A 
ENDROOT
BRANCH   1   7
ATOM      7  C   UNL     1      26.709  14.607  35.292  0.00  0.00    +0.000 C 
ATOM      8  O   UNL     1      26.979  13.686  34.130  0.00  0.00    +0.000 OA
BRANCH   7  10
ATOM      9  N   UNL     1      28.708  15.807  36.314  0.00  0.00    +0.000 N 
ATOM     10  C   UNL     1      28.082  15.357  35.233  0.00  0.00    +0.000 A 
ATOM     11  N   UNL     1      28.806  15.659  34.187  0.00  0.00    +0.000 NA
ATOM     12  C   UNL     1      29.937  16.323  34.578  0.00  0.00    +0.000 A 
ATOM     13  C   UNL     1      31.017  16.860  33.916  0.00  0.00    +0.000 A 
ATOM     14  C   UNL     1      32.014  17.482  34.649  0.00  0.00    +0.000 A 
ATOM     15  C   UNL     1      31.967  17.589  36.021  0.00  0.00    +0.000 A 
ATOM     16  C   UNL     1      30.879  17.046  36.666  0.00  0.00    +0.000 A 
ATOM     17  C   UNL     1      29.873  16.420  35.958  0.00  0.00    +0.000 A 
BRANCH   9  18
ATOM     18  C   UNL     1      28.295  15.710  37.704  0.00  0.00    +0.000 C 
BRANCH  18  20
ATOM     19  C   UNL     1      26.210  16.420  38.728  0.00  0.00    +0.000 C 
ATOM     20  C   UNL     1      27.529  16.907  38.179  0.00  0.00    +0.000 C 
ENDBRANCH  18  20
ENDBRANCH   9  18
ENDBRANCH   7  10
ENDBRANCH   1   7
BRANCH   5  21
ATOM     21  O   UNL     1      24.348  18.945  34.987  0.00  0.00    +0.000 OA
ATOM     22  C   UNL     1      25.322  19.812  35.491  0.00  0.00    +0.000 C 
ENDBRANCH   5  21
BRANCH   4  23
ATOM     23  O   UNL     1      23.603  18.423  32.425  0.00  0.00    +0.000 OA
BRANCH  23  24
ATOM     24  C   UNL     1      24.210  19.299  31.461  0.00  0.00    +0.000 C 
BRANCH  24  25
ATOM     25  C   UNL     1      23.814  20.724  31.792  0.00  0.00    +0.000 A 
ATOM     26  C   UNL     1      24.760  21.655  32.143  0.00  0.00    +0.000 A 
ATOM     27  C   UNL     1      24.364  22.934  32.435  0.00  0.00    +0.000 A 
ATOM     28  C   UNL     1      23.052  23.354  32.399  0.00  0.00    +0.000 A 
ATOM     29  C   UNL     1      22.127  22.394  32.043  0.00  0.00    +0.000 A 
ATOM     30  C   UNL     1      22.496  21.107  31.744  0.00  0.00    +0.000 A 
ENDBRANCH  24  25
ENDBRANCH  23  24
ENDBRANCH   4  23
TORSDOF 8
ENDMDL
MODEL 8
REMARK VINA RESULT:      -6.9      5.119      6.954
REMARK  Name = 
REMARK  8 active torsions:
REMARK  status: ('A' for Active; 'I' for Inactive)
REMARK    1  A    between atoms: C_2  and  C_3
REMARK    2  A    between atoms: C_3  and  N_4
REMARK    3  A    between atoms: C_5  and  C_6
REMARK    4  A    between atoms: C_6  and  C_8
REMARK    5  A    between atoms: C_11  and  O_12
REMARK    6  A    between atoms: O_12  and  C_13
REMARK    7  A    between atoms: C_13  and  C_14
REMARK    8  A    between atoms: C_20  and  O_21
REMARK                            x       y       z     vdW  Elec       q    Type
REMARK                         _______ _______ _______ _____ _____    ______ ____
ROOT
ATOM      1  C   UNL     1      39.777  -1.442  13.695  0.00  0.00    +0.000 A 
ATOM      2  C   UNL     1      40.344  -0.409  14.373  0.00  0.00    +0.000 A 
ATOM      3  C   UNL     1      41.709  -0.236  14.215  0.00  0.00    +0.000 A 
ATOM      4  C   UNL     1      42.460  -1.076  13.404  0.00  0.00    +0.000 A 
ATOM      5  C   UNL     1      41.840  -2.113  12.733  0.00  0.00    +0.000 A 
ATOM      6  C   UNL     1      40.480  -2.288  12.888  0.00  0.00    +0.000 A 
ENDROOT
BRANCH   1   7
ATOM      7  C   UNL     1      38.205  -1.697  13.847  0.00  0.00    +0.000 C 
ATOM      8  O   UNL     1      38.250  -3.119  13.349  0.00  0.00    +0.000 OA
BRANCH   7  10
ATOM      9  N   UNL     1      37.607  -1.285  16.287  0.00  0.00    +0.000 N 
ATOM     10  C   UNL     1      38.184  -2.054  15.371  0.00  0.00    +0.000 A 
ATOM     11  N   UNL     1      38.699  -3.093  15.976  0.00  0.00    +0.000 NA
ATOM     12  C   UNL     1      38.460  -3.016  17.321  0.00  0.00    +0.000 A 
ATOM     13  C   UNL     1      38.764  -3.810  18.402  0.00  0.00    +0.000 A 
ATOM     14  C   UNL     1      38.353  -3.417  19.664  0.00  0.00    +0.000 A 
ATOM     15  C   UNL     1      37.649  -2.254  19.884  0.00  0.00    +0.000 A 
ATOM     16  C   UNL     1      37.353  -1.471  18.791  0.00  0.00    +0.000 A 
ATOM     17  C   UNL     1      37.752  -1.843  17.523  0.00  0.00    +0.000 A 
BRANCH   9  18
ATOM     18  C   UNL     1      36.905  -0.026  16.098  0.00  0.00    +0.000 C 
BRANCH  18  20
ATOM     19  C   UNL     1      34.863   1.008  16.910  0.00  0.00    +0.000 C 
ATOM     20  C   UNL     1      35.414  -0.169  16.141  0.00  0.00    +0.000 C 
ENDBRANCH  18  20
ENDBRANCH   9  18
ENDBRANCH   7  10
ENDBRANCH   1   7
BRANCH   5  21
ATOM     21  O   UNL     1      42.578  -2.969  11.913  0.00  0.00    +0.000 OA
ATOM     22  C   UNL     1      41.920  -3.853  11.053  0.00  0.00    +0.000 C 
ENDBRANCH   5  21
BRANCH   4  23
ATOM     23  O   UNL     1      43.814  -0.934  13.225  0.00  0.00    +0.000 OA
BRANCH  23  24
ATOM     24  C   UNL     1      44.561  -0.000  14.022  0.00  0.00    +0.000 C 
BRANCH  24  25
ATOM     25  C   UNL     1      45.096  -0.729  15.239  0.00  0.00    +0.000 A 
ATOM     26  C   UNL     1      45.335  -2.080  15.203  0.00  0.00    +0.000 A 
ATOM     27  C   UNL     1      45.819  -2.704  16.323  0.00  0.00    +0.000 A 
ATOM     28  C   UNL     1      46.086  -2.050  17.506  0.00  0.00    +0.000 A 
ATOM     29  C   UNL     1      45.835  -0.693  17.508  0.00  0.00    +0.000 A 
ATOM     30  C   UNL     1      45.351  -0.043  16.402  0.00  0.00    +0.000 A 
ENDBRANCH  24  25
ENDBRANCH  23  24
ENDBRANCH   4  23
TORSDOF 8
ENDMDL
MODEL 9
REMARK VINA RESULT:      -6.8     25.463     28.558
REMARK  Name = 
REMARK  8 active torsions:
REMARK  status: ('A' for Active; 'I' for Inactive)
REMARK    1  A    between atoms: C_2  and  C_3
REMARK    2  A    between atoms: C_3  and  N_4
REMARK    3  A    between atoms: C_5  and  C_6
REMARK    4  A    between atoms: C_6  and  C_8
REMARK    5  A    between atoms: C_11  and  O_12
REMARK    6  A    between atoms: O_12  and  C_13
REMARK    7  A    between atoms: C_13  and  C_14
REMARK    8  A    between atoms: C_20  and  O_21
REMARK                            x       y       z     vdW  Elec       q    Type
REMARK                         _______ _______ _______ _____ _____    ______ ____
ROOT
ATOM      1  C   UNL     1      27.297  15.617  38.909  0.00  0.00    +0.000 A 
ATOM      2  C   UNL     1      28.118  14.672  39.439  0.00  0.00    +0.000 A 
ATOM      3  C   UNL     1      27.528  13.726  40.262  0.00  0.00    +0.000 A 
ATOM      4  C   UNL     1      26.166  13.743  40.530  0.00  0.00    +0.000 A 
ATOM      5  C   UNL     1      25.370  14.724  39.967  0.00  0.00    +0.000 A 
ATOM      6  C   UNL     1      25.955  15.667  39.148  0.00  0.00    +0.000 A 
ENDROOT
BRANCH   1   7
ATOM      7  C   UNL     1      27.924  16.741  37.960  0.00  0.00    +0.000 C 
ATOM      8  O   UNL     1      29.208  15.996  37.696  0.00  0.00    +0.000 OA
BRANCH   7  10
ATOM      9  N   UNL     1      26.451  17.158  35.925  0.00  0.00    +0.000 N 
ATOM     10  C   UNL     1      27.214  16.328  36.627  0.00  0.00    +0.000 A 
ATOM     11  N   UNL     1      27.235  15.174  36.011  0.00  0.00    +0.000 NA
ATOM     12  C   UNL     1      26.473  15.236  34.877  0.00  0.00    +0.000 A 
ATOM     13  C   UNL     1      26.150  14.344  33.881  0.00  0.00    +0.000 A 
ATOM     14  C   UNL     1      25.326  14.755  32.848  0.00  0.00    +0.000 A 
ATOM     15  C   UNL     1      24.810  16.031  32.776  0.00  0.00    +0.000 A 
ATOM     16  C   UNL     1      25.143  16.911  33.781  0.00  0.00    +0.000 A 
ATOM     17  C   UNL     1      25.964  16.523  34.821  0.00  0.00    +0.000 A 
BRANCH   9  18
ATOM     18  C   UNL     1      26.128  18.547  36.209  0.00  0.00    +0.000 C 
BRANCH  18  20
ATOM     19  C   UNL     1      23.965  19.645  36.318  0.00  0.00    +0.000 C 
ATOM     20  C   UNL     1      24.898  18.708  37.047  0.00  0.00    +0.000 C 
ENDBRANCH  18  20
ENDBRANCH   9  18
ENDBRANCH   7  10
ENDBRANCH   1   7
BRANCH   5  21
ATOM     21  O   UNL     1      23.998  14.758  40.225  0.00  0.00    +0.000 OA
ATOM     22  C   UNL     1      23.328  15.984  40.283  0.00  0.00    +0.000 C 
ENDBRANCH   5  21
BRANCH   4  23
ATOM     23  O   UNL     1      25.548  12.823  41.340  0.00  0.00    +0.000 OA
BRANCH  23  24
ATOM     24  C   UNL     1      26.242  12.261  42.466  0.00  0.00    +0.000 C 
BRANCH  24  25
ATOM     25  C   UNL     1      26.288  10.756  42.298  0.00  0.00    +0.000 A 
ATOM     26  C   UNL     1      27.097  10.176  41.353  0.00  0.00    +0.000 A 
ATOM     27  C   UNL     1      27.113   8.812  41.230  0.00  0.00    +0.000 A 
ATOM     28  C   UNL     1      26.354   7.966  42.010  0.00  0.00    +0.000 A 
ATOM     29  C   UNL     1      25.552   8.580  42.950  0.00  0.00    +0.000 A 
ATOM     30  C   UNL     1      25.517   9.944  43.095  0.00  0.00    +0.000 A 
ENDBRANCH  24  25
ENDBRANCH  23  24
ENDBRANCH   4  23
TORSDOF 8
ENDMDL
MODEL 10
REMARK VINA RESULT:      -6.7      2.306      7.391
REMARK  Name = 
REMARK  8 active torsions:
REMARK  status: ('A' for Active; 'I' for Inactive)
REMARK    1  A    between atoms: C_2  and  C_3
REMARK    2  A    between atoms: C_3  and  N_4
REMARK    3  A    between atoms: C_5  and  C_6
REMARK    4  A    between atoms: C_6  and  C_8
REMARK    5  A    between atoms: C_11  and  O_12
REMARK    6  A    between atoms: O_12  and  C_13
REMARK    7  A    between atoms: C_13  and  C_14
REMARK    8  A    between atoms: C_20  and  O_21
REMARK                            x       y       z     vdW  Elec       q    Type
REMARK                         _______ _______ _______ _____ _____    ______ ____
ROOT
ATOM      1  C   UNL     1      37.147   3.922  14.470  0.00  0.00    +0.000 A 
ATOM      2  C   UNL     1      35.834   3.679  14.723  0.00  0.00    +0.000 A 
ATOM      3  C   UNL     1      35.479   2.360  14.956  0.00  0.00    +0.000 A 
ATOM      4  C   UNL     1      36.419   1.339  14.932  0.00  0.00    +0.000 A 
ATOM      5  C   UNL     1      37.744   1.635  14.671  0.00  0.00    +0.000 A 
ATOM      6  C   UNL     1      38.100   2.947  14.439  0.00  0.00    +0.000 A 
ENDROOT
BRANCH   1   7
ATOM      7  C   UNL     1      37.614   5.425  14.183  0.00  0.00    +0.000 C 
ATOM      8  O   UNL     1      36.349   6.061  14.701  0.00  0.00    +0.000 OA
BRANCH   7  10
ATOM      9  N   UNL     1      39.724   6.043  15.467  0.00  0.00    +0.000 N 
ATOM     10  C   UNL     1      38.457   5.647  15.484  0.00  0.00    +0.000 A 
ATOM     11  N   UNL     1      38.097   5.489  16.731  0.00  0.00    +0.000 NA
ATOM     12  C   UNL     1      39.143   5.786  17.561  0.00  0.00    +0.000 A 
ATOM     13  C   UNL     1      39.321   5.792  18.925  0.00  0.00    +0.000 A 
ATOM     14  C   UNL     1      40.552   6.157  19.443  0.00  0.00    +0.000 A 
ATOM     15  C   UNL     1      41.614   6.517  18.643  0.00  0.00    +0.000 A 
ATOM     16  C   UNL     1      41.418   6.506  17.279  0.00  0.00    +0.000 A 
ATOM     17  C   UNL     1      40.199   6.145  16.740  0.00  0.00    +0.000 A 
BRANCH   9  18
ATOM     18  C   UNL     1      40.561   6.347  14.317  0.00  0.00    +0.000 C 
BRANCH  18  20
ATOM     19  C   UNL     1      40.904   4.572  12.695  0.00  0.00    +0.000 C 
ATOM     20  C   UNL     1      41.472   5.221  13.934  0.00  0.00    +0.000 C 
ENDBRANCH  18  20
ENDBRANCH   9  18
ENDBRANCH   7  10
ENDBRANCH   1   7
BRANCH   5  21
ATOM     21  O   UNL     1      38.705   0.621  14.642  0.00  0.00    +0.000 OA
ATOM     22  C   UNL     1      39.120   0.087  13.420  0.00  0.00    +0.000 C 
ENDBRANCH   5  21
BRANCH   4  23
ATOM     23  O   UNL     1      36.103   0.021  15.158  0.00  0.00    +0.000 OA
BRANCH  23  24
ATOM     24  C   UNL     1      35.425  -0.369  16.363  0.00  0.00    +0.000 C 
BRANCH  24  25
ATOM     25  C   UNL     1      36.419  -1.072  17.266  0.00  0.00    +0.000 A 
ATOM     26  C   UNL     1      36.269  -1.051  18.630  0.00  0.00    +0.000 A 
ATOM     27  C   UNL     1      37.187  -1.697  19.415  0.00  0.00    +0.000 A 
ATOM     28  C   UNL     1      38.274  -2.380  18.913  0.00  0.00    +0.000 A 
ATOM     29  C   UNL     1      38.396  -2.381  17.539  0.00  0.00    +0.000 A 
ATOM     30  C   UNL     1      37.490  -1.743  16.729  0.00  0.00    +0.000 A 
ENDBRANCH  24  25
ENDBRANCH  23  24
ENDBRANCH   4  23
TORSDOF 8
ENDMDL
