MODEL 1
REMARK VINA RESULT:      -6.8      0.000      0.000
REMARK  Name = 
REMARK  2 active torsions:
REMARK  status: ('A' for Active; 'I' for Inactive)
REMARK    1  A    between atoms: O_2  and  C_3
REMARK    2  A    between atoms: C_6  and  C_7
REMARK                            x       y       z     vdW  Elec       q    Type
REMARK                         _______ _______ _______ _____ _____    ______ ____
ROOT
ATOM      1  C   UNL     1      17.333  10.605  38.214  0.00  0.00    +0.000 A 
ATOM      2  C   UNL     1      16.871  10.076  39.391  0.00  0.00    +0.000 A 
ATOM      3  C   UNL     1      17.796   9.485  40.415  0.00  0.00    +0.000 C 
ATOM      4  N   UNL     1      15.533  10.069  39.679  0.00  0.00    +0.000 NA
ATOM      5  C   UNL     1      14.623  10.573  38.829  0.00  0.00    +0.000 A 
ATOM      6  C   UNL     1      13.238  10.715  38.837  0.00  0.00    +0.000 A 
ATOM      7  C   UNL     1      12.881  11.321  37.665  0.00  0.00    +0.000 A 
ATOM      8  C   UNL     1      11.500  11.696  37.191  0.00  0.00    +0.000 C 
ATOM      9  N   UNL     1      14.002  11.548  36.957  0.00  0.00    +0.000 NA
ATOM     10  N   UNL     1      15.055  11.092  37.672  0.00  0.00    +0.000 N 
ATOM     11  C   UNL     1      16.363  11.118  37.350  0.00  0.00    +0.000 A 
ATOM     12  N   UNL     1      16.836  11.660  36.127  0.00  0.00    +0.000 NA
ENDROOT
BRANCH   1  16
ATOM     13  C   UNL     1      21.491  10.900  37.409  0.00  0.00    +0.000 A 
ATOM     14  C   UNL     1      20.846  11.834  38.168  0.00  0.00    +0.000 A 
ATOM     15  C   UNL     1      19.497  11.725  38.417  0.00  0.00    +0.000 A 
ATOM     16  C   UNL     1      18.747  10.651  37.901  0.00  0.00    +0.000 A 
ATOM     17  C   UNL     1      19.426   9.726  37.141  0.00  0.00    +0.000 A 
ATOM     18  C   UNL     1      20.798   9.836  36.885  0.00  0.00    +0.000 A 
BRANCH  13  20
ATOM     19  C   UNL     1      23.370  10.244  36.048  0.00  0.00    +0.000 C 
ATOM     20  O   UNL     1      22.847  11.001  37.144  0.00  0.00    +0.000 OA
ENDBRANCH  13  20
ENDBRANCH   1  16
TORSDOF 2
ENDMDL
MODEL 2
REMARK VINA RESULT:      -6.8      3.028      4.405
REMARK  Name = 
REMARK  2 active torsions:
REMARK  status: ('A' for Active; 'I' for Inactive)
REMARK    1  A    between atoms: O_2  and  C_3
REMARK    2  A    between atoms: C_6  and  C_7
REMARK                            x       y       z     vdW  Elec       q    Type
REMARK                         _______ _______ _______ _____ _____    ______ ____
ROOT
ATOM      1  C   UNL     1      16.965  10.796  36.070  0.00  0.00    +0.000 A 
ATOM      2  C   UNL     1      17.150   9.916  35.036  0.00  0.00    +0.000 A 
ATOM      3  C   UNL     1      17.983   8.676  35.187  0.00  0.00    +0.000 C 
ATOM      4  N   UNL     1      16.575  10.139  33.814  0.00  0.00    +0.000 NA
ATOM      5  C   UNL     1      15.812  11.219  33.576  0.00  0.00    +0.000 A 
ATOM      6  C   UNL     1      15.107  11.705  32.479  0.00  0.00    +0.000 A 
ATOM      7  C   UNL     1      14.509  12.874  32.862  0.00  0.00    +0.000 A 
ATOM      8  C   UNL     1      13.636  13.787  32.041  0.00  0.00    +0.000 C 
ATOM      9  N   UNL     1      14.831  13.103  34.148  0.00  0.00    +0.000 NA
ATOM     10  N   UNL     1      15.621  12.092  34.573  0.00  0.00    +0.000 N 
ATOM     11  C   UNL     1      16.169  11.911  35.791  0.00  0.00    +0.000 A 
ATOM     12  N   UNL     1      15.980  12.828  36.857  0.00  0.00    +0.000 NA
ENDROOT
BRANCH   1  16
ATOM     13  C   UNL     1      18.808  10.216  39.851  0.00  0.00    +0.000 A 
ATOM     14  C   UNL     1      19.470  10.822  38.822  0.00  0.00    +0.000 A 
ATOM     15  C   UNL     1      18.860  11.000  37.602  0.00  0.00    +0.000 A 
ATOM     16  C   UNL     1      17.538  10.567  37.381  0.00  0.00    +0.000 A 
ATOM     17  C   UNL     1      16.896   9.961  38.437  0.00  0.00    +0.000 A 
ATOM     18  C   UNL     1      17.517   9.777  39.678  0.00  0.00    +0.000 A 
BRANCH  13  20
ATOM     19  C   UNL     1      18.632   9.425  42.121  0.00  0.00    +0.000 C 
ATOM     20  O   UNL     1      19.412  10.024  41.082  0.00  0.00    +0.000 OA
ENDBRANCH  13  20
ENDBRANCH   1  16
TORSDOF 2
ENDMDL
MODEL 3
REMARK VINA RESULT:      -6.5      3.963      6.179
REMARK  Name = 
REMARK  2 active torsions:
REMARK  status: ('A' for Active; 'I' for Inactive)
REMARK    1  A    between atoms: O_2  and  C_3
REMARK    2  A    between atoms: C_6  and  C_7
REMARK                            x       y       z     vdW  Elec       q    Type
REMARK                         _______ _______ _______ _____ _____    ______ ____
ROOT
ATOM      1  C   UNL     1      14.570  11.718  36.755  0.00  0.00    +0.000 A 
ATOM      2  C   UNL     1      13.507  11.378  37.550  0.00  0.00    +0.000 A 
ATOM      3  C   UNL     1      12.093  11.708  37.171  0.00  0.00    +0.000 C 
ATOM      4  N   UNL     1      13.700  10.716  38.732  0.00  0.00    +0.000 NA
ATOM      5  C   UNL     1      14.927  10.375  39.161  0.00  0.00    +0.000 A 
ATOM      6  C   UNL     1      15.433   9.714  40.277  0.00  0.00    +0.000 A 
ATOM      7  C   UNL     1      16.792   9.668  40.144  0.00  0.00    +0.000 A 
ATOM      8  C   UNL     1      17.801   9.059  41.084  0.00  0.00    +0.000 C 
ATOM      9  N   UNL     1      17.118  10.276  38.990  0.00  0.00    +0.000 NA
ATOM     10  N   UNL     1      15.978  10.701  38.399  0.00  0.00    +0.000 N 
ATOM     11  C   UNL     1      15.832  11.353  37.229  0.00  0.00    +0.000 A 
ATOM     12  N   UNL     1      16.936  11.709  36.411  0.00  0.00    +0.000 NA
ENDROOT
BRANCH   1  16
ATOM     13  C   UNL     1      14.118  13.538  32.945  0.00  0.00    +0.000 A 
ATOM     14  C   UNL     1      14.726  12.323  33.085  0.00  0.00    +0.000 A 
ATOM     15  C   UNL     1      14.867  11.748  34.327  0.00  0.00    +0.000 A 
ATOM     16  C   UNL     1      14.388  12.392  35.485  0.00  0.00    +0.000 A 
ATOM     17  C   UNL     1      13.779  13.614  35.311  0.00  0.00    +0.000 A 
ATOM     18  C   UNL     1      13.636  14.201  34.047  0.00  0.00    +0.000 A 
BRANCH  13  20
ATOM     19  C   UNL     1      14.798  13.648  30.635  0.00  0.00    +0.000 C 
ATOM     20  O   UNL     1      13.975  14.131  31.702  0.00  0.00    +0.000 OA
ENDBRANCH  13  20
ENDBRANCH   1  16
TORSDOF 2
ENDMDL
MODEL 4
REMARK VINA RESULT:      -6.3     21.469     23.175
REMARK  Name = 
REMARK  2 active torsions:
REMARK  status: ('A' for Active; 'I' for Inactive)
REMARK    1  A    between atoms: O_2  and  C_3
REMARK    2  A    between atoms: C_6  and  C_7
REMARK                            x       y       z     vdW  Elec       q    Type
REMARK                         _______ _______ _______ _____ _____    ______ ____
ROOT
ATOM      1  C   UNL     1      19.483  -8.161  26.724  0.00  0.00    +0.000 A 
ATOM      2  C   UNL     1      19.166  -6.879  26.355  0.00  0.00    +0.000 A 
ATOM      3  C   UNL     1      17.866  -6.238  26.746  0.00  0.00    +0.000 C 
ATOM      4  N   UNL     1      20.035  -6.129  25.610  0.00  0.00    +0.000 NA
ATOM      5  C   UNL     1      21.223  -6.611  25.209  0.00  0.00    +0.000 A 
ATOM      6  C   UNL     1      22.293  -6.110  24.473  0.00  0.00    +0.000 A 
ATOM      7  C   UNL     1      23.239  -7.094  24.402  0.00  0.00    +0.000 A 
ATOM      8  C   UNL     1      24.580  -7.051  23.716  0.00  0.00    +0.000 C 
ATOM      9  N   UNL     1      22.774  -8.165  25.069  0.00  0.00    +0.000 NA
ATOM     10  N   UNL     1      21.550  -7.862  25.557  0.00  0.00    +0.000 N 
ATOM     11  C   UNL     1      20.724  -8.634  26.290  0.00  0.00    +0.000 A 
ATOM     12  N   UNL     1      21.053  -9.963  26.664  0.00  0.00    +0.000 NA
ENDROOT
BRANCH   1  16
ATOM     13  C   UNL     1      16.966 -10.443  29.270  0.00  0.00    +0.000 A 
ATOM     14  C   UNL     1      17.979  -9.677  29.772  0.00  0.00    +0.000 A 
ATOM     15  C   UNL     1      18.788  -8.946  28.933  0.00  0.00    +0.000 A 
ATOM     16  C   UNL     1      18.593  -8.963  27.539  0.00  0.00    +0.000 A 
ATOM     17  C   UNL     1      17.563  -9.743  27.063  0.00  0.00    +0.000 A 
ATOM     18  C   UNL     1      16.741 -10.489  27.916  0.00  0.00    +0.000 A 
BRANCH  13  20
ATOM     19  C   UNL     1      16.093 -10.823  31.485  0.00  0.00    +0.000 C 
ATOM     20  O   UNL     1      16.149 -11.189  30.102  0.00  0.00    +0.000 OA
ENDBRANCH  13  20
ENDBRANCH   1  16
TORSDOF 2
ENDMDL
MODEL 5
REMARK VINA RESULT:      -6.2     18.944     21.567
REMARK  Name = 
REMARK  2 active torsions:
REMARK  status: ('A' for Active; 'I' for Inactive)
REMARK    1  A    between atoms: O_2  and  C_3
REMARK    2  A    between atoms: C_6  and  C_7
REMARK                            x       y       z     vdW  Elec       q    Type
REMARK                         _______ _______ _______ _____ _____    ______ ____
ROOT
ATOM      1  C   UNL     1      27.406  24.305  25.222  0.00  0.00    +0.000 A 
ATOM      2  C   UNL     1      26.304  24.999  25.649  0.00  0.00    +0.000 A 
ATOM      3  C   UNL     1      25.630  26.029  24.789  0.00  0.00    +0.000 C 
ATOM      4  N   UNL     1      25.772  24.775  26.890  0.00  0.00    +0.000 NA
ATOM      5  C   UNL     1      26.302  23.876  27.736  0.00  0.00    +0.000 A 
ATOM      6  C   UNL     1      25.997  23.429  29.019  0.00  0.00    +0.000 A 
ATOM      7  C   UNL     1      26.918  22.477  29.351  0.00  0.00    +0.000 A 
ATOM      8  C   UNL     1      27.025  21.688  30.631  0.00  0.00    +0.000 C 
ATOM      9  N   UNL     1      27.763  22.336  28.314  0.00  0.00    +0.000 NA
ATOM     10  N   UNL     1      27.380  23.189  27.337  0.00  0.00    +0.000 N 
ATOM     11  C   UNL     1      27.935  23.378  26.124  0.00  0.00    +0.000 A 
ATOM     12  N   UNL     1      29.080  22.662  25.688  0.00  0.00    +0.000 NA
ENDROOT
BRANCH   1  16
ATOM     13  C   UNL     1      29.163  25.030  21.425  0.00  0.00    +0.000 A 
ATOM     14  C   UNL     1      29.470  25.800  22.510  0.00  0.00    +0.000 A 
ATOM     15  C   UNL     1      28.890  25.554  23.733  0.00  0.00    +0.000 A 
ATOM     16  C   UNL     1      27.968  24.503  23.901  0.00  0.00    +0.000 A 
ATOM     17  C   UNL     1      27.680  23.744  22.790  0.00  0.00    +0.000 A 
ATOM     18  C   UNL     1      28.268  23.994  21.544  0.00  0.00    +0.000 A 
BRANCH  13  20
ATOM     19  C   UNL     1      29.823  26.631  19.748  0.00  0.00    +0.000 C 
ATOM     20  O   UNL     1      29.734  25.271  20.187  0.00  0.00    +0.000 OA
ENDBRANCH  13  20
ENDBRANCH   1  16
TORSDOF 2
ENDMDL
MODEL 6
REMARK VINA RESULT:      -6.2     30.812     33.194
REMARK  Name = 
REMARK  2 active torsions:
REMARK  status: ('A' for Active; 'I' for Inactive)
REMARK    1  A    between atoms: O_2  and  C_3
REMARK    2  A    between atoms: C_6  and  C_7
REMARK                            x       y       z     vdW  Elec       q    Type
REMARK                         _______ _______ _______ _____ _____    ______ ____
ROOT
ATOM      1  C   UNL     1      31.190  21.529  10.630  0.00  0.00    +0.000 A 
ATOM      2  C   UNL     1      31.838  20.490  11.247  0.00  0.00    +0.000 A 
ATOM      3  C   UNL     1      31.431  19.994  12.604  0.00  0.00    +0.000 C 
ATOM      4  N   UNL     1      32.891  19.862  10.640  0.00  0.00    +0.000 NA
ATOM      5  C   UNL     1      33.333  20.231   9.426  0.00  0.00    +0.000 A 
ATOM      6  C   UNL     1      34.342  19.798   8.571  0.00  0.00    +0.000 A 
ATOM      7  C   UNL     1      34.295  20.582   7.452  0.00  0.00    +0.000 A 
ATOM      8  C   UNL     1      35.175  20.518   6.230  0.00  0.00    +0.000 C 
ATOM      9  N   UNL     1      33.294  21.467   7.607  0.00  0.00    +0.000 NA
ATOM     10  N   UNL     1      32.714  21.245   8.809  0.00  0.00    +0.000 N 
ATOM     11  C   UNL     1      31.674  21.891   9.370  0.00  0.00    +0.000 A 
ATOM     12  N   UNL     1      31.010  22.970   8.731  0.00  0.00    +0.000 NA
ENDROOT
BRANCH   1  16
ATOM     13  C   UNL     1      27.742  23.343  12.318  0.00  0.00    +0.000 A 
ATOM     14  C   UNL     1      27.640  22.339  11.399  0.00  0.00    +0.000 A 
ATOM     15  C   UNL     1      28.766  21.763  10.859  0.00  0.00    +0.000 A 
ATOM     16  C   UNL     1      30.054  22.190  11.240  0.00  0.00    +0.000 A 
ATOM     17  C   UNL     1      30.125  23.203  12.168  0.00  0.00    +0.000 A 
ATOM     18  C   UNL     1      28.978  23.791  12.717  0.00  0.00    +0.000 A 
BRANCH  13  20
ATOM     19  C   UNL     1      25.532  24.243  11.982  0.00  0.00    +0.000 C 
ATOM     20  O   UNL     1      26.616  23.936  12.864  0.00  0.00    +0.000 OA
ENDBRANCH  13  20
ENDBRANCH   1  16
TORSDOF 2
ENDMDL
MODEL 7
REMARK VINA RESULT:      -6.1      3.263      4.276
REMARK  Name = 
REMARK  2 active torsions:
REMARK  status: ('A' for Active; 'I' for Inactive)
REMARK    1  A    between atoms: O_2  and  C_3
REMARK    2  A    between atoms: C_6  and  C_7
REMARK                            x       y       z     vdW  Elec       q    Type
REMARK                         _______ _______ _______ _____ _____    ______ ____
ROOT
ATOM      1  C   UNL     1      16.689  11.218  35.975  0.00  0.00    +0.000 A 
ATOM      2  C   UNL     1      15.508  11.866  36.228  0.00  0.00    +0.000 A 
ATOM      3  C   UNL     1      15.049  12.167  37.625  0.00  0.00    +0.000 C 
ATOM      4  N   UNL     1      14.696  12.267  35.202  0.00  0.00    +0.000 NA
ATOM      5  C   UNL     1      15.015  12.045  33.916  0.00  0.00    +0.000 A 
ATOM      6  C   UNL     1      14.422  12.328  32.690  0.00  0.00    +0.000 A 
ATOM      7  C   UNL     1      15.247  11.844  31.713  0.00  0.00    +0.000 A 
ATOM      8  C   UNL     1      15.057  11.898  30.219  0.00  0.00    +0.000 C 
ATOM      9  N   UNL     1      16.314  11.283  32.311  0.00  0.00    +0.000 NA
ATOM     10  N   UNL     1      16.164  11.411  33.650  0.00  0.00    +0.000 N 
ATOM     11  C   UNL     1      16.993  11.000  34.629  0.00  0.00    +0.000 A 
ATOM     12  N   UNL     1      18.212  10.323  34.364  0.00  0.00    +0.000 NA
ENDROOT
BRANCH   1  16
ATOM     13  C   UNL     1      19.369  10.209  39.110  0.00  0.00    +0.000 A 
ATOM     14  C   UNL     1      19.356  11.459  38.561  0.00  0.00    +0.000 A 
ATOM     15  C   UNL     1      18.483  11.770  37.544  0.00  0.00    +0.000 A 
ATOM     16  C   UNL     1      17.580  10.812  37.043  0.00  0.00    +0.000 A 
ATOM     17  C   UNL     1      17.617   9.562  37.618  0.00  0.00    +0.000 A 
ATOM     18  C   UNL     1      18.506   9.244  38.652  0.00  0.00    +0.000 A 
BRANCH  13  20
ATOM     19  C   UNL     1      21.028   8.692  39.979  0.00  0.00    +0.000 C 
ATOM     20  O   UNL     1      20.247   9.882  40.130  0.00  0.00    +0.000 OA
ENDBRANCH  13  20
ENDBRANCH   1  16
TORSDOF 2
ENDMDL
MODEL 8
REMARK VINA RESULT:      -6.1     22.154     25.101
REMARK  Name = 
REMARK  2 active torsions:
REMARK  status: ('A' for Active; 'I' for Inactive)
REMARK    1  A    between atoms: O_2  and  C_3
REMARK    2  A    between atoms: C_6  and  C_7
REMARK                            x       y       z     vdW  Elec       q    Type
REMARK                         _______ _______ _______ _____ _____    ______ ____
ROOT
ATOM      1  C   UNL     1      28.580  26.085  22.192  0.00  0.00    +0.000 A 
ATOM      2  C   UNL     1      28.270  27.411  22.354  0.00  0.00    +0.000 A 
ATOM      3  C   UNL     1      27.488  27.905  23.536  0.00  0.00    +0.000 C 
ATOM      4  N   UNL     1      28.669  28.341  21.434  0.00  0.00    +0.000 NA
ATOM      5  C   UNL     1      29.372  28.001  20.341  0.00  0.00    +0.000 A 
ATOM      6  C   UNL     1      29.912  28.693  19.260  0.00  0.00    +0.000 A 
ATOM      7  C   UNL     1      30.535  27.779  18.458  0.00  0.00    +0.000 A 
ATOM      8  C   UNL     1      31.272  28.020  17.166  0.00  0.00    +0.000 C 
ATOM      9  N   UNL     1      30.389  26.565  19.019  0.00  0.00    +0.000 NA
ATOM     10  N   UNL     1      29.682  26.711  20.164  0.00  0.00    +0.000 N 
ATOM     11  C   UNL     1      29.309  25.763  21.045  0.00  0.00    +0.000 A 
ATOM     12  N   UNL     1      29.626  24.390  20.870  0.00  0.00    +0.000 NA
ENDROOT
BRANCH   1  16
ATOM     13  C   UNL     1      27.617  23.197  25.152  0.00  0.00    +0.000 A 
ATOM     14  C   UNL     1      28.793  23.891  25.191  0.00  0.00    +0.000 A 
ATOM     15  C   UNL     1      29.091  24.821  24.222  0.00  0.00    +0.000 A 
ATOM     16  C   UNL     1      28.195  25.087  23.169  0.00  0.00    +0.000 A 
ATOM     17  C   UNL     1      27.018  24.373  23.158  0.00  0.00    +0.000 A 
ATOM     18  C   UNL     1      26.714  23.424  24.142  0.00  0.00    +0.000 A 
BRANCH  13  20
ATOM     19  C   UNL     1      28.133  22.198  27.284  0.00  0.00    +0.000 C 
ATOM     20  O   UNL     1      27.308  22.253  26.116  0.00  0.00    +0.000 OA
ENDBRANCH  13  20
ENDBRANCH   1  16
TORSDOF 2
ENDMDL
MODEL 9
REMARK VINA RESULT:      -6.0     17.973     19.797
REMARK  Name = 
REMARK  2 active torsions:
REMARK  status: ('A' for Active; 'I' for Inactive)
REMARK    1  A    between atoms: O_2  and  C_3
REMARK    2  A    between atoms: C_6  and  C_7
REMARK                            x       y       z     vdW  Elec       q    Type
REMARK                         _______ _______ _______ _____ _____    ______ ____
ROOT
ATOM      1  C   UNL     1      33.800   1.278  34.872  0.00  0.00    +0.000 A 
ATOM      2  C   UNL     1      33.849   1.823  33.615  0.00  0.00    +0.000 A 
ATOM      3  C   UNL     1      33.792   0.975  32.378  0.00  0.00    +0.000 C 
ATOM      4  N   UNL     1      33.953   3.177  33.443  0.00  0.00    +0.000 NA
ATOM      5  C   UNL     1      34.013   4.022  34.485  0.00  0.00    +0.000 A 
ATOM      6  C   UNL     1      34.110   5.403  34.631  0.00  0.00    +0.000 A 
ATOM      7  C   UNL     1      34.124   5.673  35.971  0.00  0.00    +0.000 A 
ATOM      8  C   UNL     1      34.216   7.015  36.651  0.00  0.00    +0.000 C 
ATOM      9  N   UNL     1      34.037   4.505  36.632  0.00  0.00    +0.000 NA
ATOM     10  N   UNL     1      33.969   3.507  35.720  0.00  0.00    +0.000 N 
ATOM     11  C   UNL     1      33.867   2.181  35.935  0.00  0.00    +0.000 A 
ATOM     12  N   UNL     1      33.823   1.620  37.238  0.00  0.00    +0.000 NA
ENDROOT
BRANCH   1  16
ATOM     13  C   UNL     1      33.194  -2.883  35.466  0.00  0.00    +0.000 A 
ATOM     14  C   UNL     1      32.142  -2.022  35.334  0.00  0.00    +0.000 A 
ATOM     15  C   UNL     1      32.355  -0.676  35.145  0.00  0.00    +0.000 A 
ATOM     16  C   UNL     1      33.660  -0.149  35.079  0.00  0.00    +0.000 A 
ATOM     17  C   UNL     1      34.699  -1.041  35.215  0.00  0.00    +0.000 A 
ATOM     18  C   UNL     1      34.483  -2.411  35.409  0.00  0.00    +0.000 A 
BRANCH  13  20
ATOM     19  C   UNL     1      31.958  -4.876  34.909  0.00  0.00    +0.000 C 
ATOM     20  O   UNL     1      32.993  -4.238  35.664  0.00  0.00    +0.000 OA
ENDBRANCH  13  20
ENDBRANCH   1  16
TORSDOF 2
ENDMDL
MODEL 10
REMARK VINA RESULT:      -5.9      8.197     10.706
REMARK  Name = 
REMARK  2 active torsions:
REMARK  status: ('A' for Active; 'I' for Inactive)
REMARK    1  A    between atoms: O_2  and  C_3
REMARK    2  A    between atoms: C_6  and  C_7
REMARK                            x       y       z     vdW  Elec       q    Type
REMARK                         _______ _______ _______ _____ _____    ______ ____
ROOT
ATOM      1  C   UNL     1      20.783   3.470  41.336  0.00  0.00    +0.000 A 
ATOM      2  C   UNL     1      21.936   3.772  42.013  0.00  0.00    +0.000 A 
ATOM      3  C   UNL     1      22.160   5.118  42.640  0.00  0.00    +0.000 C 
ATOM      4  N   UNL     1      22.935   2.847  42.143  0.00  0.00    +0.000 NA
ATOM      5  C   UNL     1      22.833   1.615  41.618  0.00  0.00    +0.000 A 
ATOM      6  C   UNL     1      23.647   0.486  41.587  0.00  0.00    +0.000 A 
ATOM      7  C   UNL     1      22.979  -0.482  40.889  0.00  0.00    +0.000 A 
ATOM      8  C   UNL     1      23.430  -1.885  40.575  0.00  0.00    +0.000 C 
ATOM      9  N   UNL     1      21.795   0.028  40.503  0.00  0.00    +0.000 NA
ATOM     10  N   UNL     1      21.716   1.301  40.951  0.00  0.00    +0.000 N 
ATOM     11  C   UNL     1      20.708   2.182  40.799  0.00  0.00    +0.000 A 
ATOM     12  N   UNL     1      19.518   1.867  40.092  0.00  0.00    +0.000 NA
ENDROOT
BRANCH   1  16
ATOM     13  C   UNL     1      17.528   6.189  41.135  0.00  0.00    +0.000 A 
ATOM     14  C   UNL     1      17.610   5.249  42.122  0.00  0.00    +0.000 A 
ATOM     15  C   UNL     1      18.670   4.373  42.172  0.00  0.00    +0.000 A 
ATOM     16  C   UNL     1      19.698   4.423  41.211  0.00  0.00    +0.000 A 
ATOM     17  C   UNL     1      19.589   5.381  40.230  0.00  0.00    +0.000 A 
ATOM     18  C   UNL     1      18.510   6.272  40.178  0.00  0.00    +0.000 A 
BRANCH  13  20
ATOM     19  C   UNL     1      16.756   8.451  40.823  0.00  0.00    +0.000 C 
ATOM     20  O   UNL     1      16.464   7.072  41.070  0.00  0.00    +0.000 OA
ENDBRANCH  13  20
ENDBRANCH   1  16
TORSDOF 2
ENDMDL
