MODEL 1
REMARK VINA RESULT:      -6.7      0.000      0.000
REMARK  Name = 
REMARK  4 active torsions:
REMARK  status: ('A' for Active; 'I' for Inactive)
REMARK    1  A    between atoms: N_8  and  N_9
REMARK    2  A    between atoms: C_10  and  C_12
REMARK    3  A    between atoms: C_12  and  N_13
REMARK    4  A    between atoms: N_13  and  C_14
REMARK                            x       y       z     vdW  Elec       q    Type
REMARK                         _______ _______ _______ _____ _____    ______ ____
ROOT
ATOM      1  N   UNL     1      16.641  10.726  37.255  0.00  0.00    +0.000 NA
ATOM      2  C   UNL     1      15.304  11.237  37.238  0.00  0.00    +0.000 C 
ATOM      3  O   UNL     1      14.631  11.210  38.303  0.00  0.00    +0.000 OA
ENDROOT
BRANCH   1  11
ATOM      4  C   UNL     1      18.545   8.173  39.624  0.00  0.00    +0.000 C 
ATOM      5  C   UNL     1      18.704   9.698  40.222  0.00  0.00    +0.000 C 
ATOM      6  C   UNL     1      20.312   9.722  39.972  0.00  0.00    +0.000 C 
ATOM      7  C   UNL     1      20.625  11.192  40.257  0.00  0.00    +0.000 C 
ATOM      8  C   UNL     1      20.282  11.948  38.989  0.00  0.00    +0.000 C 
ATOM      9  C   UNL     1      19.336  11.157  38.120  0.00  0.00    +0.000 C 
ATOM     10  C   UNL     1      18.352  10.388  38.842  0.00  0.00    +0.000 C 
ATOM     11  N   UNL     1      17.162  10.221  38.422  0.00  0.00    +0.000 NA
ENDBRANCH   1  11
BRANCH   2  12
ATOM     12  C   UNL     1      14.753  11.781  35.973  0.00  0.00    +0.000 C 
BRANCH  12  13
ATOM     13  N   UNL     1      15.673  11.440  34.909  0.00  0.00    +0.000 NA
BRANCH  13  14
ATOM     14  C   UNL     1      15.343  11.879  33.593  0.00  0.00    +0.000 A 
ATOM     15  C   UNL     1      14.478  12.905  33.318  0.00  0.00    +0.000 A 
ATOM     16  C   UNL     1      14.180  13.305  32.036  0.00  0.00    +0.000 A 
ATOM     17  C   UNL     1      14.784  12.636  31.005  0.00  0.00    +0.000 A 
ATOM     18  F   UNL     1      14.505  13.013  29.725  0.00  0.00    +0.000 F 
ATOM     19  C   UNL     1      15.659  11.599  31.222  0.00  0.00    +0.000 A 
ATOM     20  C   UNL     1      15.932  11.228  32.520  0.00  0.00    +0.000 A 
ENDBRANCH  13  14
ENDBRANCH  12  13
ENDBRANCH   2  12
TORSDOF 4
ENDMDL
MODEL 2
REMARK VINA RESULT:      -6.6      4.446      8.103
REMARK  Name = 
REMARK  4 active torsions:
REMARK  status: ('A' for Active; 'I' for Inactive)
REMARK    1  A    between atoms: N_8  and  N_9
REMARK    2  A    between atoms: C_10  and  C_12
REMARK    3  A    between atoms: C_12  and  N_13
REMARK    4  A    between atoms: N_13  and  C_14
REMARK                            x       y       z     vdW  Elec       q    Type
REMARK                         _______ _______ _______ _____ _____    ______ ____
ROOT
ATOM      1  N   UNL     1      17.952   9.822  36.607  0.00  0.00    +0.000 NA
ATOM      2  C   UNL     1      18.904  10.472  37.456  0.00  0.00    +0.000 C 
ATOM      3  O   UNL     1      18.627  11.613  37.914  0.00  0.00    +0.000 OA
ENDROOT
BRANCH   1  11
ATOM      4  C   UNL     1      15.430  12.833  36.032  0.00  0.00    +0.000 C 
ATOM      5  C   UNL     1      14.988  11.560  35.088  0.00  0.00    +0.000 C 
ATOM      6  C   UNL     1      15.306  12.362  33.708  0.00  0.00    +0.000 C 
ATOM      7  C   UNL     1      15.176  11.233  32.683  0.00  0.00    +0.000 C 
ATOM      8  C   UNL     1      16.495  10.487  32.710  0.00  0.00    +0.000 C 
ATOM      9  C   UNL     1      17.245  10.749  33.993  0.00  0.00    +0.000 C 
ATOM     10  C   UNL     1      16.412  10.874  35.164  0.00  0.00    +0.000 C 
ATOM     11  N   UNL     1      16.765  10.447  36.310  0.00  0.00    +0.000 NA
ENDBRANCH   1  11
BRANCH   2  12
ATOM     12  C   UNL     1      20.181   9.787  37.769  0.00  0.00    +0.000 C 
BRANCH  12  13
ATOM     13  N   UNL     1      20.985   9.780  36.566  0.00  0.00    +0.000 NA
BRANCH  13  14
ATOM     14  C   UNL     1      22.402   9.776  36.725  0.00  0.00    +0.000 A 
ATOM     15  C   UNL     1      23.282  10.263  35.795  0.00  0.00    +0.000 A 
ATOM     16  C   UNL     1      24.646  10.244  35.979  0.00  0.00    +0.000 A 
ATOM     17  C   UNL     1      25.122   9.712  37.147  0.00  0.00    +0.000 A 
ATOM     18  F   UNL     1      26.469   9.682  37.353  0.00  0.00    +0.000 F 
ATOM     19  C   UNL     1      24.285   9.209  38.114  0.00  0.00    +0.000 A 
ATOM     20  C   UNL     1      22.927   9.246  37.894  0.00  0.00    +0.000 A 
ENDBRANCH  13  14
ENDBRANCH  12  13
ENDBRANCH   2  12
TORSDOF 4
ENDMDL
MODEL 3
REMARK VINA RESULT:      -6.6     22.972     25.342
REMARK  Name = 
REMARK  4 active torsions:
REMARK  status: ('A' for Active; 'I' for Inactive)
REMARK    1  A    between atoms: N_8  and  N_9
REMARK    2  A    between atoms: C_10  and  C_12
REMARK    3  A    between atoms: C_12  and  N_13
REMARK    4  A    between atoms: N_13  and  C_14
REMARK                            x       y       z     vdW  Elec       q    Type
REMARK                         _______ _______ _______ _____ _____    ______ ____
ROOT
ATOM      1  N   UNL     1      29.283  26.585  20.528  0.00  0.00    +0.000 NA
ATOM      2  C   UNL     1      29.166  25.334  21.216  0.00  0.00    +0.000 C 
ATOM      3  O   UNL     1      29.779  24.332  20.759  0.00  0.00    +0.000 OA
ENDROOT
BRANCH   1  11
ATOM      4  C   UNL     1      30.107  27.044  16.673  0.00  0.00    +0.000 C 
ATOM      5  C   UNL     1      31.382  27.565  17.571  0.00  0.00    +0.000 C 
ATOM      6  C   UNL     1      31.200  29.109  17.092  0.00  0.00    +0.000 C 
ATOM      7  C   UNL     1      32.179  29.819  18.029  0.00  0.00    +0.000 C 
ATOM      8  C   UNL     1      31.447  30.000  19.344  0.00  0.00    +0.000 C 
ATOM      9  C   UNL     1      30.286  29.043  19.459  0.00  0.00    +0.000 C 
ATOM     10  C   UNL     1      30.520  27.739  18.886  0.00  0.00    +0.000 C 
ATOM     11  N   UNL     1      30.054  26.669  19.395  0.00  0.00    +0.000 NA
ENDBRANCH   1  11
BRANCH   2  12
ATOM     12  C   UNL     1      28.331  25.256  22.439  0.00  0.00    +0.000 C 
BRANCH  12  13
ATOM     13  N   UNL     1      28.074  23.858  22.709  0.00  0.00    +0.000 NA
BRANCH  13  14
ATOM     14  C   UNL     1      28.576  23.325  23.932  0.00  0.00    +0.000 A 
ATOM     15  C   UNL     1      27.812  23.112  25.049  0.00  0.00    +0.000 A 
ATOM     16  C   UNL     1      28.327  22.595  26.216  0.00  0.00    +0.000 A 
ATOM     17  C   UNL     1      29.661  22.287  26.240  0.00  0.00    +0.000 A 
ATOM     18  F   UNL     1      30.195  21.773  27.384  0.00  0.00    +0.000 F 
ATOM     19  C   UNL     1      30.474  22.479  25.149  0.00  0.00    +0.000 A 
ATOM     20  C   UNL     1      29.922  22.998  24.000  0.00  0.00    +0.000 A 
ENDBRANCH  13  14
ENDBRANCH  12  13
ENDBRANCH   2  12
TORSDOF 4
ENDMDL
MODEL 4
REMARK VINA RESULT:      -6.5      2.681      3.140
REMARK  Name = 
REMARK  4 active torsions:
REMARK  status: ('A' for Active; 'I' for Inactive)
REMARK    1  A    between atoms: N_8  and  N_9
REMARK    2  A    between atoms: C_10  and  C_12
REMARK    3  A    between atoms: C_12  and  N_13
REMARK    4  A    between atoms: N_13  and  C_14
REMARK                            x       y       z     vdW  Elec       q    Type
REMARK                         _______ _______ _______ _____ _____    ______ ____
ROOT
ATOM      1  N   UNL     1      19.355  10.615  37.364  0.00  0.00    +0.000 NA
ATOM      2  C   UNL     1      18.105  10.088  37.820  0.00  0.00    +0.000 C 
ATOM      3  O   UNL     1      18.060   9.518  38.943  0.00  0.00    +0.000 OA
ENDROOT
BRANCH   1  11
ATOM      4  C   UNL     1      22.031   8.825  39.687  0.00  0.00    +0.000 C 
ATOM      5  C   UNL     1      22.752  10.057  38.870  0.00  0.00    +0.000 C 
ATOM      6  C   UNL     1      23.713   9.052  38.025  0.00  0.00    +0.000 C 
ATOM      7  C   UNL     1      24.317  10.020  37.005  0.00  0.00    +0.000 C 
ATOM      8  C   UNL     1      23.284  10.173  35.907  0.00  0.00    +0.000 C 
ATOM      9  C   UNL     1      21.911   9.772  36.388  0.00  0.00    +0.000 C 
ATOM     10  C   UNL     1      21.627  10.120  37.759  0.00  0.00    +0.000 C 
ATOM     11  N   UNL     1      20.474  10.490  38.152  0.00  0.00    +0.000 NA
ENDBRANCH   1  11
BRANCH   2  12
ATOM     12  C   UNL     1      16.904  10.230  36.961  0.00  0.00    +0.000 C 
BRANCH  12  13
ATOM     13  N   UNL     1      17.330  10.108  35.584  0.00  0.00    +0.000 NA
BRANCH  13  14
ATOM     14  C   UNL     1      16.563  10.796  34.598  0.00  0.00    +0.000 A 
ATOM     15  C   UNL     1      15.577  11.703  34.885  0.00  0.00    +0.000 A 
ATOM     16  C   UNL     1      14.854  12.351  33.910  0.00  0.00    +0.000 A 
ATOM     17  C   UNL     1      15.149  12.063  32.604  0.00  0.00    +0.000 A 
ATOM     18  F   UNL     1      14.447  12.692  31.620  0.00  0.00    +0.000 F 
ATOM     19  C   UNL     1      16.127  11.163  32.259  0.00  0.00    +0.000 A 
ATOM     20  C   UNL     1      16.829  10.534  33.263  0.00  0.00    +0.000 A 
ENDBRANCH  13  14
ENDBRANCH  12  13
ENDBRANCH   2  12
TORSDOF 4
ENDMDL
MODEL 5
REMARK VINA RESULT:      -6.3     23.284     25.875
REMARK  Name = 
REMARK  4 active torsions:
REMARK  status: ('A' for Active; 'I' for Inactive)
REMARK    1  A    between atoms: N_8  and  N_9
REMARK    2  A    between atoms: C_10  and  C_12
REMARK    3  A    between atoms: C_12  and  N_13
REMARK    4  A    between atoms: N_13  and  C_14
REMARK                            x       y       z     vdW  Elec       q    Type
REMARK                         _______ _______ _______ _____ _____    ______ ____
ROOT
ATOM      1  N   UNL     1      29.895  26.016  19.594  0.00  0.00    +0.000 NA
ATOM      2  C   UNL     1      29.267  26.154  20.873  0.00  0.00    +0.000 C 
ATOM      3  O   UNL     1      29.248  27.290  21.419  0.00  0.00    +0.000 OA
ENDROOT
BRANCH   1  11
ATOM      4  C   UNL     1      32.633  28.139  17.656  0.00  0.00    +0.000 C 
ATOM      5  C   UNL     1      31.136  28.726  17.307  0.00  0.00    +0.000 C 
ATOM      6  C   UNL     1      31.239  28.298  15.740  0.00  0.00    +0.000 C 
ATOM      7  C   UNL     1      29.804  28.556  15.277  0.00  0.00    +0.000 C 
ATOM      8  C   UNL     1      29.002  27.340  15.695  0.00  0.00    +0.000 C 
ATOM      9  C   UNL     1      29.699  26.577  16.794  0.00  0.00    +0.000 C 
ATOM     10  C   UNL     1      30.397  27.399  17.752  0.00  0.00    +0.000 C 
ATOM     11  N   UNL     1      30.460  27.113  18.990  0.00  0.00    +0.000 NA
ENDBRANCH   1  11
BRANCH   2  12
ATOM     12  C   UNL     1      28.660  24.963  21.514  0.00  0.00    +0.000 C 
BRANCH  12  13
ATOM     13  N   UNL     1      29.728  24.193  22.113  0.00  0.00    +0.000 NA
BRANCH  13  14
ATOM     14  C   UNL     1      29.478  23.612  23.392  0.00  0.00    +0.000 A 
ATOM     15  C   UNL     1      30.459  23.196  24.253  0.00  0.00    +0.000 A 
ATOM     16  C   UNL     1      30.185  22.639  25.481  0.00  0.00    +0.000 A 
ATOM     17  C   UNL     1      28.871  22.504  25.838  0.00  0.00    +0.000 A 
ATOM     18  F   UNL     1      28.573  21.955  27.050  0.00  0.00    +0.000 F 
ATOM     19  C   UNL     1      27.846  22.904  25.014  0.00  0.00    +0.000 A 
ATOM     20  C   UNL     1      28.160  23.457  23.793  0.00  0.00    +0.000 A 
ENDBRANCH  13  14
ENDBRANCH  12  13
ENDBRANCH   2  12
TORSDOF 4
ENDMDL
MODEL 6
REMARK VINA RESULT:      -6.2      3.553      4.860
REMARK  Name = 
REMARK  4 active torsions:
REMARK  status: ('A' for Active; 'I' for Inactive)
REMARK    1  A    between atoms: N_8  and  N_9
REMARK    2  A    between atoms: C_10  and  C_12
REMARK    3  A    between atoms: C_12  and  N_13
REMARK    4  A    between atoms: N_13  and  C_14
REMARK                            x       y       z     vdW  Elec       q    Type
REMARK                         _______ _______ _______ _____ _____    ______ ____
ROOT
ATOM      1  N   UNL     1      20.409   9.751  37.536  0.00  0.00    +0.000 NA
ATOM      2  C   UNL     1      19.159  10.084  38.149  0.00  0.00    +0.000 C 
ATOM      3  O   UNL     1      19.158  10.485  39.344  0.00  0.00    +0.000 OA
ENDROOT
BRANCH   1  11
ATOM      4  C   UNL     1      23.495   8.601  39.752  0.00  0.00    +0.000 C 
ATOM      5  C   UNL     1      23.930   9.899  38.840  0.00  0.00    +0.000 C 
ATOM      6  C   UNL     1      25.010   9.042  37.977  0.00  0.00    +0.000 C 
ATOM      7  C   UNL     1      25.368  10.049  36.882  0.00  0.00    +0.000 C 
ATOM      8  C   UNL     1      24.264   9.955  35.847  0.00  0.00    +0.000 C 
ATOM      9  C   UNL     1      23.018   9.337  36.432  0.00  0.00    +0.000 C 
ATOM     10  C   UNL     1      22.752   9.698  37.803  0.00  0.00    +0.000 C 
ATOM     11  N   UNL     1      21.574   9.873  38.254  0.00  0.00    +0.000 NA
ENDBRANCH   1  11
BRANCH   2  12
ATOM     12  C   UNL     1      17.909   9.950  37.363  0.00  0.00    +0.000 C 
BRANCH  12  13
ATOM     13  N   UNL     1      16.808  10.341  38.215  0.00  0.00    +0.000 NA
BRANCH  13  14
ATOM     14  C   UNL     1      15.746  11.080  37.615  0.00  0.00    +0.000 A 
ATOM     15  C   UNL     1      14.449  11.059  38.055  0.00  0.00    +0.000 A 
ATOM     16  C   UNL     1      13.446  11.784  37.454  0.00  0.00    +0.000 A 
ATOM     17  C   UNL     1      13.780  12.553  36.371  0.00  0.00    +0.000 A 
ATOM     18  F   UNL     1      12.804  13.281  35.758  0.00  0.00    +0.000 F 
ATOM     19  C   UNL     1      15.064  12.612  35.887  0.00  0.00    +0.000 A 
ATOM     20  C   UNL     1      16.041  11.872  36.515  0.00  0.00    +0.000 A 
ENDBRANCH  13  14
ENDBRANCH  12  13
ENDBRANCH   2  12
TORSDOF 4
ENDMDL
MODEL 7
REMARK VINA RESULT:      -6.1     20.435     22.551
REMARK  Name = 
REMARK  4 active torsions:
REMARK  status: ('A' for Active; 'I' for Inactive)
REMARK    1  A    between atoms: N_8  and  N_9
REMARK    2  A    between atoms: C_10  and  C_12
REMARK    3  A    between atoms: C_12  and  N_13
REMARK    4  A    between atoms: N_13  and  C_14
REMARK                            x       y       z     vdW  Elec       q    Type
REMARK                         _______ _______ _______ _____ _____    ______ ____
ROOT
ATOM      1  N   UNL     1      33.871  -4.220  33.401  0.00  0.00    +0.000 NA
ATOM      2  C   UNL     1      33.171  -3.267  34.208  0.00  0.00    +0.000 C 
ATOM      3  O   UNL     1      31.998  -3.538  34.584  0.00  0.00    +0.000 OA
ENDROOT
BRANCH   1  11
ATOM      4  C   UNL     1      30.909  -6.668  32.408  0.00  0.00    +0.000 C 
ATOM      5  C   UNL     1      32.312  -7.206  31.738  0.00  0.00    +0.000 C 
ATOM      6  C   UNL     1      31.790  -6.942  30.220  0.00  0.00    +0.000 C 
ATOM      7  C   UNL     1      33.080  -7.168  29.429  0.00  0.00    +0.000 C 
ATOM      8  C   UNL     1      33.865  -5.876  29.527  0.00  0.00    +0.000 C 
ATOM      9  C   UNL     1      33.407  -5.045  30.700  0.00  0.00    +0.000 C 
ATOM     10  C   UNL     1      33.034  -5.804  31.869  0.00  0.00    +0.000 C 
ATOM     11  N   UNL     1      33.260  -5.400  33.054  0.00  0.00    +0.000 NA
ENDBRANCH   1  11
BRANCH   2  12
ATOM     12  C   UNL     1      33.842  -1.998  34.576  0.00  0.00    +0.000 C 
BRANCH  12  13
ATOM     13  N   UNL     1      33.914  -1.176  33.387  0.00  0.00    +0.000 NA
BRANCH  13  14
ATOM     14  C   UNL     1      33.838   0.237  33.562  0.00  0.00    +0.000 A 
ATOM     15  C   UNL     1      33.623   0.852  34.767  0.00  0.00    +0.000 A 
ATOM     16  C   UNL     1      33.555   2.220  34.904  0.00  0.00    +0.000 A 
ATOM     17  C   UNL     1      33.712   2.979  33.775  0.00  0.00    +0.000 A 
ATOM     18  F   UNL     1      33.650   4.337  33.884  0.00  0.00    +0.000 F 
ATOM     19  C   UNL     1      33.931   2.415  32.541  0.00  0.00    +0.000 A 
ATOM     20  C   UNL     1      33.992   1.043  32.445  0.00  0.00    +0.000 A 
ENDBRANCH  13  14
ENDBRANCH  12  13
ENDBRANCH   2  12
TORSDOF 4
ENDMDL
MODEL 8
REMARK VINA RESULT:      -6.1     21.295     23.223
REMARK  Name = 
REMARK  4 active torsions:
REMARK  status: ('A' for Active; 'I' for Inactive)
REMARK    1  A    between atoms: N_8  and  N_9
REMARK    2  A    between atoms: C_10  and  C_12
REMARK    3  A    between atoms: C_12  and  N_13
REMARK    4  A    between atoms: N_13  and  C_14
REMARK                            x       y       z     vdW  Elec       q    Type
REMARK                         _______ _______ _______ _____ _____    ______ ____
ROOT
ATOM      1  N   UNL     1      13.833  -8.073  26.005  0.00  0.00    +0.000 NA
ATOM      2  C   UNL     1      15.142  -8.543  25.665  0.00  0.00    +0.000 C 
ATOM      3  O   UNL     1      15.327  -9.051  24.526  0.00  0.00    +0.000 OA
ENDROOT
BRANCH   1  11
ATOM      4  C   UNL     1      11.612  -9.723  23.159  0.00  0.00    +0.000 C 
ATOM      5  C   UNL     1      10.676  -8.732  24.078  0.00  0.00    +0.000 C 
ATOM      6  C   UNL     1       9.778  -9.963  24.647  0.00  0.00    +0.000 C 
ATOM      7  C   UNL     1       8.971  -9.252  25.736  0.00  0.00    +0.000 C 
ATOM      8  C   UNL     1       9.878  -9.176  26.948  0.00  0.00    +0.000 C 
ATOM      9  C   UNL     1      11.326  -9.339  26.559  0.00  0.00    +0.000 C 
ATOM     10  C   UNL     1      11.684  -8.737  25.298  0.00  0.00    +0.000 C 
ATOM     11  N   UNL     1      12.811  -8.183  25.093  0.00  0.00    +0.000 NA
ENDBRANCH   1  11
BRANCH   2  12
ATOM     12  C   UNL     1      16.236  -8.418  26.657  0.00  0.00    +0.000 C 
BRANCH  12  13
ATOM     13  N   UNL     1      16.767  -7.076  26.563  0.00  0.00    +0.000 NA
BRANCH  13  14
ATOM     14  C   UNL     1      18.140  -6.938  26.205  0.00  0.00    +0.000 A 
ATOM     15  C   UNL     1      18.936  -7.975  25.794  0.00  0.00    +0.000 A 
ATOM     16  C   UNL     1      20.259  -7.809  25.455  0.00  0.00    +0.000 A 
ATOM     17  C   UNL     1      20.783  -6.547  25.539  0.00  0.00    +0.000 A 
ATOM     18  F   UNL     1      22.092  -6.357  25.208  0.00  0.00    +0.000 F 
ATOM     19  C   UNL     1      20.031  -5.471  25.944  0.00  0.00    +0.000 A 
ATOM     20  C   UNL     1      18.711  -5.676  26.275  0.00  0.00    +0.000 A 
ENDBRANCH  13  14
ENDBRANCH  12  13
ENDBRANCH   2  12
TORSDOF 4
ENDMDL
MODEL 9
REMARK VINA RESULT:      -6.1      6.117      7.633
REMARK  Name = 
REMARK  4 active torsions:
REMARK  status: ('A' for Active; 'I' for Inactive)
REMARK    1  A    between atoms: N_8  and  N_9
REMARK    2  A    between atoms: C_10  and  C_12
REMARK    3  A    between atoms: C_12  and  N_13
REMARK    4  A    between atoms: N_13  and  C_14
REMARK                            x       y       z     vdW  Elec       q    Type
REMARK                         _______ _______ _______ _____ _____    ______ ____
ROOT
ATOM      1  N   UNL     1      19.618   8.620  39.373  0.00  0.00    +0.000 NA
ATOM      2  C   UNL     1      19.363   9.341  38.163  0.00  0.00    +0.000 C 
ATOM      3  O   UNL     1      18.317   9.080  37.510  0.00  0.00    +0.000 OA
ENDROOT
BRANCH   1  11
ATOM      4  C   UNL     1      18.175   5.679  41.616  0.00  0.00    +0.000 C 
ATOM      5  C   UNL     1      16.929   6.557  40.996  0.00  0.00    +0.000 C 
ATOM      6  C   UNL     1      16.459   7.087  42.461  0.00  0.00    +0.000 C 
ATOM      7  C   UNL     1      15.421   8.140  42.067  0.00  0.00    +0.000 C 
ATOM      8  C   UNL     1      16.202   9.390  41.717  0.00  0.00    +0.000 C 
ATOM      9  C   UNL     1      17.640   9.064  41.394  0.00  0.00    +0.000 C 
ATOM     10  C   UNL     1      17.833   7.820  40.690  0.00  0.00    +0.000 C 
ATOM     11  N   UNL     1      18.726   7.664  39.797  0.00  0.00    +0.000 NA
ENDBRANCH   1  11
BRANCH   2  12
ATOM     12  C   UNL     1      20.332  10.371  37.717  0.00  0.00    +0.000 C 
BRANCH  12  13
ATOM     13  N   UNL     1      21.096   9.813  36.623  0.00  0.00    +0.000 NA
BRANCH  13  14
ATOM     14  C   UNL     1      22.516   9.814  36.748  0.00  0.00    +0.000 A 
ATOM     15  C   UNL     1      23.369  10.367  35.829  0.00  0.00    +0.000 A 
ATOM     16  C   UNL     1      24.737  10.352  35.978  0.00  0.00    +0.000 A 
ATOM     17  C   UNL     1      25.247   9.756  37.100  0.00  0.00    +0.000 A 
ATOM     18  F   UNL     1      26.598   9.729  37.272  0.00  0.00    +0.000 F 
ATOM     19  C   UNL     1      24.439   9.186  38.055  0.00  0.00    +0.000 A 
ATOM     20  C   UNL     1      23.075   9.221  37.869  0.00  0.00    +0.000 A 
ENDBRANCH  13  14
ENDBRANCH  12  13
ENDBRANCH   2  12
TORSDOF 4
ENDMDL
MODEL 10
REMARK VINA RESULT:      -6.1      3.280      4.495
REMARK  Name = 
REMARK  4 active torsions:
REMARK  status: ('A' for Active; 'I' for Inactive)
REMARK    1  A    between atoms: N_8  and  N_9
REMARK    2  A    between atoms: C_10  and  C_12
REMARK    3  A    between atoms: C_12  and  N_13
REMARK    4  A    between atoms: N_13  and  C_14
REMARK                            x       y       z     vdW  Elec       q    Type
REMARK                         _______ _______ _______ _____ _____    ______ ____
ROOT
ATOM      1  N   UNL     1      19.376  10.528  38.216  0.00  0.00    +0.000 NA
ATOM      2  C   UNL     1      19.013   9.965  36.951  0.00  0.00    +0.000 C 
ATOM      3  O   UNL     1      19.925   9.687  36.126  0.00  0.00    +0.000 OA
ENDROOT
BRANCH   1  11
ATOM      4  C   UNL     1      23.238  11.129  37.521  0.00  0.00    +0.000 C 
ATOM      5  C   UNL     1      22.810  11.878  38.922  0.00  0.00    +0.000 C 
ATOM      6  C   UNL     1      23.094  13.362  38.318  0.00  0.00    +0.000 C 
ATOM      7  C   UNL     1      22.514  14.240  39.429  0.00  0.00    +0.000 C 
ATOM      8  C   UNL     1      21.018  14.283  39.193  0.00  0.00    +0.000 C 
ATOM      9  C   UNL     1      20.566  13.129  38.333  0.00  0.00    +0.000 C 
ATOM     10  C   UNL     1      21.268  11.890  38.568  0.00  0.00    +0.000 C 
ATOM     11  N   UNL     1      20.700  10.753  38.506  0.00  0.00    +0.000 NA
ENDBRANCH   1  11
BRANCH   2  12
ATOM     12  C   UNL     1      17.581   9.726  36.649  0.00  0.00    +0.000 C 
BRANCH  12  13
ATOM     13  N   UNL     1      16.798  10.408  37.657  0.00  0.00    +0.000 NA
BRANCH  13  14
ATOM     14  C   UNL     1      15.679  11.171  37.212  0.00  0.00    +0.000 A 
ATOM     15  C   UNL     1      15.673  11.935  36.075  0.00  0.00    +0.000 A 
ATOM     16  C   UNL     1      14.575  12.661  35.672  0.00  0.00    +0.000 A 
ATOM     17  C   UNL     1      13.453  12.603  36.454  0.00  0.00    +0.000 A 
ATOM     18  F   UNL     1      12.352  13.312  36.075  0.00  0.00    +0.000 F 
ATOM     19  C   UNL     1      13.403  11.852  37.604  0.00  0.00    +0.000 A 
ATOM     20  C   UNL     1      14.521  11.139  37.974  0.00  0.00    +0.000 A 
ENDBRANCH  13  14
ENDBRANCH  12  13
ENDBRANCH   2  12
TORSDOF 4
ENDMDL
