MODEL 1
REMARK VINA RESULT:      -8.3      0.000      0.000
REMARK  Name = 
REMARK  9 active torsions:
REMARK  status: ('A' for Active; 'I' for Inactive)
REMARK    1  A    between atoms: C_2  and  C_3
REMARK    2  A    between atoms: C_3  and  C_5
REMARK    3  A    between atoms: C_10  and  N_11
REMARK    4  A    between atoms: C_12  and  C_14
REMARK    5  A    between atoms: C_14  and  O_15
REMARK    6  A    between atoms: O_15  and  C_16
REMARK    7  A    between atoms: C_16  and  C_18
REMARK    8  A    between atoms: C_18  and  C_19
REMARK    9  A    between atoms: C_18  and  C_25
REMARK                            x       y       z     vdW  Elec       q    Type
REMARK                         _______ _______ _______ _____ _____    ______ ____
ROOT
ATOM      1  O   UNL     1      39.378   5.093  16.917  0.00  0.00    +0.000 OA
ENDROOT
BRANCH   1   2
ATOM      2  C   UNL     1      39.126   5.054  18.255  0.00  0.00    +0.000 C 
ATOM      3  O   UNL     1      38.417   4.106  18.646  0.00  0.00    +0.000 OA
BRANCH   2   4
ATOM      4  C   UNL     1      39.638   6.048  19.222  0.00  0.00    +0.000 C 
BRANCH   4   5
ATOM      5  C   UNL     1      41.073   6.324  19.082  0.00  0.00    +0.000 A 
ATOM      6  C   UNL     1      41.729   6.620  17.916  0.00  0.00    +0.000 A 
ATOM      7  C   UNL     1      43.080   6.865  17.936  0.00  0.00    +0.000 A 
ATOM      8  C   UNL     1      43.798   6.821  19.097  0.00  0.00    +0.000 A 
ATOM      9  C   UNL     1      43.158   6.529  20.264  0.00  0.00    +0.000 A 
ATOM     10  C   UNL     1      41.822   6.286  20.246  0.00  0.00    +0.000 A 
ENDBRANCH   4   5
BRANCH   4  11
ATOM     11  C   UNL     1      38.830   7.260  19.352  0.00  0.00    +0.000 A 
ATOM     12  C   UNL     1      37.972   7.743  18.382  0.00  0.00    +0.000 A 
ATOM     13  C   UNL     1      37.296   8.898  18.660  0.00  0.00    +0.000 A 
ATOM     14  C   UNL     1      37.450   9.568  19.852  0.00  0.00    +0.000 A 
ATOM     15  C   UNL     1      38.296   9.089  20.805  0.00  0.00    +0.000 A 
ATOM     16  C   UNL     1      38.981   7.945  20.561  0.00  0.00    +0.000 A 
ENDBRANCH   4  11
ENDBRANCH   2   4
ENDBRANCH   1   2
BRANCH   1  17
ATOM     17  C   UNL     1      38.563   5.217  15.853  0.00  0.00    +0.000 C 
BRANCH  17  19
ATOM     18  N   UNL     1      38.346   2.776  15.689  0.00  0.00    +0.000 NA
ATOM     19  C   UNL     1      38.075   4.068  15.147  0.00  0.00    +0.000 C 
ATOM     20  O   UNL     1      37.423   4.002  14.093  0.00  0.00    +0.000 OA
BRANCH  18  26
ATOM     21  C   UNL     1      36.780   1.013  15.613  0.00  0.00    +0.000 A 
ATOM     22  C   UNL     1      36.252  -0.160  15.118  0.00  0.00    +0.000 A 
ATOM     23  C   UNL     1      36.857  -0.826  14.062  0.00  0.00    +0.000 A 
ATOM     24  C   UNL     1      38.003  -0.279  13.522  0.00  0.00    +0.000 A 
ATOM     25  C   UNL     1      38.509   0.915  14.051  0.00  0.00    +0.000 A 
ATOM     26  C   UNL     1      37.918   1.575  15.091  0.00  0.00    +0.000 A 
BRANCH  21  27
ATOM     27  C   UNL     1      36.071   1.703  16.834  0.00  0.00    +0.000 C 
ATOM     28  C   UNL     1      34.793   2.358  16.082  0.00  0.00    +0.000 C 
BRANCH  27  30
ATOM     29  C   UNL     1      35.769   0.093  18.782  0.00  0.00    +0.000 C 
ATOM     30  C   UNL     1      35.299   0.439  17.430  0.00  0.00    +0.000 C 
ENDBRANCH  27  30
ENDBRANCH  21  27
ENDBRANCH  18  26
ENDBRANCH  17  19
ENDBRANCH   1  17
TORSDOF 9
ENDMDL
MODEL 2
REMARK VINA RESULT:      -8.2      1.339      2.726
REMARK  Name = 
REMARK  9 active torsions:
REMARK  status: ('A' for Active; 'I' for Inactive)
REMARK    1  A    between atoms: C_2  and  C_3
REMARK    2  A    between atoms: C_3  and  C_5
REMARK    3  A    between atoms: C_10  and  N_11
REMARK    4  A    between atoms: C_12  and  C_14
REMARK    5  A    between atoms: C_14  and  O_15
REMARK    6  A    between atoms: O_15  and  C_16
REMARK    7  A    between atoms: C_16  and  C_18
REMARK    8  A    between atoms: C_18  and  C_19
REMARK    9  A    between atoms: C_18  and  C_25
REMARK                            x       y       z     vdW  Elec       q    Type
REMARK                         _______ _______ _______ _____ _____    ______ ____
ROOT
ATOM      1  O   UNL     1      38.617   4.306  16.670  0.00  0.00    +0.000 OA
ENDROOT
BRANCH   1   2
ATOM      2  C   UNL     1      38.821   4.588  17.988  0.00  0.00    +0.000 C 
ATOM      3  O   UNL     1      38.262   3.825  18.799  0.00  0.00    +0.000 OA
BRANCH   2   4
ATOM      4  C   UNL     1      39.645   5.715  18.473  0.00  0.00    +0.000 C 
BRANCH   4   5
ATOM      5  C   UNL     1      40.743   6.077  17.569  0.00  0.00    +0.000 A 
ATOM      6  C   UNL     1      40.681   6.130  16.201  0.00  0.00    +0.000 A 
ATOM      7  C   UNL     1      41.791   6.494  15.479  0.00  0.00    +0.000 A 
ATOM      8  C   UNL     1      42.970   6.806  16.092  0.00  0.00    +0.000 A 
ATOM      9  C   UNL     1      43.047   6.758  17.452  0.00  0.00    +0.000 A 
ATOM     10  C   UNL     1      41.951   6.399  18.167  0.00  0.00    +0.000 A 
ENDBRANCH   4   5
BRANCH   4  11
ATOM     11  C   UNL     1      38.893   6.873  18.953  0.00  0.00    +0.000 A 
ATOM     12  C   UNL     1      37.883   7.503  18.249  0.00  0.00    +0.000 A 
ATOM     13  C   UNL     1      37.285   8.582  18.840  0.00  0.00    +0.000 A 
ATOM     14  C   UNL     1      37.659   9.037  20.084  0.00  0.00    +0.000 A 
ATOM     15  C   UNL     1      38.653   8.413  20.773  0.00  0.00    +0.000 A 
ATOM     16  C   UNL     1      39.266   7.340  20.217  0.00  0.00    +0.000 A 
ENDBRANCH   4  11
ENDBRANCH   2   4
ENDBRANCH   1   2
BRANCH   1  17
ATOM     17  C   UNL     1      37.501   4.294  15.918  0.00  0.00    +0.000 C 
BRANCH  17  19
ATOM     18  N   UNL     1      37.082   1.949  16.516  0.00  0.00    +0.000 NA
ATOM     19  C   UNL     1      36.653   3.139  15.856  0.00  0.00    +0.000 C 
ATOM     20  O   UNL     1      35.553   2.991  15.300  0.00  0.00    +0.000 OA
BRANCH  18  26
ATOM     21  C   UNL     1      36.785  -0.247  15.706  0.00  0.00    +0.000 A 
ATOM     22  C   UNL     1      36.149  -1.467  15.627  0.00  0.00    +0.000 A 
ATOM     23  C   UNL     1      35.020  -1.734  16.387  0.00  0.00    +0.000 A 
ATOM     24  C   UNL     1      34.552  -0.742  17.224  0.00  0.00    +0.000 A 
ATOM     25  C   UNL     1      35.225   0.485  17.278  0.00  0.00    +0.000 A 
ATOM     26  C   UNL     1      36.337   0.753  16.531  0.00  0.00    +0.000 A 
BRANCH  21  27
ATOM     27  C   UNL     1      38.039   0.010  14.794  0.00  0.00    +0.000 C 
ATOM     28  C   UNL     1      38.863  -1.360  15.059  0.00  0.00    +0.000 C 
BRANCH  27  30
ATOM     29  C   UNL     1      36.722   0.693  12.726  0.00  0.00    +0.000 C 
ATOM     30  C   UNL     1      37.425  -0.420  13.385  0.00  0.00    +0.000 C 
ENDBRANCH  27  30
ENDBRANCH  21  27
ENDBRANCH  18  26
ENDBRANCH  17  19
ENDBRANCH   1  17
TORSDOF 9
ENDMDL
MODEL 3
REMARK VINA RESULT:      -7.9      4.955      8.958
REMARK  Name = 
REMARK  9 active torsions:
REMARK  status: ('A' for Active; 'I' for Inactive)
REMARK    1  A    between atoms: C_2  and  C_3
REMARK    2  A    between atoms: C_3  and  C_5
REMARK    3  A    between atoms: C_10  and  N_11
REMARK    4  A    between atoms: C_12  and  C_14
REMARK    5  A    between atoms: C_14  and  O_15
REMARK    6  A    between atoms: O_15  and  C_16
REMARK    7  A    between atoms: C_16  and  C_18
REMARK    8  A    between atoms: C_18  and  C_19
REMARK    9  A    between atoms: C_18  and  C_25
REMARK                            x       y       z     vdW  Elec       q    Type
REMARK                         _______ _______ _______ _____ _____    ______ ____
ROOT
ATOM      1  O   UNL     1      37.181  -0.817  17.835  0.00  0.00    +0.000 OA
ENDROOT
BRANCH   1   2
ATOM      2  C   UNL     1      37.237  -2.092  17.357  0.00  0.00    +0.000 C 
ATOM      3  O   UNL     1      37.547  -2.969  18.187  0.00  0.00    +0.000 OA
BRANCH   2   4
ATOM      4  C   UNL     1      36.957  -2.461  15.954  0.00  0.00    +0.000 C 
BRANCH   4   5
ATOM      5  C   UNL     1      38.159  -2.557  15.117  0.00  0.00    +0.000 A 
ATOM      6  C   UNL     1      38.186  -2.721  13.757  0.00  0.00    +0.000 A 
ATOM      7  C   UNL     1      39.390  -2.788  13.100  0.00  0.00    +0.000 A 
ATOM      8  C   UNL     1      40.576  -2.694  13.771  0.00  0.00    +0.000 A 
ATOM      9  C   UNL     1      40.564  -2.530  15.123  0.00  0.00    +0.000 A 
ATOM     10  C   UNL     1      39.375  -2.464  15.774  0.00  0.00    +0.000 A 
ENDBRANCH   4   5
BRANCH   4  11
ATOM     11  C   UNL     1      36.045  -3.591  15.779  0.00  0.00    +0.000 A 
ATOM     12  C   UNL     1      36.365  -4.910  16.044  0.00  0.00    +0.000 A 
ATOM     13  C   UNL     1      35.397  -5.849  15.818  0.00  0.00    +0.000 A 
ATOM     14  C   UNL     1      34.148  -5.514  15.346  0.00  0.00    +0.000 A 
ATOM     15  C   UNL     1      33.837  -4.214  15.086  0.00  0.00    +0.000 A 
ATOM     16  C   UNL     1      34.774  -3.258  15.300  0.00  0.00    +0.000 A 
ENDBRANCH   4  11
ENDBRANCH   2   4
ENDBRANCH   1   2
BRANCH   1  17
ATOM     17  C   UNL     1      36.159   0.048  17.967  0.00  0.00    +0.000 C 
BRANCH  17  19
ATOM     18  N   UNL     1      37.011   1.630  16.293  0.00  0.00    +0.000 NA
ATOM     19  C   UNL     1      35.900   1.057  16.981  0.00  0.00    +0.000 C 
ATOM     20  O   UNL     1      34.820   1.540  16.604  0.00  0.00    +0.000 OA
BRANCH  18  26
ATOM     21  C   UNL     1      37.146   2.229  14.015  0.00  0.00    +0.000 A 
ATOM     22  C   UNL     1      37.058   3.103  12.952  0.00  0.00    +0.000 A 
ATOM     23  C   UNL     1      36.699   4.428  13.145  0.00  0.00    +0.000 A 
ATOM     24  C   UNL     1      36.433   4.847  14.433  0.00  0.00    +0.000 A 
ATOM     25  C   UNL     1      36.533   3.931  15.487  0.00  0.00    +0.000 A 
ATOM     26  C   UNL     1      36.886   2.624  15.303  0.00  0.00    +0.000 A 
BRANCH  21  27
ATOM     27  C   UNL     1      37.593   0.748  13.739  0.00  0.00    +0.000 C 
ATOM     28  C   UNL     1      36.966   0.538  12.259  0.00  0.00    +0.000 C 
BRANCH  27  30
ATOM     29  C   UNL     1      40.040   1.013  14.389  0.00  0.00    +0.000 C 
ATOM     30  C   UNL     1      39.093   1.017  13.261  0.00  0.00    +0.000 C 
ENDBRANCH  27  30
ENDBRANCH  21  27
ENDBRANCH  18  26
ENDBRANCH  17  19
ENDBRANCH   1  17
TORSDOF 9
ENDMDL
MODEL 4
REMARK VINA RESULT:      -7.7      2.320      8.203
REMARK  Name = 
REMARK  9 active torsions:
REMARK  status: ('A' for Active; 'I' for Inactive)
REMARK    1  A    between atoms: C_2  and  C_3
REMARK    2  A    between atoms: C_3  and  C_5
REMARK    3  A    between atoms: C_10  and  N_11
REMARK    4  A    between atoms: C_12  and  C_14
REMARK    5  A    between atoms: C_14  and  O_15
REMARK    6  A    between atoms: O_15  and  C_16
REMARK    7  A    between atoms: C_16  and  C_18
REMARK    8  A    between atoms: C_18  and  C_19
REMARK    9  A    between atoms: C_18  and  C_25
REMARK                            x       y       z     vdW  Elec       q    Type
REMARK                         _______ _______ _______ _____ _____    ______ ____
ROOT
ATOM      1  O   UNL     1      36.833   1.546  16.873  0.00  0.00    +0.000 OA
ENDROOT
BRANCH   1   2
ATOM      2  C   UNL     1      36.200   0.389  16.532  0.00  0.00    +0.000 C 
ATOM      3  O   UNL     1      34.956   0.406  16.620  0.00  0.00    +0.000 OA
BRANCH   2   4
ATOM      4  C   UNL     1      36.897  -0.833  16.081  0.00  0.00    +0.000 C 
BRANCH   4   5
ATOM      5  C   UNL     1      37.841  -0.603  14.981  0.00  0.00    +0.000 A 
ATOM      6  C   UNL     1      39.157  -0.244  15.107  0.00  0.00    +0.000 A 
ATOM      7  C   UNL     1      39.929  -0.069  13.984  0.00  0.00    +0.000 A 
ATOM      8  C   UNL     1      39.416  -0.243  12.731  0.00  0.00    +0.000 A 
ATOM      9  C   UNL     1      38.108  -0.600  12.590  0.00  0.00    +0.000 A 
ATOM     10  C   UNL     1      37.344  -0.774  13.699  0.00  0.00    +0.000 A 
ENDBRANCH   4   5
BRANCH   4  11
ATOM     11  C   UNL     1      37.454  -1.661  17.150  0.00  0.00    +0.000 A 
ATOM     12  C   UNL     1      37.325  -1.394  18.501  0.00  0.00    +0.000 A 
ATOM     13  C   UNL     1      37.915  -2.268  19.372  0.00  0.00    +0.000 A 
ATOM     14  C   UNL     1      38.612  -3.373  18.942  0.00  0.00    +0.000 A 
ATOM     15  C   UNL     1      38.737  -3.632  17.611  0.00  0.00    +0.000 A 
ATOM     16  C   UNL     1      38.163  -2.786  16.720  0.00  0.00    +0.000 A 
ENDBRANCH   4  11
ENDBRANCH   2   4
ENDBRANCH   1   2
BRANCH   1  17
ATOM     17  C   UNL     1      36.428   2.830  16.858  0.00  0.00    +0.000 C 
BRANCH  17  19
ATOM     18  N   UNL     1      38.565   4.038  16.940  0.00  0.00    +0.000 NA
ATOM     19  C   UNL     1      37.273   3.875  16.357  0.00  0.00    +0.000 C 
ATOM     20  O   UNL     1      37.062   4.704  15.457  0.00  0.00    +0.000 OA
BRANCH  18  26
ATOM     21  C   UNL     1      39.898   5.900  17.503  0.00  0.00    +0.000 A 
ATOM     22  C   UNL     1      40.799   6.910  17.238  0.00  0.00    +0.000 A 
ATOM     23  C   UNL     1      41.328   7.080  15.967  0.00  0.00    +0.000 A 
ATOM     24  C   UNL     1      40.927   6.207  14.975  0.00  0.00    +0.000 A 
ATOM     25  C   UNL     1      40.011   5.194  15.283  0.00  0.00    +0.000 A 
ATOM     26  C   UNL     1      39.486   5.023  16.533  0.00  0.00    +0.000 A 
BRANCH  21  27
ATOM     27  C   UNL     1      39.305   5.781  18.953  0.00  0.00    +0.000 C 
ATOM     28  C   UNL     1      40.622   6.145  19.825  0.00  0.00    +0.000 C 
BRANCH  27  30
ATOM     29  C   UNL     1      38.923   7.877  20.345  0.00  0.00    +0.000 C 
ATOM     30  C   UNL     1      38.613   7.215  19.067  0.00  0.00    +0.000 C 
ENDBRANCH  27  30
ENDBRANCH  21  27
ENDBRANCH  18  26
ENDBRANCH  17  19
ENDBRANCH   1  17
TORSDOF 9
ENDMDL
MODEL 5
REMARK VINA RESULT:      -7.6      0.959      4.066
REMARK  Name = 
REMARK  9 active torsions:
REMARK  status: ('A' for Active; 'I' for Inactive)
REMARK    1  A    between atoms: C_2  and  C_3
REMARK    2  A    between atoms: C_3  and  C_5
REMARK    3  A    between atoms: C_10  and  N_11
REMARK    4  A    between atoms: C_12  and  C_14
REMARK    5  A    between atoms: C_14  and  O_15
REMARK    6  A    between atoms: O_15  and  C_16
REMARK    7  A    between atoms: C_16  and  C_18
REMARK    8  A    between atoms: C_18  and  C_19
REMARK    9  A    between atoms: C_18  and  C_25
REMARK                            x       y       z     vdW  Elec       q    Type
REMARK                         _______ _______ _______ _____ _____    ______ ____
ROOT
ATOM      1  O   UNL     1      38.946   4.783  16.518  0.00  0.00    +0.000 OA
ENDROOT
BRANCH   1   2
ATOM      2  C   UNL     1      39.168   5.213  17.791  0.00  0.00    +0.000 C 
ATOM      3  O   UNL     1      38.847   4.419  18.696  0.00  0.00    +0.000 OA
BRANCH   2   4
ATOM      4  C   UNL     1      39.750   6.529  18.128  0.00  0.00    +0.000 C 
BRANCH   4   5
ATOM      5  C   UNL     1      38.805   7.444  18.779  0.00  0.00    +0.000 A 
ATOM      6  C   UNL     1      37.591   7.840  18.282  0.00  0.00    +0.000 A 
ATOM      7  C   UNL     1      36.803   8.700  19.007  0.00  0.00    +0.000 A 
ATOM      8  C   UNL     1      37.199   9.179  20.223  0.00  0.00    +0.000 A 
ATOM      9  C   UNL     1      38.404   8.794  20.729  0.00  0.00    +0.000 A 
ATOM     10  C   UNL     1      39.184   7.944  20.014  0.00  0.00    +0.000 A 
ENDBRANCH   4   5
BRANCH   4  11
ATOM     11  C   UNL     1      41.052   6.481  18.794  0.00  0.00    +0.000 A 
ATOM     12  C   UNL     1      41.240   6.194  20.134  0.00  0.00    +0.000 A 
ATOM     13  C   UNL     1      42.526   6.198  20.601  0.00  0.00    +0.000 A 
ATOM     14  C   UNL     1      43.600   6.475  19.788  0.00  0.00    +0.000 A 
ATOM     15  C   UNL     1      43.409   6.758  18.469  0.00  0.00    +0.000 A 
ATOM     16  C   UNL     1      42.148   6.761  17.973  0.00  0.00    +0.000 A 
ENDBRANCH   4  11
ENDBRANCH   2   4
ENDBRANCH   1   2
BRANCH   1  17
ATOM     17  C   UNL     1      37.841   4.786  15.749  0.00  0.00    +0.000 C 
BRANCH  17  19
ATOM     18  N   UNL     1      37.332   2.478  16.421  0.00  0.00    +0.000 NA
ATOM     19  C   UNL     1      36.964   3.652  15.697  0.00  0.00    +0.000 C 
ATOM     20  O   UNL     1      35.885   3.510  15.100  0.00  0.00    +0.000 OA
BRANCH  18  26
ATOM     21  C   UNL     1      36.987   0.273  15.656  0.00  0.00    +0.000 A 
ATOM     22  C   UNL     1      36.319  -0.931  15.594  0.00  0.00    +0.000 A 
ATOM     23  C   UNL     1      35.170  -1.149  16.341  0.00  0.00    +0.000 A 
ATOM     24  C   UNL     1      34.716  -0.125  17.147  0.00  0.00    +0.000 A 
ATOM     25  C   UNL     1      35.422   1.084  17.184  0.00  0.00    +0.000 A 
ATOM     26  C   UNL     1      36.554   1.304  16.450  0.00  0.00    +0.000 A 
BRANCH  21  27
ATOM     27  C   UNL     1      38.262   0.474  14.760  0.00  0.00    +0.000 C 
ATOM     28  C   UNL     1      38.895  -1.017  14.834  0.00  0.00    +0.000 C 
BRANCH  27  30
ATOM     29  C   UNL     1      38.284  -0.697  12.500  0.00  0.00    +0.000 C 
ATOM     30  C   UNL     1      37.593   0.312  13.320  0.00  0.00    +0.000 C 
ENDBRANCH  27  30
ENDBRANCH  21  27
ENDBRANCH  18  26
ENDBRANCH  17  19
ENDBRANCH   1  17
TORSDOF 9
ENDMDL
MODEL 6
REMARK VINA RESULT:      -7.5      0.758      3.336
REMARK  Name = 
REMARK  9 active torsions:
REMARK  status: ('A' for Active; 'I' for Inactive)
REMARK    1  A    between atoms: C_2  and  C_3
REMARK    2  A    between atoms: C_3  and  C_5
REMARK    3  A    between atoms: C_10  and  N_11
REMARK    4  A    between atoms: C_12  and  C_14
REMARK    5  A    between atoms: C_14  and  O_15
REMARK    6  A    between atoms: O_15  and  C_16
REMARK    7  A    between atoms: C_16  and  C_18
REMARK    8  A    between atoms: C_18  and  C_19
REMARK    9  A    between atoms: C_18  and  C_25
REMARK                            x       y       z     vdW  Elec       q    Type
REMARK                         _______ _______ _______ _____ _____    ______ ____
ROOT
ATOM      1  O   UNL     1      39.119   4.728  16.461  0.00  0.00    +0.000 OA
ENDROOT
BRANCH   1   2
ATOM      2  C   UNL     1      39.243   5.193  17.736  0.00  0.00    +0.000 C 
ATOM      3  O   UNL     1      38.853   4.422  18.634  0.00  0.00    +0.000 OA
BRANCH   2   4
ATOM      4  C   UNL     1      39.799   6.518  18.081  0.00  0.00    +0.000 C 
BRANCH   4   5
ATOM      5  C   UNL     1      38.824   7.424  18.699  0.00  0.00    +0.000 A 
ATOM      6  C   UNL     1      37.709   7.945  18.097  0.00  0.00    +0.000 A 
ATOM      7  C   UNL     1      36.877   8.780  18.802  0.00  0.00    +0.000 A 
ATOM      8  C   UNL     1      37.132   9.110  20.102  0.00  0.00    +0.000 A 
ATOM      9  C   UNL     1      38.237   8.599  20.714  0.00  0.00    +0.000 A 
ATOM     10  C   UNL     1      39.060   7.774  20.019  0.00  0.00    +0.000 A 
ENDBRANCH   4   5
BRANCH   4  11
ATOM     11  C   UNL     1      41.081   6.490  18.784  0.00  0.00    +0.000 A 
ATOM     12  C   UNL     1      41.242   6.153  20.115  0.00  0.00    +0.000 A 
ATOM     13  C   UNL     1      42.512   6.186  20.622  0.00  0.00    +0.000 A 
ATOM     14  C   UNL     1      43.598   6.537  19.853  0.00  0.00    +0.000 A 
ATOM     15  C   UNL     1      43.435   6.868  18.543  0.00  0.00    +0.000 A 
ATOM     16  C   UNL     1      42.189   6.845  18.009  0.00  0.00    +0.000 A 
ENDBRANCH   4  11
ENDBRANCH   2   4
ENDBRANCH   1   2
BRANCH   1  17
ATOM     17  C   UNL     1      38.079   4.721  15.606  0.00  0.00    +0.000 C 
BRANCH  17  19
ATOM     18  N   UNL     1      38.094   2.265  15.545  0.00  0.00    +0.000 NA
ATOM     19  C   UNL     1      37.585   3.499  15.039  0.00  0.00    +0.000 C 
ATOM     20  O   UNL     1      36.748   3.323  14.140  0.00  0.00    +0.000 OA
BRANCH  18  26
ATOM     21  C   UNL     1      36.762   0.341  15.843  0.00  0.00    +0.000 A 
ATOM     22  C   UNL     1      36.277  -0.901  15.494  0.00  0.00    +0.000 A 
ATOM     23  C   UNL     1      36.707  -1.538  14.339  0.00  0.00    +0.000 A 
ATOM     24  C   UNL     1      37.636  -0.890  13.550  0.00  0.00    +0.000 A 
ATOM     25  C   UNL     1      38.106   0.371  13.937  0.00  0.00    +0.000 A 
ATOM     26  C   UNL     1      37.685   1.002  15.074  0.00  0.00    +0.000 A 
BRANCH  21  27
ATOM     27  C   UNL     1      36.264   0.996  17.182  0.00  0.00    +0.000 C 
ATOM     28  C   UNL     1      34.668   0.753  17.036  0.00  0.00    +0.000 C 
BRANCH  27  30
ATOM     29  C   UNL     1      35.439  -0.402  19.142  0.00  0.00    +0.000 C 
ATOM     30  C   UNL     1      36.539  -0.218  18.180  0.00  0.00    +0.000 C 
ENDBRANCH  27  30
ENDBRANCH  21  27
ENDBRANCH  18  26
ENDBRANCH  17  19
ENDBRANCH   1  17
TORSDOF 9
ENDMDL
MODEL 7
REMARK VINA RESULT:      -7.5      4.770      9.463
REMARK  Name = 
REMARK  9 active torsions:
REMARK  status: ('A' for Active; 'I' for Inactive)
REMARK    1  A    between atoms: C_2  and  C_3
REMARK    2  A    between atoms: C_3  and  C_5
REMARK    3  A    between atoms: C_10  and  N_11
REMARK    4  A    between atoms: C_12  and  C_14
REMARK    5  A    between atoms: C_14  and  O_15
REMARK    6  A    between atoms: O_15  and  C_16
REMARK    7  A    between atoms: C_16  and  C_18
REMARK    8  A    between atoms: C_18  and  C_19
REMARK    9  A    between atoms: C_18  and  C_25
REMARK                            x       y       z     vdW  Elec       q    Type
REMARK                         _______ _______ _______ _____ _____    ______ ____
ROOT
ATOM      1  O   UNL     1      36.809  -0.812  16.785  0.00  0.00    +0.000 OA
ENDROOT
BRANCH   1   2
ATOM      2  C   UNL     1      36.764  -2.099  17.232  0.00  0.00    +0.000 C 
ATOM      3  O   UNL     1      36.365  -2.253  18.403  0.00  0.00    +0.000 OA
BRANCH   2   4
ATOM      4  C   UNL     1      37.152  -3.270  16.419  0.00  0.00    +0.000 C 
BRANCH   4   5
ATOM      5  C   UNL     1      36.017  -4.095  15.990  0.00  0.00    +0.000 A 
ATOM      6  C   UNL     1      35.937  -5.461  16.062  0.00  0.00    +0.000 A 
ATOM      7  C   UNL     1      34.803  -6.103  15.629  0.00  0.00    +0.000 A 
ATOM      8  C   UNL     1      33.741  -5.412  15.120  0.00  0.00    +0.000 A 
ATOM      9  C   UNL     1      33.806  -4.054  15.043  0.00  0.00    +0.000 A 
ATOM     10  C   UNL     1      34.926  -3.417  15.471  0.00  0.00    +0.000 A 
ENDBRANCH   4   5
BRANCH   4  11
ATOM     11  C   UNL     1      38.098  -2.990  15.338  0.00  0.00    +0.000 A 
ATOM     12  C   UNL     1      37.820  -3.136  13.992  0.00  0.00    +0.000 A 
ATOM     13  C   UNL     1      38.822  -2.839  13.109  0.00  0.00    +0.000 A 
ATOM     14  C   UNL     1      40.062  -2.411  13.525  0.00  0.00    +0.000 A 
ATOM     15  C   UNL     1      40.331  -2.269  14.852  0.00  0.00    +0.000 A 
ATOM     16  C   UNL     1      39.360  -2.554  15.754  0.00  0.00    +0.000 A 
ENDBRANCH   4  11
ENDBRANCH   2   4
ENDBRANCH   1   2
BRANCH   1  17
ATOM     17  C   UNL     1      35.884  -0.036  16.191  0.00  0.00    +0.000 C 
BRANCH  17  19
ATOM     18  N   UNL     1      37.169   0.100  14.102  0.00  0.00    +0.000 NA
ATOM     19  C   UNL     1      36.154   0.634  14.952  0.00  0.00    +0.000 C 
ATOM     20  O   UNL     1      35.629   1.649  14.467  0.00  0.00    +0.000 OA
BRANCH  18  26
ATOM     21  C   UNL     1      38.750   1.275  12.804  0.00  0.00    +0.000 A 
ATOM     22  C   UNL     1      39.219   1.864  11.649  0.00  0.00    +0.000 A 
ATOM     23  C   UNL     1      38.460   1.863  10.488  0.00  0.00    +0.000 A 
ATOM     24  C   UNL     1      37.222   1.254  10.523  0.00  0.00    +0.000 A 
ATOM     25  C   UNL     1      36.780   0.666  11.714  0.00  0.00    +0.000 A 
ATOM     26  C   UNL     1      37.523   0.664  12.861  0.00  0.00    +0.000 A 
BRANCH  21  27
ATOM     27  C   UNL     1      39.639   1.340  14.098  0.00  0.00    +0.000 C 
ATOM     28  C   UNL     1      41.109   1.169  13.436  0.00  0.00    +0.000 C 
BRANCH  27  30
ATOM     29  C   UNL     1      38.652   3.423  15.178  0.00  0.00    +0.000 C 
ATOM     30  C   UNL     1      39.710   2.924  14.282  0.00  0.00    +0.000 C 
ENDBRANCH  27  30
ENDBRANCH  21  27
ENDBRANCH  18  26
ENDBRANCH  17  19
ENDBRANCH   1  17
TORSDOF 9
ENDMDL
MODEL 8
REMARK VINA RESULT:      -7.5      2.371      8.243
REMARK  Name = 
REMARK  9 active torsions:
REMARK  status: ('A' for Active; 'I' for Inactive)
REMARK    1  A    between atoms: C_2  and  C_3
REMARK    2  A    between atoms: C_3  and  C_5
REMARK    3  A    between atoms: C_10  and  N_11
REMARK    4  A    between atoms: C_12  and  C_14
REMARK    5  A    between atoms: C_14  and  O_15
REMARK    6  A    between atoms: O_15  and  C_16
REMARK    7  A    between atoms: C_16  and  C_18
REMARK    8  A    between atoms: C_18  and  C_19
REMARK    9  A    between atoms: C_18  and  C_25
REMARK                            x       y       z     vdW  Elec       q    Type
REMARK                         _______ _______ _______ _____ _____    ______ ____
ROOT
ATOM      1  O   UNL     1      39.124   0.100  15.042  0.00  0.00    +0.000 OA
ENDROOT
BRANCH   1   2
ATOM      2  C   UNL     1      38.373  -0.778  14.321  0.00  0.00    +0.000 C 
ATOM      3  O   UNL     1      38.940  -1.299  13.340  0.00  0.00    +0.000 OA
BRANCH   2   4
ATOM      4  C   UNL     1      36.972  -1.124  14.640  0.00  0.00    +0.000 C 
BRANCH   4   5
ATOM      5  C   UNL     1      36.811  -2.464  15.216  0.00  0.00    +0.000 A 
ATOM      6  C   UNL     1      37.676  -3.083  16.078  0.00  0.00    +0.000 A 
ATOM      7  C   UNL     1      37.392  -4.343  16.546  0.00  0.00    +0.000 A 
ATOM      8  C   UNL     1      36.258  -5.005  16.171  0.00  0.00    +0.000 A 
ATOM      9  C   UNL     1      35.388  -4.401  15.314  0.00  0.00    +0.000 A 
ATOM     10  C   UNL     1      35.667  -3.156  14.851  0.00  0.00    +0.000 A 
ENDBRANCH   4   5
BRANCH   4  11
ATOM     11  C   UNL     1      36.228  -0.094  15.365  0.00  0.00    +0.000 A 
ATOM     12  C   UNL     1      35.891  -0.163  16.704  0.00  0.00    +0.000 A 
ATOM     13  C   UNL     1      35.183   0.883  17.227  0.00  0.00    +0.000 A 
ATOM     14  C   UNL     1      34.812   1.969  16.468  0.00  0.00    +0.000 A 
ATOM     15  C   UNL     1      35.146   2.033  15.149  0.00  0.00    +0.000 A 
ATOM     16  C   UNL     1      35.849   1.012  14.600  0.00  0.00    +0.000 A 
ENDBRANCH   4  11
ENDBRANCH   2   4
ENDBRANCH   1   2
BRANCH   1  17
ATOM     17  C   UNL     1      39.915   1.123  14.668  0.00  0.00    +0.000 C 
BRANCH  17  19
ATOM     18  N   UNL     1      38.641   3.092  15.402  0.00  0.00    +0.000 NA
ATOM     19  C   UNL     1      39.374   2.419  14.378  0.00  0.00    +0.000 C 
ATOM     20  O   UNL     1      39.438   3.091  13.335  0.00  0.00    +0.000 OA
BRANCH  18  26
ATOM     21  C   UNL     1      38.604   5.373  16.001  0.00  0.00    +0.000 A 
ATOM     22  C   UNL     1      38.135   6.667  15.936  0.00  0.00    +0.000 A 
ATOM     23  C   UNL     1      37.090   7.007  15.089  0.00  0.00    +0.000 A 
ATOM     24  C   UNL     1      36.534   6.010  14.313  0.00  0.00    +0.000 A 
ATOM     25  C   UNL     1      37.037   4.707  14.406  0.00  0.00    +0.000 A 
ATOM     26  C   UNL     1      38.066   4.367  15.239  0.00  0.00    +0.000 A 
BRANCH  21  27
ATOM     27  C   UNL     1      39.765   5.041  17.006  0.00  0.00    +0.000 C 
ATOM     28  C   UNL     1      40.433   6.511  17.157  0.00  0.00    +0.000 C 
BRANCH  27  30
ATOM     29  C   UNL     1      39.374   6.179  19.249  0.00  0.00    +0.000 C 
ATOM     30  C   UNL     1      38.942   5.078  18.372  0.00  0.00    +0.000 C 
ENDBRANCH  27  30
ENDBRANCH  21  27
ENDBRANCH  18  26
ENDBRANCH  17  19
ENDBRANCH   1  17
TORSDOF 9
ENDMDL
MODEL 9
REMARK VINA RESULT:      -7.5      1.286      2.005
REMARK  Name = 
REMARK  9 active torsions:
REMARK  status: ('A' for Active; 'I' for Inactive)
REMARK    1  A    between atoms: C_2  and  C_3
REMARK    2  A    between atoms: C_3  and  C_5
REMARK    3  A    between atoms: C_10  and  N_11
REMARK    4  A    between atoms: C_12  and  C_14
REMARK    5  A    between atoms: C_14  and  O_15
REMARK    6  A    between atoms: O_15  and  C_16
REMARK    7  A    between atoms: C_16  and  C_18
REMARK    8  A    between atoms: C_18  and  C_19
REMARK    9  A    between atoms: C_18  and  C_25
REMARK                            x       y       z     vdW  Elec       q    Type
REMARK                         _______ _______ _______ _____ _____    ______ ____
ROOT
ATOM      1  O   UNL     1      39.265   5.061  16.874  0.00  0.00    +0.000 OA
ENDROOT
BRANCH   1   2
ATOM      2  C   UNL     1      39.070   5.009  18.222  0.00  0.00    +0.000 C 
ATOM      3  O   UNL     1      38.416   4.033  18.638  0.00  0.00    +0.000 OA
BRANCH   2   4
ATOM      4  C   UNL     1      39.581   6.020  19.170  0.00  0.00    +0.000 C 
BRANCH   4   5
ATOM      5  C   UNL     1      41.014   6.300  19.021  0.00  0.00    +0.000 A 
ATOM      6  C   UNL     1      41.668   6.570  17.847  0.00  0.00    +0.000 A 
ATOM      7  C   UNL     1      43.018   6.822  17.858  0.00  0.00    +0.000 A 
ATOM      8  C   UNL     1      43.737   6.810  19.019  0.00  0.00    +0.000 A 
ATOM      9  C   UNL     1      43.101   6.543  20.194  0.00  0.00    +0.000 A 
ATOM     10  C   UNL     1      41.766   6.294  20.185  0.00  0.00    +0.000 A 
ENDBRANCH   4   5
BRANCH   4  11
ATOM     11  C   UNL     1      38.769   7.232  19.284  0.00  0.00    +0.000 A 
ATOM     12  C   UNL     1      38.629   7.980  20.438  0.00  0.00    +0.000 A 
ATOM     13  C   UNL     1      37.823   9.083  20.376  0.00  0.00    +0.000 A 
ATOM     14  C   UNL     1      37.170   9.450  19.222  0.00  0.00    +0.000 A 
ATOM     15  C   UNL     1      37.311   8.709  18.088  0.00  0.00    +0.000 A 
ATOM     16  C   UNL     1      38.103   7.610  18.114  0.00  0.00    +0.000 A 
ENDBRANCH   4  11
ENDBRANCH   2   4
ENDBRANCH   1   2
BRANCH   1  17
ATOM     17  C   UNL     1      38.517   4.629  15.842  0.00  0.00    +0.000 C 
BRANCH  17  19
ATOM     18  N   UNL     1      39.033   2.280  15.342  0.00  0.00    +0.000 NA
ATOM     19  C   UNL     1      39.009   3.644  14.923  0.00  0.00    +0.000 C 
ATOM     20  O   UNL     1      39.437   3.782  13.765  0.00  0.00    +0.000 OA
BRANCH  18  26
ATOM     21  C   UNL     1      38.526   0.361  14.067  0.00  0.00    +0.000 A 
ATOM     22  C   UNL     1      38.838  -0.713  13.261  0.00  0.00    +0.000 A 
ATOM     23  C   UNL     1      40.148  -0.968  12.884  0.00  0.00    +0.000 A 
ATOM     24  C   UNL     1      41.131  -0.114  13.340  0.00  0.00    +0.000 A 
ATOM     25  C   UNL     1      40.777   0.968  14.156  0.00  0.00    +0.000 A 
ATOM     26  C   UNL     1      39.488   1.223  14.531  0.00  0.00    +0.000 A 
BRANCH  21  27
ATOM     27  C   UNL     1      37.029   0.577  14.491  0.00  0.00    +0.000 C 
ATOM     28  C   UNL     1      36.373   0.903  13.045  0.00  0.00    +0.000 C 
BRANCH  27  30
ATOM     29  C   UNL     1      36.278  -1.375  15.942  0.00  0.00    +0.000 C 
ATOM     30  C   UNL     1      36.559  -0.947  14.561  0.00  0.00    +0.000 C 
ENDBRANCH  27  30
ENDBRANCH  21  27
ENDBRANCH  18  26
ENDBRANCH  17  19
ENDBRANCH   1  17
TORSDOF 9
ENDMDL
MODEL 10
REMARK VINA RESULT:      -7.5      4.837      8.551
REMARK  Name = 
REMARK  9 active torsions:
REMARK  status: ('A' for Active; 'I' for Inactive)
REMARK    1  A    between atoms: C_2  and  C_3
REMARK    2  A    between atoms: C_3  and  C_5
REMARK    3  A    between atoms: C_10  and  N_11
REMARK    4  A    between atoms: C_12  and  C_14
REMARK    5  A    between atoms: C_14  and  O_15
REMARK    6  A    between atoms: O_15  and  C_16
REMARK    7  A    between atoms: C_16  and  C_18
REMARK    8  A    between atoms: C_18  and  C_19
REMARK    9  A    between atoms: C_18  and  C_25
REMARK                            x       y       z     vdW  Elec       q    Type
REMARK                         _______ _______ _______ _____ _____    ______ ____
ROOT
ATOM      1  O   UNL     1      36.351   0.754  17.115  0.00  0.00    +0.000 OA
ENDROOT
BRANCH   1   2
ATOM      2  C   UNL     1      36.918  -0.460  16.866  0.00  0.00    +0.000 C 
ATOM      3  O   UNL     1      37.551  -0.967  17.812  0.00  0.00    +0.000 OA
BRANCH   2   4
ATOM      4  C   UNL     1      36.816  -1.169  15.573  0.00  0.00    +0.000 C 
BRANCH   4   5
ATOM      5  C   UNL     1      37.948  -0.923  14.673  0.00  0.00    +0.000 A 
ATOM      6  C   UNL     1      39.175  -0.429  15.032  0.00  0.00    +0.000 A 
ATOM      7  C   UNL     1      40.149  -0.257  14.080  0.00  0.00    +0.000 A 
ATOM      8  C   UNL     1      39.927  -0.565  12.768  0.00  0.00    +0.000 A 
ATOM      9  C   UNL     1      38.713  -1.057  12.396  0.00  0.00    +0.000 A 
ATOM     10  C   UNL     1      37.749  -1.228  13.337  0.00  0.00    +0.000 A 
ENDBRANCH   4   5
BRANCH   4  11
ATOM     11  C   UNL     1      36.454  -2.583  15.667  0.00  0.00    +0.000 A 
ATOM     12  C   UNL     1      37.337  -3.602  15.971  0.00  0.00    +0.000 A 
ATOM     13  C   UNL     1      36.838  -4.875  16.010  0.00  0.00    +0.000 A 
ATOM     14  C   UNL     1      35.513  -5.149  15.760  0.00  0.00    +0.000 A 
ATOM     15  C   UNL     1      34.647  -4.142  15.461  0.00  0.00    +0.000 A 
ATOM     16  C   UNL     1      35.109  -2.869  15.415  0.00  0.00    +0.000 A 
ENDBRANCH   4  11
ENDBRANCH   2   4
ENDBRANCH   1   2
BRANCH   1  17
ATOM     17  C   UNL     1      35.121   1.239  16.864  0.00  0.00    +0.000 C 
BRANCH  17  19
ATOM     18  N   UNL     1      36.004   2.736  15.128  0.00  0.00    +0.000 NA
ATOM     19  C   UNL     1      34.920   2.342  15.969  0.00  0.00    +0.000 C 
ATOM     20  O   UNL     1      33.914   3.046  15.790  0.00  0.00    +0.000 OA
BRANCH  18  26
ATOM     21  C   UNL     1      36.734   3.695  13.100  0.00  0.00    +0.000 A 
ATOM     22  C   UNL     1      36.755   4.665  12.120  0.00  0.00    +0.000 A 
ATOM     23  C   UNL     1      35.954   5.793  12.214  0.00  0.00    +0.000 A 
ATOM     24  C   UNL     1      35.135   5.917  13.319  0.00  0.00    +0.000 A 
ATOM     25  C   UNL     1      35.141   4.912  14.294  0.00  0.00    +0.000 A 
ATOM     26  C   UNL     1      35.929   3.798  14.206  0.00  0.00    +0.000 A 
BRANCH  21  27
ATOM     27  C   UNL     1      37.691   2.457  12.956  0.00  0.00    +0.000 C 
ATOM     28  C   UNL     1      37.645   2.254  11.348  0.00  0.00    +0.000 C 
BRANCH  27  30
ATOM     29  C   UNL     1      39.564   3.427  14.381  0.00  0.00    +0.000 C 
ATOM     30  C   UNL     1      39.097   3.211  13.001  0.00  0.00    +0.000 C 
ENDBRANCH  27  30
ENDBRANCH  21  27
ENDBRANCH  18  26
ENDBRANCH  17  19
ENDBRANCH   1  17
TORSDOF 9
ENDMDL
