MODEL 1
REMARK VINA RESULT:      -7.2      0.000      0.000
REMARK  Name = 
REMARK  3 active torsions:
REMARK  status: ('A' for Active; 'I' for Inactive)
REMARK    1  A    between atoms: C_2  and  C_3
REMARK    2  A    between atoms: C_3  and  C_4
REMARK    3  A    between atoms: C_4  and  N_5
REMARK                            x       y       z     vdW  Elec       q    Type
REMARK                         _______ _______ _______ _____ _____    ______ ____
ROOT
ATOM      1  N   UNL     1      17.910   9.744  36.131  0.00  0.00    +0.000 NA
ATOM      2  C   UNL     1      16.862  10.682  35.998  0.00  0.00    +0.000 A 
ATOM      3  N   UNL     1      16.314  11.210  37.093  0.00  0.00    +0.000 NA
ATOM      4  C   UNL     1      15.313  12.109  37.032  0.00  0.00    +0.000 A 
ATOM      5  N   UNL     1      14.844  12.490  35.827  0.00  0.00    +0.000 NA
ATOM      6  C   UNL     1      15.335  12.010  34.675  0.00  0.00    +0.000 A 
ATOM      7  C   UNL     1      16.366  11.087  34.776  0.00  0.00    +0.000 A 
ATOM      8  N   UNL     1      16.677  10.765  33.510  0.00  0.00    +0.000 NA
ATOM      9  C   UNL     1      15.899  11.436  32.629  0.00  0.00    +0.000 A 
ATOM     10  C   UNL     1      15.836  11.448  31.241  0.00  0.00    +0.000 A 
ATOM     11  C   UNL     1      14.925  12.244  30.574  0.00  0.00    +0.000 A 
ATOM     12  C   UNL     1      14.063  13.043  31.289  0.00  0.00    +0.000 A 
ATOM     13  F   UNL     1      13.182  13.811  30.602  0.00  0.00    +0.000 F 
ATOM     14  C   UNL     1      14.136  13.022  32.666  0.00  0.00    +0.000 A 
ATOM     15  C   UNL     1      15.035  12.237  33.347  0.00  0.00    +0.000 A 
ENDROOT
BRANCH   1  16
ATOM     16  C   UNL     1      18.377   9.367  37.445  0.00  0.00    +0.000 C 
BRANCH  16  17
ATOM     17  C   UNL     1      19.777   9.913  37.626  0.00  0.00    +0.000 C 
BRANCH  17  19
ATOM     18  C   UNL     1      19.552  12.293  38.237  0.00  0.00    +0.000 C 
ATOM     19  C   UNL     1      19.770  10.897  38.773  0.00  0.00    +0.000 C 
ENDBRANCH  17  19
ENDBRANCH  16  17
ENDBRANCH   1  16
TORSDOF 3
ENDMDL
MODEL 2
REMARK VINA RESULT:      -7.1      3.012      6.444
REMARK  Name = 
REMARK  3 active torsions:
REMARK  status: ('A' for Active; 'I' for Inactive)
REMARK    1  A    between atoms: C_2  and  C_3
REMARK    2  A    between atoms: C_3  and  C_4
REMARK    3  A    between atoms: C_4  and  N_5
REMARK                            x       y       z     vdW  Elec       q    Type
REMARK                         _______ _______ _______ _____ _____    ______ ____
ROOT
ATOM      1  N   UNL     1      16.187  11.145  32.393  0.00  0.00    +0.000 NA
ATOM      2  C   UNL     1      15.797  11.500  33.703  0.00  0.00    +0.000 A 
ATOM      3  N   UNL     1      14.817  12.386  33.876  0.00  0.00    +0.000 NA
ATOM      4  C   UNL     1      14.399  12.765  35.098  0.00  0.00    +0.000 A 
ATOM      5  N   UNL     1      14.991  12.237  36.188  0.00  0.00    +0.000 NA
ATOM      6  C   UNL     1      15.985  11.340  36.108  0.00  0.00    +0.000 A 
ATOM      7  C   UNL     1      16.388  10.972  34.833  0.00  0.00    +0.000 A 
ATOM      8  N   UNL     1      17.376  10.082  35.018  0.00  0.00    +0.000 NA
ATOM      9  C   UNL     1      17.609   9.875  36.335  0.00  0.00    +0.000 A 
ATOM     10  C   UNL     1      18.507   9.067  37.021  0.00  0.00    +0.000 A 
ATOM     11  C   UNL     1      18.537   9.045  38.403  0.00  0.00    +0.000 A 
ATOM     12  C   UNL     1      17.665   9.833  39.118  0.00  0.00    +0.000 A 
ATOM     13  F   UNL     1      17.723   9.786  40.471  0.00  0.00    +0.000 F 
ATOM     14  C   UNL     1      16.779  10.630  38.425  0.00  0.00    +0.000 A 
ATOM     15  C   UNL     1      16.734  10.666  37.052  0.00  0.00    +0.000 A 
ENDROOT
BRANCH   1  16
ATOM     16  C   UNL     1      15.523  11.740  31.257  0.00  0.00    +0.000 C 
BRANCH  16  17
ATOM     17  C   UNL     1      16.374  12.890  30.759  0.00  0.00    +0.000 C 
BRANCH  17  19
ATOM     18  C   UNL     1      14.051  13.719  30.839  0.00  0.00    +0.000 C 
ATOM     19  C   UNL     1      15.476  14.073  30.479  0.00  0.00    +0.000 C 
ENDBRANCH  17  19
ENDBRANCH  16  17
ENDBRANCH   1  16
TORSDOF 3
ENDMDL
MODEL 3
REMARK VINA RESULT:      -7.0      1.087      2.359
REMARK  Name = 
REMARK  3 active torsions:
REMARK  status: ('A' for Active; 'I' for Inactive)
REMARK    1  A    between atoms: C_2  and  C_3
REMARK    2  A    between atoms: C_3  and  C_4
REMARK    3  A    between atoms: C_4  and  N_5
REMARK                            x       y       z     vdW  Elec       q    Type
REMARK                         _______ _______ _______ _____ _____    ______ ____
ROOT
ATOM      1  N   UNL     1      16.947  10.776  37.574  0.00  0.00    +0.000 NA
ATOM      2  C   UNL     1      16.860  10.680  36.167  0.00  0.00    +0.000 A 
ATOM      3  N   UNL     1      17.576   9.754  35.529  0.00  0.00    +0.000 NA
ATOM      4  C   UNL     1      17.535   9.611  34.191  0.00  0.00    +0.000 A 
ATOM      5  N   UNL     1      16.749  10.432  33.466  0.00  0.00    +0.000 NA
ATOM      6  C   UNL     1      15.997  11.392  34.024  0.00  0.00    +0.000 A 
ATOM      7  C   UNL     1      16.063  11.509  35.405  0.00  0.00    +0.000 A 
ATOM      8  N   UNL     1      15.236  12.521  35.713  0.00  0.00    +0.000 NA
ATOM      9  C   UNL     1      14.661  13.039  34.603  0.00  0.00    +0.000 A 
ATOM     10  C   UNL     1      13.754  14.073  34.402  0.00  0.00    +0.000 A 
ATOM     11  C   UNL     1      13.319  14.405  33.134  0.00  0.00    +0.000 A 
ATOM     12  C   UNL     1      13.786  13.705  32.045  0.00  0.00    +0.000 A 
ATOM     13  F   UNL     1      13.338  14.059  30.816  0.00  0.00    +0.000 F 
ATOM     14  C   UNL     1      14.685  12.681  32.258  0.00  0.00    +0.000 A 
ATOM     15  C   UNL     1      15.129  12.336  33.512  0.00  0.00    +0.000 A 
ENDROOT
BRANCH   1  16
ATOM     16  C   UNL     1      17.805   9.874  38.306  0.00  0.00    +0.000 C 
BRANCH  16  17
ATOM     17  C   UNL     1      18.816  10.699  39.074  0.00  0.00    +0.000 C 
BRANCH  17  19
ATOM     18  C   UNL     1      19.808  12.831  38.328  0.00  0.00    +0.000 C 
ATOM     19  C   UNL     1      19.768  11.339  38.090  0.00  0.00    +0.000 C 
ENDBRANCH  17  19
ENDBRANCH  16  17
ENDBRANCH   1  16
TORSDOF 3
ENDMDL
MODEL 4
REMARK VINA RESULT:      -6.8      1.891      3.045
REMARK  Name = 
REMARK  3 active torsions:
REMARK  status: ('A' for Active; 'I' for Inactive)
REMARK    1  A    between atoms: C_2  and  C_3
REMARK    2  A    between atoms: C_3  and  C_4
REMARK    3  A    between atoms: C_4  and  N_5
REMARK                            x       y       z     vdW  Elec       q    Type
REMARK                         _______ _______ _______ _____ _____    ______ ____
ROOT
ATOM      1  N   UNL     1      16.906  10.465  37.988  0.00  0.00    +0.000 NA
ATOM      2  C   UNL     1      16.832  10.408  36.578  0.00  0.00    +0.000 A 
ATOM      3  N   UNL     1      17.531   9.481  35.924  0.00  0.00    +0.000 NA
ATOM      4  C   UNL     1      17.502   9.375  34.582  0.00  0.00    +0.000 A 
ATOM      5  N   UNL     1      16.744  10.234  33.871  0.00  0.00    +0.000 NA
ATOM      6  C   UNL     1      16.010  11.198  34.446  0.00  0.00    +0.000 A 
ATOM      7  C   UNL     1      16.064  11.277  35.830  0.00  0.00    +0.000 A 
ATOM      8  N   UNL     1      15.260  12.301  36.157  0.00  0.00    +0.000 NA
ATOM      9  C   UNL     1      14.710  12.862  35.055  0.00  0.00    +0.000 A 
ATOM     10  C   UNL     1      13.831  13.924  34.873  0.00  0.00    +0.000 A 
ATOM     11  C   UNL     1      13.418  14.300  33.609  0.00  0.00    +0.000 A 
ATOM     12  C   UNL     1      13.879  13.617  32.508  0.00  0.00    +0.000 A 
ATOM     13  F   UNL     1      13.454  14.014  31.284  0.00  0.00    +0.000 F 
ATOM     14  C   UNL     1      14.750  12.566  32.703  0.00  0.00    +0.000 A 
ATOM     15  C   UNL     1      15.172  12.176  33.951  0.00  0.00    +0.000 A 
ENDROOT
BRANCH   1  16
ATOM     16  C   UNL     1      17.733   9.522  38.705  0.00  0.00    +0.000 C 
BRANCH  16  17
ATOM     17  C   UNL     1      17.578   9.786  40.187  0.00  0.00    +0.000 C 
BRANCH  17  19
ATOM     18  C   UNL     1      17.283   8.042  41.906  0.00  0.00    +0.000 C 
ATOM     19  C   UNL     1      16.617   8.773  40.763  0.00  0.00    +0.000 C 
ENDBRANCH  17  19
ENDBRANCH  16  17
ENDBRANCH   1  16
TORSDOF 3
ENDMDL
MODEL 5
REMARK VINA RESULT:      -6.5      3.099      6.826
REMARK  Name = 
REMARK  3 active torsions:
REMARK  status: ('A' for Active; 'I' for Inactive)
REMARK    1  A    between atoms: C_2  and  C_3
REMARK    2  A    between atoms: C_3  and  C_4
REMARK    3  A    between atoms: C_4  and  N_5
REMARK                            x       y       z     vdW  Elec       q    Type
REMARK                         _______ _______ _______ _____ _____    ______ ____
ROOT
ATOM      1  N   UNL     1      14.516  12.291  33.410  0.00  0.00    +0.000 NA
ATOM      2  C   UNL     1      15.631  11.454  33.637  0.00  0.00    +0.000 A 
ATOM      3  N   UNL     1      16.326  10.995  32.596  0.00  0.00    +0.000 NA
ATOM      4  C   UNL     1      17.399  10.195  32.747  0.00  0.00    +0.000 A 
ATOM      5  N   UNL     1      17.786   9.841  33.989  0.00  0.00    +0.000 NA
ATOM      6  C   UNL     1      17.145  10.256  35.092  0.00  0.00    +0.000 A 
ATOM      7  C   UNL     1      16.045  11.080  34.898  0.00  0.00    +0.000 A 
ATOM      8  N   UNL     1      15.587  11.353  36.130  0.00  0.00    +0.000 NA
ATOM      9  C   UNL     1      16.340  10.746  37.078  0.00  0.00    +0.000 A 
ATOM     10  C   UNL     1      16.273  10.721  38.466  0.00  0.00    +0.000 A 
ATOM     11  C   UNL     1      17.189  10.004  39.212  0.00  0.00    +0.000 A 
ATOM     12  C   UNL     1      18.187   9.301  38.578  0.00  0.00    +0.000 A 
ATOM     13  F   UNL     1      19.067   8.609  39.342  0.00  0.00    +0.000 F 
ATOM     14  C   UNL     1      18.241   9.334  37.200  0.00  0.00    +0.000 A 
ATOM     15  C   UNL     1      17.341  10.041  36.441  0.00  0.00    +0.000 A 
ENDROOT
BRANCH   1  16
ATOM     16  C   UNL     1      14.140  12.640  32.059  0.00  0.00    +0.000 C 
BRANCH  16  17
ATOM     17  C   UNL     1      13.846  14.125  32.017  0.00  0.00    +0.000 C 
BRANCH  17  19
ATOM     18  C   UNL     1      15.608  13.736  30.335  0.00  0.00    +0.000 C 
ATOM     19  C   UNL     1      14.845  14.792  31.100  0.00  0.00    +0.000 C 
ENDBRANCH  17  19
ENDBRANCH  16  17
ENDBRANCH   1  16
TORSDOF 3
ENDMDL
MODEL 6
REMARK VINA RESULT:      -6.1      2.765      4.473
REMARK  Name = 
REMARK  3 active torsions:
REMARK  status: ('A' for Active; 'I' for Inactive)
REMARK    1  A    between atoms: C_2  and  C_3
REMARK    2  A    between atoms: C_3  and  C_4
REMARK    3  A    between atoms: C_4  and  N_5
REMARK                            x       y       z     vdW  Elec       q    Type
REMARK                         _______ _______ _______ _____ _____    ______ ____
ROOT
ATOM      1  N   UNL     1      16.772   9.266  40.320  0.00  0.00    +0.000 NA
ATOM      2  C   UNL     1      17.142   9.833  39.081  0.00  0.00    +0.000 A 
ATOM      3  N   UNL     1      18.380   9.649  38.621  0.00  0.00    +0.000 NA
ATOM      4  C   UNL     1      18.793  10.163  37.447  0.00  0.00    +0.000 A 
ATOM      5  N   UNL     1      17.931  10.891  36.708  0.00  0.00    +0.000 NA
ATOM      6  C   UNL     1      16.669  11.127  37.094  0.00  0.00    +0.000 A 
ATOM      7  C   UNL     1      16.278  10.581  38.308  0.00  0.00    +0.000 A 
ATOM      8  N   UNL     1      14.997  10.952  38.466  0.00  0.00    +0.000 NA
ATOM      9  C   UNL     1      14.570  11.696  37.420  0.00  0.00    +0.000 A 
ATOM     10  C   UNL     1      13.355  12.301  37.122  0.00  0.00    +0.000 A 
ATOM     11  C   UNL     1      13.182  13.022  35.956  0.00  0.00    +0.000 A 
ATOM     12  C   UNL     1      14.225  13.148  35.069  0.00  0.00    +0.000 A 
ATOM     13  F   UNL     1      14.020  13.862  33.936  0.00  0.00    +0.000 F 
ATOM     14  C   UNL     1      15.426  12.543  35.376  0.00  0.00    +0.000 A 
ATOM     15  C   UNL     1      15.618  11.822  36.530  0.00  0.00    +0.000 A 
ENDROOT
BRANCH   1  16
ATOM     16  C   UNL     1      17.732   8.495  41.075  0.00  0.00    +0.000 C 
BRANCH  16  17
ATOM     17  C   UNL     1      17.010   7.323  41.706  0.00  0.00    +0.000 C 
BRANCH  17  19
ATOM     18  C   UNL     1      18.734   6.349  40.235  0.00  0.00    +0.000 C 
ATOM     19  C   UNL     1      17.520   6.045  41.081  0.00  0.00    +0.000 C 
ENDBRANCH  17  19
ENDBRANCH  16  17
ENDBRANCH   1  16
TORSDOF 3
ENDMDL
MODEL 7
REMARK VINA RESULT:      -6.1      4.359      7.230
REMARK  Name = 
REMARK  3 active torsions:
REMARK  status: ('A' for Active; 'I' for Inactive)
REMARK    1  A    between atoms: C_2  and  C_3
REMARK    2  A    between atoms: C_3  and  C_4
REMARK    3  A    between atoms: C_4  and  N_5
REMARK                            x       y       z     vdW  Elec       q    Type
REMARK                         _______ _______ _______ _____ _____    ______ ____
ROOT
ATOM      1  N   UNL     1      15.891  11.251  37.888  0.00  0.00    +0.000 NA
ATOM      2  C   UNL     1      16.843  10.624  37.052  0.00  0.00    +0.000 A 
ATOM      3  N   UNL     1      16.443  10.069  35.908  0.00  0.00    +0.000 NA
ATOM      4  C   UNL     1      17.301   9.459  35.069  0.00  0.00    +0.000 A 
ATOM      5  N   UNL     1      18.609   9.401  35.392  0.00  0.00    +0.000 NA
ATOM      6  C   UNL     1      19.098   9.932  36.523  0.00  0.00    +0.000 A 
ATOM      7  C   UNL     1      18.185  10.554  37.363  0.00  0.00    +0.000 A 
ATOM      8  N   UNL     1      18.908  10.995  38.405  0.00  0.00    +0.000 NA
ATOM      9  C   UNL     1      20.217  10.683  38.260  0.00  0.00    +0.000 A 
ATOM     10  C   UNL     1      21.337  10.915  39.049  0.00  0.00    +0.000 A 
ATOM     11  C   UNL     1      22.589  10.478  38.658  0.00  0.00    +0.000 A 
ATOM     12  C   UNL     1      22.737   9.802  37.469  0.00  0.00    +0.000 A 
ATOM     13  F   UNL     1      23.978   9.388  37.118  0.00  0.00    +0.000 F 
ATOM     14  C   UNL     1      21.617   9.579  36.696  0.00  0.00    +0.000 A 
ATOM     15  C   UNL     1      20.364  10.005  37.067  0.00  0.00    +0.000 A 
ENDROOT
BRANCH   1  16
ATOM     16  C   UNL     1      14.501  11.284  37.498  0.00  0.00    +0.000 C 
BRANCH  16  17
ATOM     17  C   UNL     1      13.662  10.906  38.699  0.00  0.00    +0.000 C 
BRANCH  17  19
ATOM     18  C   UNL     1      11.797  11.492  37.193  0.00  0.00    +0.000 C 
ATOM     19  C   UNL     1      12.287  10.499  38.222  0.00  0.00    +0.000 C 
ENDBRANCH  17  19
ENDBRANCH  16  17
ENDBRANCH   1  16
TORSDOF 3
ENDMDL
MODEL 8
REMARK VINA RESULT:      -5.9     19.649     21.714
REMARK  Name = 
REMARK  3 active torsions:
REMARK  status: ('A' for Active; 'I' for Inactive)
REMARK    1  A    between atoms: C_2  and  C_3
REMARK    2  A    between atoms: C_3  and  C_4
REMARK    3  A    between atoms: C_4  and  N_5
REMARK                            x       y       z     vdW  Elec       q    Type
REMARK                         _______ _______ _______ _____ _____    ______ ____
ROOT
ATOM      1  N   UNL     1      33.338  -2.813  33.384  0.00  0.00    +0.000 NA
ATOM      2  C   UNL     1      33.555  -1.990  34.512  0.00  0.00    +0.000 A 
ATOM      3  N   UNL     1      33.718  -2.551  35.710  0.00  0.00    +0.000 NA
ATOM      4  C   UNL     1      33.929  -1.821  36.821  0.00  0.00    +0.000 A 
ATOM      5  N   UNL     1      33.975  -0.476  36.726  0.00  0.00    +0.000 NA
ATOM      6  C   UNL     1      33.820   0.172  35.562  0.00  0.00    +0.000 A 
ATOM      7  C   UNL     1      33.605  -0.613  34.438  0.00  0.00    +0.000 A 
ATOM      8  N   UNL     1      33.484   0.254  33.420  0.00  0.00    +0.000 NA
ATOM      9  C   UNL     1      33.611   1.532  33.847  0.00  0.00    +0.000 A 
ATOM     10  C   UNL     1      33.564   2.757  33.193  0.00  0.00    +0.000 A 
ATOM     11  C   UNL     1      33.728   3.943  33.884  0.00  0.00    +0.000 A 
ATOM     12  C   UNL     1      33.943   3.918  35.242  0.00  0.00    +0.000 A 
ATOM     13  F   UNL     1      34.099   5.100  35.887  0.00  0.00    +0.000 F 
ATOM     14  C   UNL     1      33.987   2.696  35.879  0.00  0.00    +0.000 A 
ATOM     15  C   UNL     1      33.827   1.506  35.210  0.00  0.00    +0.000 A 
ENDROOT
BRANCH   1  16
ATOM     16  C   UNL     1      33.295  -4.249  33.539  0.00  0.00    +0.000 C 
BRANCH  16  17
ATOM     17  C   UNL     1      34.174  -4.867  32.472  0.00  0.00    +0.000 C 
BRANCH  17  19
ATOM     18  C   UNL     1      34.218  -5.656  30.135  0.00  0.00    +0.000 C 
ATOM     19  C   UNL     1      33.339  -5.108  31.235  0.00  0.00    +0.000 C 
ENDBRANCH  17  19
ENDBRANCH  16  17
ENDBRANCH   1  16
TORSDOF 3
ENDMDL
MODEL 9
REMARK VINA RESULT:      -5.9     28.107     30.559
REMARK  Name = 
REMARK  3 active torsions:
REMARK  status: ('A' for Active; 'I' for Inactive)
REMARK    1  A    between atoms: C_2  and  C_3
REMARK    2  A    between atoms: C_3  and  C_4
REMARK    3  A    between atoms: C_4  and  N_5
REMARK                            x       y       z     vdW  Elec       q    Type
REMARK                         _______ _______ _______ _____ _____    ______ ____
ROOT
ATOM      1  N   UNL     1      29.314  23.443  11.882  0.00  0.00    +0.000 NA
ATOM      2  C   UNL     1      30.167  22.331  11.709  0.00  0.00    +0.000 A 
ATOM      3  N   UNL     1      30.371  21.498  12.730  0.00  0.00    +0.000 NA
ATOM      4  C   UNL     1      31.172  20.421  12.627  0.00  0.00    +0.000 A 
ATOM      5  N   UNL     1      31.793  20.171  11.457  0.00  0.00    +0.000 NA
ATOM      6  C   UNL     1      31.645  20.956  10.379  0.00  0.00    +0.000 A 
ATOM      7  C   UNL     1      30.812  22.056  10.521  0.00  0.00    +0.000 A 
ATOM      8  N   UNL     1      30.830  22.669   9.327  0.00  0.00    +0.000 NA
ATOM      9  C   UNL     1      31.627  22.012   8.451  0.00  0.00    +0.000 A 
ATOM     10  C   UNL     1      31.965  22.243   7.123  0.00  0.00    +0.000 A 
ATOM     11  C   UNL     1      32.822  21.396   6.446  0.00  0.00    +0.000 A 
ATOM     12  C   UNL     1      33.352  20.302   7.090  0.00  0.00    +0.000 A 
ATOM     13  F   UNL     1      34.188  19.493   6.396  0.00  0.00    +0.000 F 
ATOM     14  C   UNL     1      33.008  20.084   8.408  0.00  0.00    +0.000 A 
ATOM     15  C   UNL     1      32.158  20.915   9.098  0.00  0.00    +0.000 A 
ENDROOT
BRANCH   1  16
ATOM     16  C   UNL     1      28.673  23.668  13.157  0.00  0.00    +0.000 C 
BRANCH  16  17
ATOM     17  C   UNL     1      27.222  24.019  12.904  0.00  0.00    +0.000 C 
BRANCH  17  19
ATOM     18  C   UNL     1      26.263  22.336  11.376  0.00  0.00    +0.000 C 
ATOM     19  C   UNL     1      26.420  22.741  12.824  0.00  0.00    +0.000 C 
ENDBRANCH  17  19
ENDBRANCH  16  17
ENDBRANCH   1  16
TORSDOF 3
ENDMDL
MODEL 10
REMARK VINA RESULT:      -5.8     20.982     22.247
REMARK  Name = 
REMARK  3 active torsions:
REMARK  status: ('A' for Active; 'I' for Inactive)
REMARK    1  A    between atoms: C_2  and  C_3
REMARK    2  A    between atoms: C_3  and  C_4
REMARK    3  A    between atoms: C_4  and  N_5
REMARK                            x       y       z     vdW  Elec       q    Type
REMARK                         _______ _______ _______ _____ _____    ______ ____
ROOT
ATOM      1  N   UNL     1      18.785  -9.174  27.198  0.00  0.00    +0.000 NA
ATOM      2  C   UNL     1      19.340  -8.015  26.611  0.00  0.00    +0.000 A 
ATOM      3  N   UNL     1      18.662  -6.868  26.663  0.00  0.00    +0.000 NA
ATOM      4  C   UNL     1      19.138  -5.729  26.124  0.00  0.00    +0.000 A 
ATOM      5  N   UNL     1      20.337  -5.744  25.508  0.00  0.00    +0.000 NA
ATOM      6  C   UNL     1      21.086  -6.852  25.409  0.00  0.00    +0.000 A 
ATOM      7  C   UNL     1      20.565  -8.007  25.977  0.00  0.00    +0.000 A 
ATOM      8  N   UNL     1      21.484  -8.958  25.749  0.00  0.00    +0.000 NA
ATOM      9  C   UNL     1      22.546  -8.461  25.073  0.00  0.00    +0.000 A 
ATOM     10  C   UNL     1      23.726  -9.033  24.614  0.00  0.00    +0.000 A 
ATOM     11  C   UNL     1      24.667  -8.282  23.934  0.00  0.00    +0.000 A 
ATOM     12  C   UNL     1      24.439  -6.945  23.706  0.00  0.00    +0.000 A 
ATOM     13  F   UNL     1      25.383  -6.240  23.036  0.00  0.00    +0.000 F 
ATOM     14  C   UNL     1      23.264  -6.390  24.168  0.00  0.00    +0.000 A 
ATOM     15  C   UNL     1      22.317  -7.120  24.845  0.00  0.00    +0.000 A 
ENDROOT
BRANCH   1  16
ATOM     16  C   UNL     1      17.495  -9.107  27.845  0.00  0.00    +0.000 C 
BRANCH  16  17
ATOM     17  C   UNL     1      17.625  -9.712  29.226  0.00  0.00    +0.000 C 
BRANCH  17  19
ATOM     18  C   UNL     1      19.515  -9.709  30.813  0.00  0.00    +0.000 C 
ATOM     19  C   UNL     1      19.060 -10.138  29.437  0.00  0.00    +0.000 C 
ENDBRANCH  17  19
ENDBRANCH  16  17
ENDBRANCH   1  16
TORSDOF 3
ENDMDL
