MODEL 1
REMARK VINA RESULT:      -5.5      0.000      0.000
REMARK  Name = 
REMARK  5 active torsions:
REMARK  status: ('A' for Active; 'I' for Inactive)
REMARK    1  A    between atoms: C_2  and  O_3
REMARK    2  A    between atoms: O_3  and  C_4
REMARK    3  A    between atoms: C_10  and  C_11
REMARK    4  A    between atoms: C_13  and  C_14
REMARK    5  A    between atoms: C_17  and  O_18
REMARK                            x       y       z     vdW  Elec       q    Type
REMARK                         _______ _______ _______ _____ _____    ______ ____
ROOT
ATOM      1  C   UNL     1      17.782   9.212  39.229  0.00  0.00    +0.000 C 
ATOM      2  C   UNL     1      16.728   9.782  39.655  0.00  0.00    +0.000 C 
ATOM      3  C   UNL     1      16.396   9.624  41.140  0.00  0.00    +0.000 C 
ATOM      4  O   UNL     1      15.858  10.535  38.873  0.00  0.00    +0.000 OA
ATOM      5  C   UNL     1      16.235  10.626  37.538  0.00  0.00    +0.000 C 
ATOM      6  N   UNL     1      15.390  11.397  36.622  0.00  0.00    +0.000 NA
ATOM      7  C   UNL     1      17.281  10.093  36.987  0.00  0.00    +0.000 C 
ATOM      8  C   UNL     1      18.283   9.245  37.808  0.00  0.00    +0.000 C 
ENDROOT
BRANCH   8   9
ATOM      9  C   UNL     1      19.513  10.221  37.932  0.00  0.00    +0.000 A 
ATOM     10  C   UNL     1      20.725   9.871  37.433  0.00  0.00    +0.000 A 
ATOM     11  C   UNL     1      21.832  10.704  37.522  0.00  0.00    +0.000 A 
ATOM     12  C   UNL     1      21.690  11.922  38.136  0.00  0.00    +0.000 A 
ATOM     13  C   UNL     1      20.469  12.294  38.648  0.00  0.00    +0.000 A 
ATOM     14  C   UNL     1      19.357  11.426  38.543  0.00  0.00    +0.000 A 
BRANCH  12  15
ATOM     15  O   UNL     1      22.807  12.782  38.236  0.00  0.00    +0.000 OA
ATOM     16  C   UNL     1      24.104  12.342  37.920  0.00  0.00    +0.000 C 
ENDBRANCH  12  15
ENDBRANCH   8   9
BRANCH   7  17
ATOM     17  C   UNL     1      17.536  10.283  35.573  0.00  0.00    +0.000 C 
ATOM     18  N   UNL     1      17.717  10.429  34.440  0.00  0.00    +0.000 NA
ENDBRANCH   7  17
BRANCH   1  19
ATOM     19  O   UNL     1      18.587   8.477  40.109  0.00  0.00    +0.000 OA
BRANCH  19  21
ATOM     20  C   UNL     1      17.893   6.267  40.788  0.00  0.00    +0.000 C 
ATOM     21  C   UNL     1      18.790   7.075  39.894  0.00  0.00    +0.000 C 
ENDBRANCH  19  21
ENDBRANCH   1  19
TORSDOF 5
ENDMDL
MODEL 2
REMARK VINA RESULT:      -5.4      2.569      4.782
REMARK  Name = 
REMARK  5 active torsions:
REMARK  status: ('A' for Active; 'I' for Inactive)
REMARK    1  A    between atoms: C_2  and  O_3
REMARK    2  A    between atoms: O_3  and  C_4
REMARK    3  A    between atoms: C_10  and  C_11
REMARK    4  A    between atoms: C_13  and  C_14
REMARK    5  A    between atoms: C_17  and  O_18
REMARK                            x       y       z     vdW  Elec       q    Type
REMARK                         _______ _______ _______ _____ _____    ______ ____
ROOT
ATOM      1  C   UNL     1      18.245   8.917  39.891  0.00  0.00    +0.000 C 
ATOM      2  C   UNL     1      19.131   8.021  40.068  0.00  0.00    +0.000 C 
ATOM      3  C   UNL     1      18.657   6.656  40.570  0.00  0.00    +0.000 C 
ATOM      4  O   UNL     1      20.492   8.191  39.840  0.00  0.00    +0.000 OA
ATOM      5  C   UNL     1      20.834   9.460  39.386  0.00  0.00    +0.000 C 
ATOM      6  N   UNL     1      22.244   9.750  39.113  0.00  0.00    +0.000 NA
ATOM      7  C   UNL     1      20.027  10.451  39.169  0.00  0.00    +0.000 C 
ATOM      8  C   UNL     1      18.503  10.319  39.405  0.00  0.00    +0.000 C 
ENDROOT
BRANCH   8   9
ATOM      9  C   UNL     1      17.948  10.248  37.933  0.00  0.00    +0.000 A 
ATOM     10  C   UNL     1      18.449   9.349  37.049  0.00  0.00    +0.000 A 
ATOM     11  C   UNL     1      17.987   9.255  35.744  0.00  0.00    +0.000 A 
ATOM     12  C   UNL     1      16.989  10.103  35.337  0.00  0.00    +0.000 A 
ATOM     13  C   UNL     1      16.468  11.022  36.219  0.00  0.00    +0.000 A 
ATOM     14  C   UNL     1      16.958  11.096  37.545  0.00  0.00    +0.000 A 
BRANCH  12  15
ATOM     15  O   UNL     1      16.507  10.022  34.012  0.00  0.00    +0.000 OA
ATOM     16  C   UNL     1      15.817  11.090  33.413  0.00  0.00    +0.000 C 
ENDBRANCH  12  15
ENDBRANCH   8   9
BRANCH   7  17
ATOM     17  C   UNL     1      20.543  11.719  38.692  0.00  0.00    +0.000 C 
ATOM     18  N   UNL     1      20.942  12.728  38.293  0.00  0.00    +0.000 NA
ENDBRANCH   7  17
BRANCH   1  19
ATOM     19  O   UNL     1      16.898   8.633  40.154  0.00  0.00    +0.000 OA
BRANCH  19  21
ATOM     20  C   UNL     1      16.475   9.377  42.410  0.00  0.00    +0.000 C 
ATOM     21  C   UNL     1      16.121   9.528  40.959  0.00  0.00    +0.000 C 
ENDBRANCH  19  21
ENDBRANCH   1  19
TORSDOF 5
ENDMDL
MODEL 3
REMARK VINA RESULT:      -5.3      1.760      5.231
REMARK  Name = 
REMARK  5 active torsions:
REMARK  status: ('A' for Active; 'I' for Inactive)
REMARK    1  A    between atoms: C_2  and  O_3
REMARK    2  A    between atoms: O_3  and  C_4
REMARK    3  A    between atoms: C_10  and  C_11
REMARK    4  A    between atoms: C_13  and  C_14
REMARK    5  A    between atoms: C_17  and  O_18
REMARK                            x       y       z     vdW  Elec       q    Type
REMARK                         _______ _______ _______ _____ _____    ______ ____
ROOT
ATOM      1  C   UNL     1      19.838  10.331  38.091  0.00  0.00    +0.000 C 
ATOM      2  C   UNL     1      20.180   9.929  36.933  0.00  0.00    +0.000 C 
ATOM      3  C   UNL     1      21.660   9.607  36.711  0.00  0.00    +0.000 C 
ATOM      4  O   UNL     1      19.313   9.764  35.858  0.00  0.00    +0.000 OA
ATOM      5  C   UNL     1      17.990  10.079  36.147  0.00  0.00    +0.000 C 
ATOM      6  N   UNL     1      16.988   9.941  35.087  0.00  0.00    +0.000 NA
ATOM      7  C   UNL     1      17.521  10.496  37.282  0.00  0.00    +0.000 C 
ATOM      8  C   UNL     1      18.439  10.698  38.512  0.00  0.00    +0.000 C 
ENDROOT
BRANCH   8   9
ATOM      9  C   UNL     1      18.050   9.469  39.416  0.00  0.00    +0.000 A 
ATOM     10  C   UNL     1      18.651   8.265  39.240  0.00  0.00    +0.000 A 
ATOM     11  C   UNL     1      18.335   7.159  40.017  0.00  0.00    +0.000 A 
ATOM     12  C   UNL     1      17.383   7.292  40.995  0.00  0.00    +0.000 A 
ATOM     13  C   UNL     1      16.764   8.505  41.189  0.00  0.00    +0.000 A 
ATOM     14  C   UNL     1      17.105   9.617  40.382  0.00  0.00    +0.000 A 
BRANCH  12  15
ATOM     15  O   UNL     1      17.050   6.176  41.795  0.00  0.00    +0.000 OA
ATOM     16  C   UNL     1      16.894   6.289  43.187  0.00  0.00    +0.000 C 
ENDBRANCH  12  15
ENDBRANCH   8   9
BRANCH   7  17
ATOM     17  C   UNL     1      16.107  10.783  37.424  0.00  0.00    +0.000 C 
ATOM     18  N   UNL     1      14.974  10.995  37.521  0.00  0.00    +0.000 NA
ENDBRANCH   7  17
BRANCH   1  19
ATOM     19  O   UNL     1      20.800  10.460  39.100  0.00  0.00    +0.000 OA
BRANCH  19  21
ATOM     20  C   UNL     1      21.672  12.707  38.977  0.00  0.00    +0.000 C 
ATOM     21  C   UNL     1      20.933  11.698  39.809  0.00  0.00    +0.000 C 
ENDBRANCH  19  21
ENDBRANCH   1  19
TORSDOF 5
ENDMDL
MODEL 4
REMARK VINA RESULT:      -5.2     20.631     22.294
REMARK  Name = 
REMARK  5 active torsions:
REMARK  status: ('A' for Active; 'I' for Inactive)
REMARK    1  A    between atoms: C_2  and  O_3
REMARK    2  A    between atoms: O_3  and  C_4
REMARK    3  A    between atoms: C_10  and  C_11
REMARK    4  A    between atoms: C_13  and  C_14
REMARK    5  A    between atoms: C_17  and  O_18
REMARK                            x       y       z     vdW  Elec       q    Type
REMARK                         _______ _______ _______ _____ _____    ______ ____
ROOT
ATOM      1  C   UNL     1      33.493  -5.911  31.660  0.00  0.00    +0.000 C 
ATOM      2  C   UNL     1      34.524  -5.883  30.915  0.00  0.00    +0.000 C 
ATOM      3  C   UNL     1      34.299  -5.687  29.414  0.00  0.00    +0.000 C 
ATOM      4  O   UNL     1      35.834  -6.017  31.361  0.00  0.00    +0.000 OA
ATOM      5  C   UNL     1      35.947  -6.191  32.735  0.00  0.00    +0.000 C 
ATOM      6  N   UNL     1      37.284  -6.343  33.316  0.00  0.00    +0.000 NA
ATOM      7  C   UNL     1      34.977  -6.237  33.595  0.00  0.00    +0.000 C 
ATOM      8  C   UNL     1      33.499  -6.094  33.155  0.00  0.00    +0.000 C 
ENDROOT
BRANCH   8   9
ATOM      9  C   UNL     1      33.151  -4.640  33.650  0.00  0.00    +0.000 A 
ATOM     10  C   UNL     1      33.792  -3.562  33.133  0.00  0.00    +0.000 A 
ATOM     11  C   UNL     1      33.512  -2.265  33.543  0.00  0.00    +0.000 A 
ATOM     12  C   UNL     1      32.554  -2.072  34.505  0.00  0.00    +0.000 A 
ATOM     13  C   UNL     1      31.893  -3.153  35.042  0.00  0.00    +0.000 A 
ATOM     14  C   UNL     1      32.198  -4.464  34.605  0.00  0.00    +0.000 A 
BRANCH  12  15
ATOM     15  O   UNL     1      32.257  -0.760  34.934  0.00  0.00    +0.000 OA
ATOM     16  C   UNL     1      32.651   0.365  34.188  0.00  0.00    +0.000 C 
ENDBRANCH  12  15
ENDBRANCH   8   9
BRANCH   7  17
ATOM     17  C   UNL     1      35.261  -6.425  35.004  0.00  0.00    +0.000 C 
ATOM     18  N   UNL     1      35.505  -6.559  36.126  0.00  0.00    +0.000 NA
ENDBRANCH   7  17
BRANCH   1  19
ATOM     19  O   UNL     1      32.218  -5.765  31.099  0.00  0.00    +0.000 OA
BRANCH  19  21
ATOM     20  C   UNL     1      30.171  -6.637  32.035  0.00  0.00    +0.000 C 
ATOM     21  C   UNL     1      31.310  -6.873  31.085  0.00  0.00    +0.000 C 
ENDBRANCH  19  21
ENDBRANCH   1  19
TORSDOF 5
ENDMDL
MODEL 5
REMARK VINA RESULT:      -5.1     19.637     22.460
REMARK  Name = 
REMARK  5 active torsions:
REMARK  status: ('A' for Active; 'I' for Inactive)
REMARK    1  A    between atoms: C_2  and  O_3
REMARK    2  A    between atoms: O_3  and  C_4
REMARK    3  A    between atoms: C_10  and  C_11
REMARK    4  A    between atoms: C_13  and  C_14
REMARK    5  A    between atoms: C_17  and  O_18
REMARK                            x       y       z     vdW  Elec       q    Type
REMARK                         _______ _______ _______ _____ _____    ______ ____
ROOT
ATOM      1  C   UNL     1      29.110  22.759  25.575  0.00  0.00    +0.000 C 
ATOM      2  C   UNL     1      27.974  23.232  25.901  0.00  0.00    +0.000 C 
ATOM      3  C   UNL     1      27.471  22.937  27.315  0.00  0.00    +0.000 C 
ATOM      4  O   UNL     1      27.160  23.993  25.069  0.00  0.00    +0.000 OA
ATOM      5  C   UNL     1      27.694  24.212  23.804  0.00  0.00    +0.000 C 
ATOM      6  N   UNL     1      26.920  25.003  22.844  0.00  0.00    +0.000 NA
ATOM      7  C   UNL     1      28.833  23.786  23.357  0.00  0.00    +0.000 C 
ATOM      8  C   UNL     1      29.780  22.935  24.238  0.00  0.00    +0.000 C 
ENDROOT
BRANCH   8   9
ATOM      9  C   UNL     1      30.916  23.967  24.589  0.00  0.00    +0.000 A 
ATOM     10  C   UNL     1      30.606  25.233  24.966  0.00  0.00    +0.000 A 
ATOM     11  C   UNL     1      31.579  26.171  25.284  0.00  0.00    +0.000 A 
ATOM     12  C   UNL     1      32.897  25.801  25.213  0.00  0.00    +0.000 A 
ATOM     13  C   UNL     1      33.231  24.522  24.832  0.00  0.00    +0.000 A 
ATOM     14  C   UNL     1      32.219  23.585  24.514  0.00  0.00    +0.000 A 
BRANCH  12  15
ATOM     15  O   UNL     1      33.900  26.744  25.532  0.00  0.00    +0.000 OA
ATOM     16  C   UNL     1      35.214  26.610  25.053  0.00  0.00    +0.000 C 
ENDBRANCH  12  15
ENDBRANCH   8   9
BRANCH   7  17
ATOM     17  C   UNL     1      29.250  24.102  22.005  0.00  0.00    +0.000 C 
ATOM     18  N   UNL     1      29.592  24.375  20.934  0.00  0.00    +0.000 NA
ENDBRANCH   7  17
BRANCH   1  19
ATOM     19  O   UNL     1      29.845  22.004  26.498  0.00  0.00    +0.000 OA
BRANCH  19  21
ATOM     20  C   UNL     1      31.623  21.898  28.127  0.00  0.00    +0.000 C 
ATOM     21  C   UNL     1      30.401  22.634  27.659  0.00  0.00    +0.000 C 
ENDBRANCH  19  21
ENDBRANCH   1  19
TORSDOF 5
ENDMDL
MODEL 6
REMARK VINA RESULT:      -5.1     20.396     23.029
REMARK  Name = 
REMARK  5 active torsions:
REMARK  status: ('A' for Active; 'I' for Inactive)
REMARK    1  A    between atoms: C_2  and  O_3
REMARK    2  A    between atoms: O_3  and  C_4
REMARK    3  A    between atoms: C_10  and  C_11
REMARK    4  A    between atoms: C_13  and  C_14
REMARK    5  A    between atoms: C_17  and  O_18
REMARK                            x       y       z     vdW  Elec       q    Type
REMARK                         _______ _______ _______ _____ _____    ______ ____
ROOT
ATOM      1  C   UNL     1      28.307  24.600  25.407  0.00  0.00    +0.000 C 
ATOM      2  C   UNL     1      27.486  25.571  25.444  0.00  0.00    +0.000 C 
ATOM      3  C   UNL     1      26.834  25.888  26.792  0.00  0.00    +0.000 C 
ATOM      4  O   UNL     1      27.139  26.363  24.355  0.00  0.00    +0.000 OA
ATOM      5  C   UNL     1      27.776  26.005  23.172  0.00  0.00    +0.000 C 
ATOM      6  N   UNL     1      27.484  26.773  21.959  0.00  0.00    +0.000 NA
ATOM      7  C   UNL     1      28.628  25.042  23.009  0.00  0.00    +0.000 C 
ATOM      8  C   UNL     1      29.052  24.129  24.185  0.00  0.00    +0.000 C 
ENDROOT
BRANCH   8   9
ATOM      9  C   UNL     1      30.509  24.642  24.488  0.00  0.00    +0.000 A 
ATOM     10  C   UNL     1      31.570  23.800  24.401  0.00  0.00    +0.000 A 
ATOM     11  C   UNL     1      32.869  24.216  24.660  0.00  0.00    +0.000 A 
ATOM     12  C   UNL     1      33.083  25.522  25.016  0.00  0.00    +0.000 A 
ATOM     13  C   UNL     1      32.020  26.391  25.110  0.00  0.00    +0.000 A 
ATOM     14  C   UNL     1      30.706  25.941  24.840  0.00  0.00    +0.000 A 
BRANCH  12  15
ATOM     15  O   UNL     1      34.399  25.961  25.283  0.00  0.00    +0.000 OA
ATOM     16  C   UNL     1      35.519  25.271  24.790  0.00  0.00    +0.000 C 
ENDBRANCH  12  15
ENDBRANCH   8   9
BRANCH   7  17
ATOM     17  C   UNL     1      29.208  24.797  21.703  0.00  0.00    +0.000 C 
ATOM     18  N   UNL     1      29.656  24.584  20.658  0.00  0.00    +0.000 NA
ENDBRANCH   7  17
BRANCH   1  19
ATOM     19  O   UNL     1      28.583  23.870  26.571  0.00  0.00    +0.000 OA
BRANCH  19  21
ATOM     20  C   UNL     1      29.940  21.932  27.046  0.00  0.00    +0.000 C 
ATOM     21  C   UNL     1      28.626  22.439  26.526  0.00  0.00    +0.000 C 
ENDBRANCH  19  21
ENDBRANCH   1  19
TORSDOF 5
ENDMDL
MODEL 7
REMARK VINA RESULT:      -5.0     17.208     20.364
REMARK  Name = 
REMARK  5 active torsions:
REMARK  status: ('A' for Active; 'I' for Inactive)
REMARK    1  A    between atoms: C_2  and  O_3
REMARK    2  A    between atoms: O_3  and  C_4
REMARK    3  A    between atoms: C_10  and  C_11
REMARK    4  A    between atoms: C_13  and  C_14
REMARK    5  A    between atoms: C_17  and  O_18
REMARK                            x       y       z     vdW  Elec       q    Type
REMARK                         _______ _______ _______ _____ _____    ______ ____
ROOT
ATOM      1  C   UNL     1      26.996  23.922  27.820  0.00  0.00    +0.000 C 
ATOM      2  C   UNL     1      26.396  25.023  28.038  0.00  0.00    +0.000 C 
ATOM      3  C   UNL     1      26.556  25.645  29.427  0.00  0.00    +0.000 C 
ATOM      4  O   UNL     1      25.610  25.699  27.112  0.00  0.00    +0.000 OA
ATOM      5  C   UNL     1      25.519  25.064  25.879  0.00  0.00    +0.000 C 
ATOM      6  N   UNL     1      24.714  25.689  24.826  0.00  0.00    +0.000 NA
ATOM      7  C   UNL     1      26.080  23.946  25.537  0.00  0.00    +0.000 C 
ATOM      8  C   UNL     1      26.966  23.150  26.527  0.00  0.00    +0.000 C 
ENDROOT
BRANCH   8   9
ATOM      9  C   UNL     1      28.411  23.424  25.965  0.00  0.00    +0.000 A 
ATOM     10  C   UNL     1      29.255  22.396  25.698  0.00  0.00    +0.000 A 
ATOM     11  C   UNL     1      30.536  22.597  25.202  0.00  0.00    +0.000 A 
ATOM     12  C   UNL     1      30.958  23.882  24.974  0.00  0.00    +0.000 A 
ATOM     13  C   UNL     1      30.117  24.937  25.238  0.00  0.00    +0.000 A 
ATOM     14  C   UNL     1      28.816  24.704  25.744  0.00  0.00    +0.000 A 
BRANCH  12  15
ATOM     15  O   UNL     1      32.259  24.104  24.470  0.00  0.00    +0.000 OA
ATOM     16  C   UNL     1      33.215  24.833  25.197  0.00  0.00    +0.000 C 
ENDBRANCH  12  15
ENDBRANCH   8   9
BRANCH   7  17
ATOM     17  C   UNL     1      25.887  23.412  24.203  0.00  0.00    +0.000 C 
ATOM     18  N   UNL     1      25.745  22.967  23.146  0.00  0.00    +0.000 NA
ENDBRANCH   7  17
BRANCH   1  19
ATOM     19  O   UNL     1      27.764  23.330  28.831  0.00  0.00    +0.000 OA
BRANCH  19  21
ATOM     20  C   UNL     1      26.422  21.986  30.320  0.00  0.00    +0.000 C 
ATOM     21  C   UNL     1      27.481  21.990  29.255  0.00  0.00    +0.000 C 
ENDBRANCH  19  21
ENDBRANCH   1  19
TORSDOF 5
ENDMDL
MODEL 8
REMARK VINA RESULT:      -5.0     21.862     23.245
REMARK  Name = 
REMARK  5 active torsions:
REMARK  status: ('A' for Active; 'I' for Inactive)
REMARK    1  A    between atoms: C_2  and  O_3
REMARK    2  A    between atoms: O_3  and  C_4
REMARK    3  A    between atoms: C_10  and  C_11
REMARK    4  A    between atoms: C_13  and  C_14
REMARK    5  A    between atoms: C_17  and  O_18
REMARK                            x       y       z     vdW  Elec       q    Type
REMARK                         _______ _______ _______ _____ _____    ______ ____
ROOT
ATOM      1  C   UNL     1      18.584  -8.275  26.060  0.00  0.00    +0.000 C 
ATOM      2  C   UNL     1      17.757  -9.223  25.864  0.00  0.00    +0.000 C 
ATOM      3  C   UNL     1      16.390  -8.852  25.286  0.00  0.00    +0.000 C 
ATOM      4  O   UNL     1      18.004 -10.564  26.135  0.00  0.00    +0.000 OA
ATOM      5  C   UNL     1      19.268 -10.810  26.657  0.00  0.00    +0.000 C 
ATOM      6  N   UNL     1      19.636 -12.192  26.981  0.00  0.00    +0.000 NA
ATOM      7  C   UNL     1      20.193  -9.935  26.901  0.00  0.00    +0.000 C 
ATOM      8  C   UNL     1      19.975  -8.428  26.618  0.00  0.00    +0.000 C 
ENDROOT
BRANCH   8   9
ATOM      9  C   UNL     1      20.856  -8.206  25.332  0.00  0.00    +0.000 A 
ATOM     10  C   UNL     1      20.779  -9.065  24.285  0.00  0.00    +0.000 A 
ATOM     11  C   UNL     1      21.539  -8.902  23.135  0.00  0.00    +0.000 A 
ATOM     12  C   UNL     1      22.396  -7.834  23.059  0.00  0.00    +0.000 A 
ATOM     13  C   UNL     1      22.488  -6.952  24.111  0.00  0.00    +0.000 A 
ATOM     14  C   UNL     1      21.701  -7.142  25.272  0.00  0.00    +0.000 A 
BRANCH  12  15
ATOM     15  O   UNL     1      23.177  -7.654  21.896  0.00  0.00    +0.000 OA
ATOM     16  C   UNL     1      23.140  -8.574  20.835  0.00  0.00    +0.000 C 
ENDBRANCH  12  15
ENDBRANCH   8   9
BRANCH   7  17
ATOM     17  C   UNL     1      21.467 -10.355  27.449  0.00  0.00    +0.000 C 
ATOM     18  N   UNL     1      22.490 -10.668  27.890  0.00  0.00    +0.000 NA
ENDBRANCH   7  17
BRANCH   1  19
ATOM     19  O   UNL     1      18.227  -6.957  25.748  0.00  0.00    +0.000 OA
BRANCH  19  21
ATOM     20  C   UNL     1      19.035  -4.783  26.412  0.00  0.00    +0.000 C 
ATOM     21  C   UNL     1      18.182  -5.963  26.779  0.00  0.00    +0.000 C 
ENDBRANCH  19  21
ENDBRANCH   1  19
TORSDOF 5
ENDMDL
MODEL 9
REMARK VINA RESULT:      -4.9     21.232     23.755
REMARK  Name = 
REMARK  5 active torsions:
REMARK  status: ('A' for Active; 'I' for Inactive)
REMARK    1  A    between atoms: C_2  and  O_3
REMARK    2  A    between atoms: O_3  and  C_4
REMARK    3  A    between atoms: C_10  and  C_11
REMARK    4  A    between atoms: C_13  and  C_14
REMARK    5  A    between atoms: C_17  and  O_18
REMARK                            x       y       z     vdW  Elec       q    Type
REMARK                         _______ _______ _______ _____ _____    ______ ____
ROOT
ATOM      1  C   UNL     1      29.474  24.805  24.795  0.00  0.00    +0.000 C 
ATOM      2  C   UNL     1      28.892  25.251  25.835  0.00  0.00    +0.000 C 
ATOM      3  C   UNL     1      29.770  25.914  26.899  0.00  0.00    +0.000 C 
ATOM      4  O   UNL     1      27.525  25.180  26.076  0.00  0.00    +0.000 OA
ATOM      5  C   UNL     1      26.805  24.562  25.059  0.00  0.00    +0.000 C 
ATOM      6  N   UNL     1      25.352  24.433  25.208  0.00  0.00    +0.000 NA
ATOM      7  C   UNL     1      27.280  24.070  23.958  0.00  0.00    +0.000 C 
ATOM      8  C   UNL     1      28.793  24.121  23.637  0.00  0.00    +0.000 C 
ENDROOT
BRANCH   8   9
ATOM      9  C   UNL     1      28.856  25.240  22.531  0.00  0.00    +0.000 A 
ATOM     10  C   UNL     1      28.386  26.488  22.784  0.00  0.00    +0.000 A 
ATOM     11  C   UNL     1      28.424  27.501  21.835  0.00  0.00    +0.000 A 
ATOM     12  C   UNL     1      28.955  27.226  20.601  0.00  0.00    +0.000 A 
ATOM     13  C   UNL     1      29.436  25.967  20.326  0.00  0.00    +0.000 A 
ATOM     14  C   UNL     1      29.386  24.953  21.312  0.00  0.00    +0.000 A 
BRANCH  12  15
ATOM     15  O   UNL     1      29.001  28.245  19.624  0.00  0.00    +0.000 OA
ATOM     16  C   UNL     1      30.206  28.613  19.001  0.00  0.00    +0.000 C 
ENDBRANCH  12  15
ENDBRANCH   8   9
BRANCH   7  17
ATOM     17  C   UNL     1      26.391  23.456  22.992  0.00  0.00    +0.000 C 
ATOM     18  N   UNL     1      25.664  22.978  22.230  0.00  0.00    +0.000 NA
ENDBRANCH   7  17
BRANCH   1  19
ATOM     19  O   UNL     1      30.862  24.932  24.658  0.00  0.00    +0.000 OA
BRANCH  19  21
ATOM     20  C   UNL     1      33.123  24.090  24.696  0.00  0.00    +0.000 C 
ATOM     21  C   UNL     1      31.674  23.766  24.473  0.00  0.00    +0.000 C 
ENDBRANCH  19  21
ENDBRANCH   1  19
TORSDOF 5
ENDMDL
MODEL 10
REMARK VINA RESULT:      -4.9     21.040     22.871
REMARK  Name = 
REMARK  5 active torsions:
REMARK  status: ('A' for Active; 'I' for Inactive)
REMARK    1  A    between atoms: C_2  and  O_3
REMARK    2  A    between atoms: O_3  and  C_4
REMARK    3  A    between atoms: C_10  and  C_11
REMARK    4  A    between atoms: C_13  and  C_14
REMARK    5  A    between atoms: C_17  and  O_18
REMARK                            x       y       z     vdW  Elec       q    Type
REMARK                         _______ _______ _______ _____ _____    ______ ____
ROOT
ATOM      1  C   UNL     1      18.634  -7.411  25.947  0.00  0.00    +0.000 C 
ATOM      2  C   UNL     1      19.333  -6.356  26.076  0.00  0.00    +0.000 C 
ATOM      3  C   UNL     1      18.626  -5.107  26.607  0.00  0.00    +0.000 C 
ATOM      4  O   UNL     1      20.686  -6.255  25.772  0.00  0.00    +0.000 OA
ATOM      5  C   UNL     1      21.247  -7.435  25.296  0.00  0.00    +0.000 C 
ATOM      6  N   UNL     1      22.670  -7.443  24.944  0.00  0.00    +0.000 NA
ATOM      7  C   UNL     1      20.642  -8.567  25.121  0.00  0.00    +0.000 C 
ATOM      8  C   UNL     1      19.137  -8.739  25.443  0.00  0.00    +0.000 C 
ENDROOT
BRANCH   8   9
ATOM      9  C   UNL     1      19.180  -9.582  26.772  0.00  0.00    +0.000 A 
ATOM     10  C   UNL     1      19.907  -9.158  27.836  0.00  0.00    +0.000 A 
ATOM     11  C   UNL     1      19.969  -9.873  29.024  0.00  0.00    +0.000 A 
ATOM     12  C   UNL     1      19.272 -11.050  29.121  0.00  0.00    +0.000 A 
ATOM     13  C   UNL     1      18.530 -11.497  28.052  0.00  0.00    +0.000 A 
ATOM     14  C   UNL     1      18.483 -10.747  26.853  0.00  0.00    +0.000 A 
BRANCH  12  15
ATOM     15  O   UNL     1      19.325 -11.791  30.322  0.00  0.00    +0.000 OA
ATOM     16  C   UNL     1      18.558 -11.431  31.443  0.00  0.00    +0.000 C 
ENDBRANCH  12  15
ENDBRANCH   8   9
BRANCH   7  17
ATOM     17  C   UNL     1      21.372  -9.713  24.615  0.00  0.00    +0.000 C 
ATOM     18  N   UNL     1      21.953 -10.637  24.232  0.00  0.00    +0.000 NA
ENDBRANCH   7  17
BRANCH   1  19
ATOM     19  O   UNL     1      17.275  -7.397  26.286  0.00  0.00    +0.000 OA
BRANCH  19  21
ATOM     20  C   UNL     1      15.274  -8.742  26.163  0.00  0.00    +0.000 C 
ATOM     21  C   UNL     1      16.308  -7.968  25.396  0.00  0.00    +0.000 C 
ENDBRANCH  19  21
ENDBRANCH   1  19
TORSDOF 5
ENDMDL
