MODEL 1
REMARK VINA RESULT:      -7.5      0.000      0.000
REMARK  Name = 
REMARK  6 active torsions:
REMARK  status: ('A' for Active; 'I' for Inactive)
REMARK    1  A    between atoms: C_2  and  C_3
REMARK    2  A    between atoms: C_3  and  C_4
REMARK    3  A    between atoms: C_4  and  N_5
REMARK    4  A    between atoms: N_5  and  C_7
REMARK    5  A    between atoms: C_9  and  C_10
REMARK    6  A    between atoms: C_17  and  C_18
REMARK                            x       y       z     vdW  Elec       q    Type
REMARK                         _______ _______ _______ _____ _____    ______ ____
ROOT
ATOM      1  C   UNL     1      37.021   5.549  14.609  0.00  0.00    +0.000 A 
ATOM      2  C   UNL     1      37.989   6.069  15.460  0.00  0.00    +0.000 A 
ATOM      3  C   UNL     1      38.439   5.258  16.481  0.00  0.00    +0.000 A 
ATOM      4  C   UNL     1      37.911   3.972  16.618  0.00  0.00    +0.000 A 
ATOM      5  C   UNL     1      36.951   3.483  15.760  0.00  0.00    +0.000 A 
ATOM      6  N   UNL     1      36.531   4.293  14.773  0.00  0.00    +0.000 NA
ENDROOT
BRANCH   5   7
ATOM      7  C   UNL     1      36.433   2.123  15.965  0.00  0.00    +0.000 A 
ATOM      8  C   UNL     1      35.311   1.924  16.746  0.00  0.00    +0.000 A 
ATOM      9  C   UNL     1      34.834   0.664  16.920  0.00  0.00    +0.000 A 
ATOM     10  C   UNL     1      35.408  -0.446  16.359  0.00  0.00    +0.000 A 
ATOM     11  O   UNL     1      34.856  -1.706  16.584  0.00  0.00    +0.000 OA
ATOM     12  C   UNL     1      36.531  -0.250  15.579  0.00  0.00    +0.000 A 
ATOM     13  C   UNL     1      37.035   1.020  15.386  0.00  0.00    +0.000 A 
ATOM     14  C   UNL     1      38.242   1.250  14.554  0.00  0.00    +0.000 C 
ENDBRANCH   5   7
BRANCH   3  15
ATOM     15  C   UNL     1      39.462   5.709  17.439  0.00  0.00    +0.000 A 
ATOM     16  C   UNL     1      40.734   6.047  17.010  0.00  0.00    +0.000 A 
ATOM     17  C   UNL     1      41.727   6.475  17.884  0.00  0.00    +0.000 A 
ATOM     18  C   UNL     1      41.411   6.558  19.224  0.00  0.00    +0.000 A 
ATOM     19  C   UNL     1      40.150   6.230  19.700  0.00  0.00    +0.000 A 
ATOM     20  C   UNL     1      39.185   5.806  18.788  0.00  0.00    +0.000 A 
ENDBRANCH   3  15
BRANCH   1  21
ATOM     21  N   UNL     1      36.536   6.369  13.550  0.00  0.00    +0.000 N 
ATOM     22  C   UNL     1      37.179   7.637  13.230  0.00  0.00    +0.000 C 
BRANCH  21  23
ATOM     23  C   UNL     1      35.391   5.982  12.755  0.00  0.00    +0.000 C 
BRANCH  23  24
ATOM     24  C   UNL     1      34.303   7.027  12.864  0.00  0.00    +0.000 C 
BRANCH  24  26
ATOM     25  C   UNL     1      33.712   8.363  14.893  0.00  0.00    +0.000 C 
ATOM     26  C   UNL     1      33.641   7.023  14.208  0.00  0.00    +0.000 C 
ENDBRANCH  24  26
ENDBRANCH  23  24
ENDBRANCH  21  23
ENDBRANCH   1  21
TORSDOF 6
ENDMDL
MODEL 2
REMARK VINA RESULT:      -7.4      1.405      5.394
REMARK  Name = 
REMARK  6 active torsions:
REMARK  status: ('A' for Active; 'I' for Inactive)
REMARK    1  A    between atoms: C_2  and  C_3
REMARK    2  A    between atoms: C_3  and  C_4
REMARK    3  A    between atoms: C_4  and  N_5
REMARK    4  A    between atoms: N_5  and  C_7
REMARK    5  A    between atoms: C_9  and  C_10
REMARK    6  A    between atoms: C_17  and  C_18
REMARK                            x       y       z     vdW  Elec       q    Type
REMARK                         _______ _______ _______ _____ _____    ______ ____
ROOT
ATOM      1  C   UNL     1      37.955   4.678  16.220  0.00  0.00    +0.000 A 
ATOM      2  C   UNL     1      37.284   5.476  15.301  0.00  0.00    +0.000 A 
ATOM      3  C   UNL     1      36.210   4.916  14.641  0.00  0.00    +0.000 A 
ATOM      4  C   UNL     1      35.848   3.595  14.915  0.00  0.00    +0.000 A 
ATOM      5  C   UNL     1      36.532   2.828  15.831  0.00  0.00    +0.000 A 
ATOM      6  N   UNL     1      37.574   3.396  16.461  0.00  0.00    +0.000 NA
ENDROOT
BRANCH   5   7
ATOM      7  C   UNL     1      36.103   1.442  16.067  0.00  0.00    +0.000 A 
ATOM      8  C   UNL     1      35.054   1.183  16.927  0.00  0.00    +0.000 A 
ATOM      9  C   UNL     1      34.659  -0.101  17.130  0.00  0.00    +0.000 A 
ATOM     10  C   UNL     1      35.248  -1.178  16.523  0.00  0.00    +0.000 A 
ATOM     11  O   UNL     1      34.782  -2.466  16.782  0.00  0.00    +0.000 OA
ATOM     12  C   UNL     1      36.298  -0.922  15.664  0.00  0.00    +0.000 A 
ATOM     13  C   UNL     1      36.719   0.373  15.440  0.00  0.00    +0.000 A 
ATOM     14  C   UNL     1      37.847   0.668  14.522  0.00  0.00    +0.000 C 
ENDBRANCH   5   7
BRANCH   3  15
ATOM     15  C   UNL     1      35.429   5.672  13.647  0.00  0.00    +0.000 A 
ATOM     16  C   UNL     1      34.255   6.312  14.006  0.00  0.00    +0.000 A 
ATOM     17  C   UNL     1      33.490   7.034  13.097  0.00  0.00    +0.000 A 
ATOM     18  C   UNL     1      33.936   7.101  11.793  0.00  0.00    +0.000 A 
ATOM     19  C   UNL     1      35.105   6.475  11.387  0.00  0.00    +0.000 A 
ATOM     20  C   UNL     1      35.842   5.763  12.333  0.00  0.00    +0.000 A 
ENDBRANCH   3  15
BRANCH   1  21
ATOM     21  N   UNL     1      39.072   5.230  16.910  0.00  0.00    +0.000 N 
ATOM     22  C   UNL     1      40.215   5.762  16.181  0.00  0.00    +0.000 C 
BRANCH  21  23
ATOM     23  C   UNL     1      39.119   5.284  18.355  0.00  0.00    +0.000 C 
BRANCH  23  24
ATOM     24  C   UNL     1      40.387   5.972  18.810  0.00  0.00    +0.000 C 
BRANCH  24  26
ATOM     25  C   UNL     1      39.022   7.610  20.117  0.00  0.00    +0.000 C 
ATOM     26  C   UNL     1      40.211   6.684  20.117  0.00  0.00    +0.000 C 
ENDBRANCH  24  26
ENDBRANCH  23  24
ENDBRANCH  21  23
ENDBRANCH   1  21
TORSDOF 6
ENDMDL
MODEL 3
REMARK VINA RESULT:      -7.2      2.626      6.938
REMARK  Name = 
REMARK  6 active torsions:
REMARK  status: ('A' for Active; 'I' for Inactive)
REMARK    1  A    between atoms: C_2  and  C_3
REMARK    2  A    between atoms: C_3  and  C_4
REMARK    3  A    between atoms: C_4  and  N_5
REMARK    4  A    between atoms: N_5  and  C_7
REMARK    5  A    between atoms: C_9  and  C_10
REMARK    6  A    between atoms: C_17  and  C_18
REMARK                            x       y       z     vdW  Elec       q    Type
REMARK                         _______ _______ _______ _____ _____    ______ ____
ROOT
ATOM      1  C   UNL     1      37.623   5.390  15.792  0.00  0.00    +0.000 A 
ATOM      2  C   UNL     1      37.344   4.078  16.153  0.00  0.00    +0.000 A 
ATOM      3  C   UNL     1      36.459   3.377  15.359  0.00  0.00    +0.000 A 
ATOM      4  C   UNL     1      35.889   4.003  14.249  0.00  0.00    +0.000 A 
ATOM      5  C   UNL     1      36.183   5.306  13.916  0.00  0.00    +0.000 A 
ATOM      6  N   UNL     1      37.048   5.967  14.704  0.00  0.00    +0.000 NA
ENDROOT
BRANCH   5   7
ATOM      7  C   UNL     1      35.542   5.907  12.738  0.00  0.00    +0.000 A 
ATOM      8  C   UNL     1      36.098   5.729  11.486  0.00  0.00    +0.000 A 
ATOM      9  C   UNL     1      35.491   6.280  10.402  0.00  0.00    +0.000 A 
ATOM     10  C   UNL     1      34.339   7.017  10.474  0.00  0.00    +0.000 A 
ATOM     11  O   UNL     1      33.776   7.547   9.314  0.00  0.00    +0.000 OA
ATOM     12  C   UNL     1      33.782   7.198  11.725  0.00  0.00    +0.000 A 
ATOM     13  C   UNL     1      34.378   6.648  12.841  0.00  0.00    +0.000 A 
ATOM     14  C   UNL     1      33.797   6.833  14.194  0.00  0.00    +0.000 C 
ENDBRANCH   5   7
BRANCH   3  15
ATOM     15  C   UNL     1      36.093   1.980  15.650  0.00  0.00    +0.000 A 
ATOM     16  C   UNL     1      35.193   1.679  16.658  0.00  0.00    +0.000 A 
ATOM     17  C   UNL     1      34.824   0.374  16.963  0.00  0.00    +0.000 A 
ATOM     18  C   UNL     1      35.388  -0.643  16.222  0.00  0.00    +0.000 A 
ATOM     19  C   UNL     1      36.294  -0.389  15.202  0.00  0.00    +0.000 A 
ATOM     20  C   UNL     1      36.635   0.934  14.930  0.00  0.00    +0.000 A 
ENDBRANCH   3  15
BRANCH   1  21
ATOM     21  N   UNL     1      38.528   6.138  16.598  0.00  0.00    +0.000 N 
ATOM     22  C   UNL     1      38.486   7.594  16.618  0.00  0.00    +0.000 C 
BRANCH  21  23
ATOM     23  C   UNL     1      39.522   5.489  17.424  0.00  0.00    +0.000 C 
BRANCH  23  24
ATOM     24  C   UNL     1      39.189   5.679  18.888  0.00  0.00    +0.000 C 
BRANCH  24  26
ATOM     25  C   UNL     1      41.551   6.495  18.809  0.00  0.00    +0.000 C 
ATOM     26  C   UNL     1      40.319   6.297  19.653  0.00  0.00    +0.000 C 
ENDBRANCH  24  26
ENDBRANCH  23  24
ENDBRANCH  21  23
ENDBRANCH   1  21
TORSDOF 6
ENDMDL
MODEL 4
REMARK VINA RESULT:      -7.2      2.628      5.831
REMARK  Name = 
REMARK  6 active torsions:
REMARK  status: ('A' for Active; 'I' for Inactive)
REMARK    1  A    between atoms: C_2  and  C_3
REMARK    2  A    between atoms: C_3  and  C_4
REMARK    3  A    between atoms: C_4  and  N_5
REMARK    4  A    between atoms: N_5  and  C_7
REMARK    5  A    between atoms: C_9  and  C_10
REMARK    6  A    between atoms: C_17  and  C_18
REMARK                            x       y       z     vdW  Elec       q    Type
REMARK                         _______ _______ _______ _____ _____    ______ ____
ROOT
ATOM      1  C   UNL     1      36.314   2.687  15.578  0.00  0.00    +0.000 A 
ATOM      2  C   UNL     1      37.355   3.183  16.353  0.00  0.00    +0.000 A 
ATOM      3  C   UNL     1      37.752   4.483  16.124  0.00  0.00    +0.000 A 
ATOM      4  C   UNL     1      37.107   5.235  15.139  0.00  0.00    +0.000 A 
ATOM      5  C   UNL     1      36.078   4.717  14.385  0.00  0.00    +0.000 A 
ATOM      6  N   UNL     1      35.709   3.447  14.628  0.00  0.00    +0.000 NA
ENDROOT
BRANCH   5   7
ATOM      7  C   UNL     1      35.446   5.559  13.360  0.00  0.00    +0.000 A 
ATOM      8  C   UNL     1      34.362   6.349  13.690  0.00  0.00    +0.000 A 
ATOM      9  C   UNL     1      33.793   7.132  12.737  0.00  0.00    +0.000 A 
ATOM     10  C   UNL     1      34.234   7.189  11.441  0.00  0.00    +0.000 A 
ATOM     11  O   UNL     1      33.597   8.021  10.523  0.00  0.00    +0.000 OA
ATOM     12  C   UNL     1      35.317   6.400  11.108  0.00  0.00    +0.000 A 
ATOM     13  C   UNL     1      35.914   5.595  12.058  0.00  0.00    +0.000 A 
ATOM     14  C   UNL     1      37.077   4.738  11.719  0.00  0.00    +0.000 C 
ENDBRANCH   5   7
BRANCH   3  15
ATOM     15  C   UNL     1      38.845   5.109  16.889  0.00  0.00    +0.000 A 
ATOM     16  C   UNL     1      38.779   5.205  18.268  0.00  0.00    +0.000 A 
ATOM     17  C   UNL     1      39.790   5.790  19.024  0.00  0.00    +0.000 A 
ATOM     18  C   UNL     1      40.889   6.285  18.354  0.00  0.00    +0.000 A 
ATOM     19  C   UNL     1      40.997   6.211  16.972  0.00  0.00    +0.000 A 
ATOM     20  C   UNL     1      39.961   5.616  16.254  0.00  0.00    +0.000 A 
ENDBRANCH   3  15
BRANCH   1  21
ATOM     21  N   UNL     1      35.889   1.344  15.790  0.00  0.00    +0.000 N 
ATOM     22  C   UNL     1      36.449   0.249  15.010  0.00  0.00    +0.000 C 
BRANCH  21  23
ATOM     23  C   UNL     1      34.889   1.013  16.782  0.00  0.00    +0.000 C 
BRANCH  23  24
ATOM     24  C   UNL     1      35.029  -0.434  17.201  0.00  0.00    +0.000 C 
BRANCH  24  26
ATOM     25  C   UNL     1      36.413   0.209  19.181  0.00  0.00    +0.000 C 
ATOM     26  C   UNL     1      35.233  -0.582  18.678  0.00  0.00    +0.000 C 
ENDBRANCH  24  26
ENDBRANCH  23  24
ENDBRANCH  21  23
ENDBRANCH   1  21
TORSDOF 6
ENDMDL
MODEL 5
REMARK VINA RESULT:      -7.2      4.685      8.636
REMARK  Name = 
REMARK  6 active torsions:
REMARK  status: ('A' for Active; 'I' for Inactive)
REMARK    1  A    between atoms: C_2  and  C_3
REMARK    2  A    between atoms: C_3  and  C_4
REMARK    3  A    between atoms: C_4  and  N_5
REMARK    4  A    between atoms: N_5  and  C_7
REMARK    5  A    between atoms: C_9  and  C_10
REMARK    6  A    between atoms: C_17  and  C_18
REMARK                            x       y       z     vdW  Elec       q    Type
REMARK                         _______ _______ _______ _____ _____    ______ ____
ROOT
ATOM      1  C   UNL     1      36.611  -0.758  17.049  0.00  0.00    +0.000 A 
ATOM      2  C   UNL     1      35.814  -1.865  16.784  0.00  0.00    +0.000 A 
ATOM      3  C   UNL     1      36.325  -2.825  15.936  0.00  0.00    +0.000 A 
ATOM      4  C   UNL     1      37.598  -2.649  15.387  0.00  0.00    +0.000 A 
ATOM      5  C   UNL     1      38.365  -1.541  15.667  0.00  0.00    +0.000 A 
ATOM      6  N   UNL     1      37.844  -0.620  16.497  0.00  0.00    +0.000 NA
ENDROOT
BRANCH   5   7
ATOM      7  C   UNL     1      39.692  -1.414  15.050  0.00  0.00    +0.000 A 
ATOM      8  C   UNL     1      40.553  -2.494  15.040  0.00  0.00    +0.000 A 
ATOM      9  C   UNL     1      41.774  -2.369  14.458  0.00  0.00    +0.000 A 
ATOM     10  C   UNL     1      42.216  -1.215  13.868  0.00  0.00    +0.000 A 
ATOM     11  O   UNL     1      43.482  -1.168  13.288  0.00  0.00    +0.000 OA
ATOM     12  C   UNL     1      41.358  -0.132  13.877  0.00  0.00    +0.000 A 
ATOM     13  C   UNL     1      40.112  -0.234  14.462  0.00  0.00    +0.000 A 
ATOM     14  C   UNL     1      39.177   0.918  14.485  0.00  0.00    +0.000 C 
ENDBRANCH   5   7
BRANCH   3  15
ATOM     15  C   UNL     1      35.566  -4.038  15.587  0.00  0.00    +0.000 A 
ATOM     16  C   UNL     1      34.533  -3.987  14.667  0.00  0.00    +0.000 A 
ATOM     17  C   UNL     1      33.793  -5.109  14.313  0.00  0.00    +0.000 A 
ATOM     18  C   UNL     1      34.116  -6.308  14.913  0.00  0.00    +0.000 A 
ATOM     19  C   UNL     1      35.142  -6.407  15.842  0.00  0.00    +0.000 A 
ATOM     20  C   UNL     1      35.859  -5.256  16.167  0.00  0.00    +0.000 A 
ENDBRANCH   3  15
BRANCH   1  21
ATOM     21  N   UNL     1      36.103   0.252  17.916  0.00  0.00    +0.000 N 
ATOM     22  C   UNL     1      35.659  -0.073  19.265  0.00  0.00    +0.000 C 
BRANCH  21  23
ATOM     23  C   UNL     1      36.006   1.633  17.497  0.00  0.00    +0.000 C 
BRANCH  23  24
ATOM     24  C   UNL     1      34.852   1.806  16.534  0.00  0.00    +0.000 C 
BRANCH  24  26
ATOM     25  C   UNL     1      35.073   3.475  14.686  0.00  0.00    +0.000 C 
ATOM     26  C   UNL     1      35.313   2.055  15.131  0.00  0.00    +0.000 C 
ENDBRANCH  24  26
ENDBRANCH  23  24
ENDBRANCH  21  23
ENDBRANCH   1  21
TORSDOF 6
ENDMDL
MODEL 6
REMARK VINA RESULT:      -7.1      2.609      6.639
REMARK  Name = 
REMARK  6 active torsions:
REMARK  status: ('A' for Active; 'I' for Inactive)
REMARK    1  A    between atoms: C_2  and  C_3
REMARK    2  A    between atoms: C_3  and  C_4
REMARK    3  A    between atoms: C_4  and  N_5
REMARK    4  A    between atoms: N_5  and  C_7
REMARK    5  A    between atoms: C_9  and  C_10
REMARK    6  A    between atoms: C_17  and  C_18
REMARK                            x       y       z     vdW  Elec       q    Type
REMARK                         _______ _______ _______ _____ _____    ______ ____
ROOT
ATOM      1  C   UNL     1      37.919   4.611  16.119  0.00  0.00    +0.000 A 
ATOM      2  C   UNL     1      37.565   3.300  16.412  0.00  0.00    +0.000 A 
ATOM      3  C   UNL     1      36.511   2.755  15.709  0.00  0.00    +0.000 A 
ATOM      4  C   UNL     1      35.852   3.529  14.751  0.00  0.00    +0.000 A 
ATOM      5  C   UNL     1      36.224   4.827  14.481  0.00  0.00    +0.000 A 
ATOM      6  N   UNL     1      37.255   5.334  15.179  0.00  0.00    +0.000 NA
ENDROOT
BRANCH   5   7
ATOM      7  C   UNL     1      35.484   5.588  13.466  0.00  0.00    +0.000 A 
ATOM      8  C   UNL     1      34.345   6.284  13.821  0.00  0.00    +0.000 A 
ATOM      9  C   UNL     1      33.674   6.993  12.876  0.00  0.00    +0.000 A 
ATOM     10  C   UNL     1      34.064   7.064  11.565  0.00  0.00    +0.000 A 
ATOM     11  O   UNL     1      33.323   7.816  10.656  0.00  0.00    +0.000 OA
ATOM     12  C   UNL     1      35.202   6.368  11.206  0.00  0.00    +0.000 A 
ATOM     13  C   UNL     1      35.902   5.640  12.147  0.00  0.00    +0.000 A 
ATOM     14  C   UNL     1      37.126   4.885  11.781  0.00  0.00    +0.000 C 
ENDBRANCH   5   7
BRANCH   3  15
ATOM     15  C   UNL     1      36.053   1.374  15.940  0.00  0.00    +0.000 A 
ATOM     16  C   UNL     1      36.589   0.320  15.221  0.00  0.00    +0.000 A 
ATOM     17  C   UNL     1      36.181  -0.996  15.410  0.00  0.00    +0.000 A 
ATOM     18  C   UNL     1      35.205  -1.237  16.354  0.00  0.00    +0.000 A 
ATOM     19  C   UNL     1      34.639  -0.212  17.098  0.00  0.00    +0.000 A 
ATOM     20  C   UNL     1      35.077   1.092  16.876  0.00  0.00    +0.000 A 
ENDBRANCH   3  15
BRANCH   1  21
ATOM     21  N   UNL     1      39.001   5.199  16.835  0.00  0.00    +0.000 N 
ATOM     22  C   UNL     1      40.164   5.726  16.136  0.00  0.00    +0.000 C 
BRANCH  21  23
ATOM     23  C   UNL     1      38.990   5.296  18.279  0.00  0.00    +0.000 C 
BRANCH  23  24
ATOM     24  C   UNL     1      38.848   6.741  18.704  0.00  0.00    +0.000 C 
BRANCH  24  26
ATOM     25  C   UNL     1      38.858   8.178  20.750  0.00  0.00    +0.000 C 
ATOM     26  C   UNL     1      39.484   7.009  20.034  0.00  0.00    +0.000 C 
ENDBRANCH  24  26
ENDBRANCH  23  24
ENDBRANCH  21  23
ENDBRANCH   1  21
TORSDOF 6
ENDMDL
MODEL 7
REMARK VINA RESULT:      -7.0      2.474      5.887
REMARK  Name = 
REMARK  6 active torsions:
REMARK  status: ('A' for Active; 'I' for Inactive)
REMARK    1  A    between atoms: C_2  and  C_3
REMARK    2  A    between atoms: C_3  and  C_4
REMARK    3  A    between atoms: C_4  and  N_5
REMARK    4  A    between atoms: N_5  and  C_7
REMARK    5  A    between atoms: C_9  and  C_10
REMARK    6  A    between atoms: C_17  and  C_18
REMARK                            x       y       z     vdW  Elec       q    Type
REMARK                         _______ _______ _______ _____ _____    ______ ____
ROOT
ATOM      1  C   UNL     1      36.032   4.878  14.449  0.00  0.00    +0.000 A 
ATOM      2  C   UNL     1      35.631   3.559  14.616  0.00  0.00    +0.000 A 
ATOM      3  C   UNL     1      36.302   2.807  15.558  0.00  0.00    +0.000 A 
ATOM      4  C   UNL     1      37.340   3.390  16.289  0.00  0.00    +0.000 A 
ATOM      5  C   UNL     1      37.716   4.702  16.101  0.00  0.00    +0.000 A 
ATOM      6  N   UNL     1      37.046   5.413  15.178  0.00  0.00    +0.000 NA
ENDROOT
BRANCH   5   7
ATOM      7  C   UNL     1      38.821   5.251  16.899  0.00  0.00    +0.000 A 
ATOM      8  C   UNL     1      38.686   5.375  18.268  0.00  0.00    +0.000 A 
ATOM      9  C   UNL     1      39.718   5.875  18.997  0.00  0.00    +0.000 A 
ATOM     10  C   UNL     1      40.909   6.273  18.449  0.00  0.00    +0.000 A 
ATOM     11  O   UNL     1      41.920   6.773  19.267  0.00  0.00    +0.000 OA
ATOM     12  C   UNL     1      41.045   6.152  17.080  0.00  0.00    +0.000 A 
ATOM     13  C   UNL     1      40.012   5.647  16.317  0.00  0.00    +0.000 A 
ATOM     14  C   UNL     1      40.139   5.511  14.844  0.00  0.00    +0.000 C 
ENDBRANCH   5   7
BRANCH   3  15
ATOM     15  C   UNL     1      35.959   1.398  15.817  0.00  0.00    +0.000 A 
ATOM     16  C   UNL     1      35.063   1.060  16.816  0.00  0.00    +0.000 A 
ATOM     17  C   UNL     1      34.715  -0.259  17.091  0.00  0.00    +0.000 A 
ATOM     18  C   UNL     1      35.297  -1.249  16.329  0.00  0.00    +0.000 A 
ATOM     19  C   UNL     1      36.201  -0.957  15.317  0.00  0.00    +0.000 A 
ATOM     20  C   UNL     1      36.520   0.378  15.076  0.00  0.00    +0.000 A 
ENDBRANCH   3  15
BRANCH   1  21
ATOM     21  N   UNL     1      35.359   5.674  13.477  0.00  0.00    +0.000 N 
ATOM     22  C   UNL     1      35.850   5.760  12.109  0.00  0.00    +0.000 C 
BRANCH  21  23
ATOM     23  C   UNL     1      34.167   6.426  13.807  0.00  0.00    +0.000 C 
BRANCH  23  24
ATOM     24  C   UNL     1      34.527   7.861  14.122  0.00  0.00    +0.000 C 
BRANCH  24  26
ATOM     25  C   UNL     1      34.004   9.874  15.509  0.00  0.00    +0.000 C 
ATOM     26  C   UNL     1      33.605   8.471  15.133  0.00  0.00    +0.000 C 
ENDBRANCH  24  26
ENDBRANCH  23  24
ENDBRANCH  21  23
ENDBRANCH   1  21
TORSDOF 6
ENDMDL
MODEL 8
REMARK VINA RESULT:      -6.9      0.942      1.470
REMARK  Name = 
REMARK  6 active torsions:
REMARK  status: ('A' for Active; 'I' for Inactive)
REMARK    1  A    between atoms: C_2  and  C_3
REMARK    2  A    between atoms: C_3  and  C_4
REMARK    3  A    between atoms: C_4  and  N_5
REMARK    4  A    between atoms: N_5  and  C_7
REMARK    5  A    between atoms: C_9  and  C_10
REMARK    6  A    between atoms: C_17  and  C_18
REMARK                            x       y       z     vdW  Elec       q    Type
REMARK                         _______ _______ _______ _____ _____    ______ ____
ROOT
ATOM      1  C   UNL     1      37.115   5.937  14.929  0.00  0.00    +0.000 A 
ATOM      2  C   UNL     1      38.114   6.387  15.782  0.00  0.00    +0.000 A 
ATOM      3  C   UNL     1      38.611   5.490  16.705  0.00  0.00    +0.000 A 
ATOM      4  C   UNL     1      38.097   4.191  16.745  0.00  0.00    +0.000 A 
ATOM      5  C   UNL     1      37.105   3.774  15.887  0.00  0.00    +0.000 A 
ATOM      6  N   UNL     1      36.639   4.666  14.997  0.00  0.00    +0.000 NA
ENDROOT
BRANCH   5   7
ATOM      7  C   UNL     1      36.604   2.396  15.987  0.00  0.00    +0.000 A 
ATOM      8  C   UNL     1      35.494   2.122  16.762  0.00  0.00    +0.000 A 
ATOM      9  C   UNL     1      35.033   0.846  16.839  0.00  0.00    +0.000 A 
ATOM     10  C   UNL     1      35.612  -0.209  16.185  0.00  0.00    +0.000 A 
ATOM     11  O   UNL     1      35.077  -1.489  16.313  0.00  0.00    +0.000 OA
ATOM     12  C   UNL     1      36.723   0.062  15.410  0.00  0.00    +0.000 A 
ATOM     13  C   UNL     1      37.211   1.350  15.315  0.00  0.00    +0.000 A 
ATOM     14  C   UNL     1      38.405   1.661  14.490  0.00  0.00    +0.000 C 
ENDBRANCH   5   7
BRANCH   3  15
ATOM     15  C   UNL     1      39.672   5.861  17.657  0.00  0.00    +0.000 A 
ATOM     16  C   UNL     1      40.949   6.160  17.214  0.00  0.00    +0.000 A 
ATOM     17  C   UNL     1      41.976   6.513  18.082  0.00  0.00    +0.000 A 
ATOM     18  C   UNL     1      41.690   6.561  19.430  0.00  0.00    +0.000 A 
ATOM     19  C   UNL     1      40.425   6.269  19.920  0.00  0.00    +0.000 A 
ATOM     20  C   UNL     1      39.425   5.920  19.014  0.00  0.00    +0.000 A 
ENDBRANCH   3  15
BRANCH   1  21
ATOM     21  N   UNL     1      36.580   6.846  13.971  0.00  0.00    +0.000 N 
ATOM     22  C   UNL     1      36.007   8.119  14.385  0.00  0.00    +0.000 C 
BRANCH  21  23
ATOM     23  C   UNL     1      36.582   6.544  12.556  0.00  0.00    +0.000 C 
BRANCH  23  24
ATOM     24  C   UNL     1      35.168   6.307  12.072  0.00  0.00    +0.000 C 
BRANCH  24  26
ATOM     25  C   UNL     1      35.315   6.566   9.589  0.00  0.00    +0.000 C 
ATOM     26  C   UNL     1      34.822   7.155  10.886  0.00  0.00    +0.000 C 
ENDBRANCH  24  26
ENDBRANCH  23  24
ENDBRANCH  21  23
ENDBRANCH   1  21
TORSDOF 6
ENDMDL
MODEL 9
REMARK VINA RESULT:      -6.8      2.652      5.925
REMARK  Name = 
REMARK  6 active torsions:
REMARK  status: ('A' for Active; 'I' for Inactive)
REMARK    1  A    between atoms: C_2  and  C_3
REMARK    2  A    between atoms: C_3  and  C_4
REMARK    3  A    between atoms: C_4  and  N_5
REMARK    4  A    between atoms: N_5  and  C_7
REMARK    5  A    between atoms: C_9  and  C_10
REMARK    6  A    between atoms: C_17  and  C_18
REMARK                            x       y       z     vdW  Elec       q    Type
REMARK                         _______ _______ _______ _____ _____    ______ ____
ROOT
ATOM      1  C   UNL     1      37.664   6.404  14.879  0.00  0.00    +0.000 A 
ATOM      2  C   UNL     1      37.033   5.167  14.831  0.00  0.00    +0.000 A 
ATOM      3  C   UNL     1      37.370   4.244  15.799  0.00  0.00    +0.000 A 
ATOM      4  C   UNL     1      38.318   4.582  16.769  0.00  0.00    +0.000 A 
ATOM      5  C   UNL     1      38.929   5.816  16.791  0.00  0.00    +0.000 A 
ATOM      6  N   UNL     1      38.581   6.698  15.838  0.00  0.00    +0.000 NA
ENDROOT
BRANCH   5   7
ATOM      7  C   UNL     1      39.922   6.105  17.835  0.00  0.00    +0.000 A 
ATOM      8  C   UNL     1      39.534   6.156  19.160  0.00  0.00    +0.000 A 
ATOM      9  C   UNL     1      40.462   6.414  20.117  0.00  0.00    +0.000 A 
ATOM     10  C   UNL     1      41.788   6.630  19.847  0.00  0.00    +0.000 A 
ATOM     11  O   UNL     1      42.679   6.885  20.887  0.00  0.00    +0.000 OA
ATOM     12  C   UNL     1      42.178   6.581  18.523  0.00  0.00    +0.000 A 
ATOM     13  C   UNL     1      41.255   6.321  17.531  0.00  0.00    +0.000 A 
ATOM     14  C   UNL     1      41.654   6.266  16.103  0.00  0.00    +0.000 C 
ENDBRANCH   5   7
BRANCH   3  15
ATOM     15  C   UNL     1      36.762   2.904  15.842  0.00  0.00    +0.000 A 
ATOM     16  C   UNL     1      37.358   1.835  15.196  0.00  0.00    +0.000 A 
ATOM     17  C   UNL     1      36.813   0.555  15.212  0.00  0.00    +0.000 A 
ATOM     18  C   UNL     1      35.635   0.367  15.903  0.00  0.00    +0.000 A 
ATOM     19  C   UNL     1      35.002   1.409  16.565  0.00  0.00    +0.000 A 
ATOM     20  C   UNL     1      35.583   2.675  16.523  0.00  0.00    +0.000 A 
ENDBRANCH   3  15
BRANCH   1  21
ATOM     21  N   UNL     1      37.337   7.372  13.887  0.00  0.00    +0.000 N 
ATOM     22  C   UNL     1      38.241   7.641  12.777  0.00  0.00    +0.000 C 
BRANCH  21  23
ATOM     23  C   UNL     1      36.103   8.125  13.940  0.00  0.00    +0.000 C 
BRANCH  23  24
ATOM     24  C   UNL     1      35.328   7.948  12.653  0.00  0.00    +0.000 C 
BRANCH  24  26
ATOM     25  C   UNL     1      33.619   6.910  14.154  0.00  0.00    +0.000 C 
ATOM     26  C   UNL     1      34.239   6.928  12.780  0.00  0.00    +0.000 C 
ENDBRANCH  24  26
ENDBRANCH  23  24
ENDBRANCH  21  23
ENDBRANCH   1  21
TORSDOF 6
ENDMDL
MODEL 10
REMARK VINA RESULT:      -6.7      2.549      5.616
REMARK  Name = 
REMARK  6 active torsions:
REMARK  status: ('A' for Active; 'I' for Inactive)
REMARK    1  A    between atoms: C_2  and  C_3
REMARK    2  A    between atoms: C_3  and  C_4
REMARK    3  A    between atoms: C_4  and  N_5
REMARK    4  A    between atoms: N_5  and  C_7
REMARK    5  A    between atoms: C_9  and  C_10
REMARK    6  A    between atoms: C_17  and  C_18
REMARK                            x       y       z     vdW  Elec       q    Type
REMARK                         _______ _______ _______ _____ _____    ______ ____
ROOT
ATOM      1  C   UNL     1      36.683   2.587  15.690  0.00  0.00    +0.000 A 
ATOM      2  C   UNL     1      37.686   3.153  16.467  0.00  0.00    +0.000 A 
ATOM      3  C   UNL     1      37.963   4.490  16.269  0.00  0.00    +0.000 A 
ATOM      4  C   UNL     1      37.239   5.206  15.312  0.00  0.00    +0.000 A 
ATOM      5  C   UNL     1      36.251   4.618  14.555  0.00  0.00    +0.000 A 
ATOM      6  N   UNL     1      36.000   3.314  14.768  0.00  0.00    +0.000 NA
ENDROOT
BRANCH   5   7
ATOM      7  C   UNL     1      35.533   5.427  13.560  0.00  0.00    +0.000 A 
ATOM      8  C   UNL     1      34.402   6.129  13.930  0.00  0.00    +0.000 A 
ATOM      9  C   UNL     1      33.753   6.882  13.005  0.00  0.00    +0.000 A 
ATOM     10  C   UNL     1      34.156   6.991  11.700  0.00  0.00    +0.000 A 
ATOM     11  O   UNL     1      33.435   7.788  10.812  0.00  0.00    +0.000 OA
ATOM     12  C   UNL     1      35.285   6.290  11.327  0.00  0.00    +0.000 A 
ATOM     13  C   UNL     1      35.964   5.517  12.248  0.00  0.00    +0.000 A 
ATOM     14  C   UNL     1      37.178   4.754  11.867  0.00  0.00    +0.000 C 
ENDBRANCH   5   7
BRANCH   3  15
ATOM     15  C   UNL     1      39.005   5.190  17.038  0.00  0.00    +0.000 A 
ATOM     16  C   UNL     1      38.922   5.291  18.416  0.00  0.00    +0.000 A 
ATOM     17  C   UNL     1      39.886   5.945  19.176  0.00  0.00    +0.000 A 
ATOM     18  C   UNL     1      40.955   6.507  18.511  0.00  0.00    +0.000 A 
ATOM     19  C   UNL     1      41.080   6.432  17.132  0.00  0.00    +0.000 A 
ATOM     20  C   UNL     1      40.091   5.766  16.409  0.00  0.00    +0.000 A 
ENDBRANCH   3  15
BRANCH   1  21
ATOM     21  N   UNL     1      36.382   1.206  15.870  0.00  0.00    +0.000 N 
ATOM     22  C   UNL     1      35.191   0.788  16.596  0.00  0.00    +0.000 C 
BRANCH  21  23
ATOM     23  C   UNL     1      37.243   0.168  15.346  0.00  0.00    +0.000 C 
BRANCH  23  24
ATOM     24  C   UNL     1      36.713  -0.327  14.018  0.00  0.00    +0.000 C 
BRANCH  24  26
ATOM     25  C   UNL     1      38.249   1.170  12.733  0.00  0.00    +0.000 C 
ATOM     26  C   UNL     1      37.735  -0.233  12.926  0.00  0.00    +0.000 C 
ENDBRANCH  24  26
ENDBRANCH  23  24
ENDBRANCH  21  23
ENDBRANCH   1  21
TORSDOF 6
ENDMDL
