MODEL 1
REMARK VINA RESULT:      -8.2      0.000      0.000
REMARK  Name = 
REMARK  6 active torsions:
REMARK  status: ('A' for Active; 'I' for Inactive)
REMARK    1  A    between atoms: O_2  and  C_3
REMARK    2  A    between atoms: C_6  and  C_7
REMARK    3  A    between atoms: C_9  and  C_10
REMARK    4  A    between atoms: N_12  and  C_13
REMARK    5  A    between atoms: C_13  and  C_14
REMARK    6  A    between atoms: C_22  and  C_23
REMARK                            x       y       z     vdW  Elec       q    Type
REMARK                         _______ _______ _______ _____ _____    ______ ____
ROOT
ATOM      1  C   UNL     1      38.554   5.056  17.251  0.00  0.00    +0.000 A 
ATOM      2  C   UNL     1      37.540   4.136  17.406  0.00  0.00    +0.000 A 
ATOM      3  C   UNL     1      37.299   3.131  16.495  0.00  0.00    +0.000 A 
ATOM      4  C   UNL     1      38.107   3.039  15.375  0.00  0.00    +0.000 A 
ATOM      5  C   UNL     1      37.910   2.045  14.422  0.00  0.00    +0.000 A 
ATOM      6  C   UNL     1      38.712   1.948  13.307  0.00  0.00    +0.000 A 
ATOM      7  C   UNL     1      39.720   2.878  13.169  0.00  0.00    +0.000 A 
ATOM      8  C   UNL     1      39.913   3.862  14.114  0.00  0.00    +0.000 A 
ATOM      9  C   UNL     1      39.116   3.968  15.237  0.00  0.00    +0.000 A 
ATOM     10  N   UNL     1      39.322   4.942  16.156  0.00  0.00    +0.000 NA
ENDROOT
BRANCH   1  14
ATOM     11  C   UNL     1      39.190   8.149  20.128  0.00  0.00    +0.000 A 
ATOM     12  C   UNL     1      39.947   6.986  20.168  0.00  0.00    +0.000 A 
ATOM     13  C   UNL     1      39.736   5.988  19.233  0.00  0.00    +0.000 A 
ATOM     14  C   UNL     1      38.785   6.116  18.250  0.00  0.00    +0.000 A 
ATOM     15  C   UNL     1      38.031   7.275  18.211  0.00  0.00    +0.000 A 
ATOM     16  C   UNL     1      38.234   8.279  19.141  0.00  0.00    +0.000 A 
BRANCH  11  18
ATOM     17  C   UNL     1      38.556  10.303  21.018  0.00  0.00    +0.000 C 
ATOM     18  O   UNL     1      39.392   9.170  21.069  0.00  0.00    +0.000 OA
ENDBRANCH  11  18
ENDBRANCH   1  14
BRANCH   3  19
ATOM     19  C   UNL     1      36.221   2.159  16.668  0.00  0.00    +0.000 C 
ATOM     20  O   UNL     1      35.069   2.497  16.274  0.00  0.00    +0.000 OA
ATOM     21  N   UNL     1      36.405   0.893  17.240  0.00  0.00    +0.000 NA
BRANCH  21  22
ATOM     22  C   UNL     1      35.256  -0.009  17.369  0.00  0.00    +0.000 C 
BRANCH  22  23
ATOM     23  C   UNL     1      35.427  -1.154  16.465  0.00  0.00    +0.000 A 
ATOM     24  C   UNL     1      36.321  -1.140  15.439  0.00  0.00    +0.000 A 
ATOM     25  C   UNL     1      36.468  -2.221  14.604  0.00  0.00    +0.000 A 
ATOM     26  C   UNL     1      35.676  -3.330  14.839  0.00  0.00    +0.000 A 
ATOM     27  C   UNL     1      34.761  -3.378  15.869  0.00  0.00    +0.000 A 
ATOM     28  C   UNL     1      34.653  -2.274  16.673  0.00  0.00    +0.000 A 
ENDBRANCH  22  23
ENDBRANCH  21  22
ENDBRANCH   3  19
BRANCH   6  29
ATOM     29  C   UNL     1      38.499   0.874  12.283  0.00  0.00    +0.000 C 
ATOM     30  C   UNL     1      37.032   0.612  12.039  0.00  0.00    +0.000 C 
ATOM     31  C   UNL     1      39.212  -0.375  12.693  0.00  0.00    +0.000 C 
ENDBRANCH   6  29
TORSDOF 6
ENDMDL
MODEL 2
REMARK VINA RESULT:      -7.8      2.803      8.444
REMARK  Name = 
REMARK  6 active torsions:
REMARK  status: ('A' for Active; 'I' for Inactive)
REMARK    1  A    between atoms: O_2  and  C_3
REMARK    2  A    between atoms: C_6  and  C_7
REMARK    3  A    between atoms: C_9  and  C_10
REMARK    4  A    between atoms: N_12  and  C_13
REMARK    5  A    between atoms: C_13  and  C_14
REMARK    6  A    between atoms: C_22  and  C_23
REMARK                            x       y       z     vdW  Elec       q    Type
REMARK                         _______ _______ _______ _____ _____    ______ ____
ROOT
ATOM      1  C   UNL     1      36.925  -1.350  15.533  0.00  0.00    +0.000 A 
ATOM      2  C   UNL     1      37.137  -0.010  15.289  0.00  0.00    +0.000 A 
ATOM      3  C   UNL     1      38.360   0.493  14.904  0.00  0.00    +0.000 A 
ATOM      4  C   UNL     1      39.424  -0.380  14.757  0.00  0.00    +0.000 A 
ATOM      5  C   UNL     1      40.681   0.072  14.371  0.00  0.00    +0.000 A 
ATOM      6  C   UNL     1      41.742  -0.794  14.221  0.00  0.00    +0.000 A 
ATOM      7  C   UNL     1      41.510  -2.129  14.471  0.00  0.00    +0.000 A 
ATOM      8  C   UNL     1      40.264  -2.575  14.853  0.00  0.00    +0.000 A 
ATOM      9  C   UNL     1      39.192  -1.717  15.005  0.00  0.00    +0.000 A 
ATOM     10  N   UNL     1      37.974  -2.174  15.382  0.00  0.00    +0.000 NA
ENDROOT
BRANCH   1  14
ATOM     11  C   UNL     1      33.081  -2.774  16.735  0.00  0.00    +0.000 A 
ATOM     12  C   UNL     1      33.802  -3.441  15.755  0.00  0.00    +0.000 A 
ATOM     13  C   UNL     1      35.047  -2.975  15.370  0.00  0.00    +0.000 A 
ATOM     14  C   UNL     1      35.600  -1.853  15.939  0.00  0.00    +0.000 A 
ATOM     15  C   UNL     1      34.880  -1.188  16.916  0.00  0.00    +0.000 A 
ATOM     16  C   UNL     1      33.635  -1.647  17.307  0.00  0.00    +0.000 A 
BRANCH  11  18
ATOM     17  C   UNL     1      30.919  -2.313  17.710  0.00  0.00    +0.000 C 
ATOM     18  O   UNL     1      31.818  -3.234  17.136  0.00  0.00    +0.000 OA
ENDBRANCH  11  18
ENDBRANCH   1  14
BRANCH   3  19
ATOM     19  C   UNL     1      38.576   1.916  14.647  0.00  0.00    +0.000 C 
ATOM     20  O   UNL     1      38.586   2.289  13.439  0.00  0.00    +0.000 OA
ATOM     21  N   UNL     1      38.767   2.865  15.659  0.00  0.00    +0.000 NA
BRANCH  21  22
ATOM     22  C   UNL     1      38.976   4.270  15.293  0.00  0.00    +0.000 C 
BRANCH  22  23
ATOM     23  C   UNL     1      39.391   5.030  16.480  0.00  0.00    +0.000 A 
ATOM     24  C   UNL     1      38.790   4.869  17.690  0.00  0.00    +0.000 A 
ATOM     25  C   UNL     1      39.192   5.588  18.790  0.00  0.00    +0.000 A 
ATOM     26  C   UNL     1      40.232   6.484  18.628  0.00  0.00    +0.000 A 
ATOM     27  C   UNL     1      40.864   6.672  17.418  0.00  0.00    +0.000 A 
ATOM     28  C   UNL     1      40.425   5.931  16.352  0.00  0.00    +0.000 A 
ENDBRANCH  22  23
ENDBRANCH  21  22
ENDBRANCH   3  19
BRANCH   6  29
ATOM     29  C   UNL     1      43.096  -0.304  13.802  0.00  0.00    +0.000 C 
ATOM     30  C   UNL     1      43.647  -1.097  12.641  0.00  0.00    +0.000 C 
ATOM     31  C   UNL     1      44.033  -0.323  14.967  0.00  0.00    +0.000 C 
ENDBRANCH   6  29
TORSDOF 6
ENDMDL
MODEL 3
REMARK VINA RESULT:      -7.7      4.011      9.040
REMARK  Name = 
REMARK  6 active torsions:
REMARK  status: ('A' for Active; 'I' for Inactive)
REMARK    1  A    between atoms: O_2  and  C_3
REMARK    2  A    between atoms: C_6  and  C_7
REMARK    3  A    between atoms: C_9  and  C_10
REMARK    4  A    between atoms: N_12  and  C_13
REMARK    5  A    between atoms: C_13  and  C_14
REMARK    6  A    between atoms: C_22  and  C_23
REMARK                            x       y       z     vdW  Elec       q    Type
REMARK                         _______ _______ _______ _____ _____    ______ ____
ROOT
ATOM      1  C   UNL     1      40.919  -1.486  14.332  0.00  0.00    +0.000 A 
ATOM      2  C   UNL     1      40.596  -0.151  14.209  0.00  0.00    +0.000 A 
ATOM      3  C   UNL     1      39.377   0.361  14.598  0.00  0.00    +0.000 A 
ATOM      4  C   UNL     1      38.435  -0.499  15.136  0.00  0.00    +0.000 A 
ATOM      5  C   UNL     1      37.188  -0.038  15.546  0.00  0.00    +0.000 A 
ATOM      6  C   UNL     1      36.248  -0.889  16.083  0.00  0.00    +0.000 A 
ATOM      7  C   UNL     1      36.590  -2.219  16.198  0.00  0.00    +0.000 A 
ATOM      8  C   UNL     1      37.825  -2.674  15.791  0.00  0.00    +0.000 A 
ATOM      9  C   UNL     1      38.776  -1.830  15.252  0.00  0.00    +0.000 A 
ATOM     10  N   UNL     1      39.986  -2.295  14.858  0.00  0.00    +0.000 NA
ENDROOT
BRANCH   1  14
ATOM     11  C   UNL     1      44.714  -2.988  13.073  0.00  0.00    +0.000 A 
ATOM     12  C   UNL     1      44.632  -2.069  14.111  0.00  0.00    +0.000 A 
ATOM     13  C   UNL     1      43.400  -1.587  14.514  0.00  0.00    +0.000 A 
ATOM     14  C   UNL     1      42.236  -1.996  13.909  0.00  0.00    +0.000 A 
ATOM     15  C   UNL     1      42.319  -2.912  12.875  0.00  0.00    +0.000 A 
ATOM     16  C   UNL     1      43.547  -3.400  12.464  0.00  0.00    +0.000 A 
BRANCH  11  18
ATOM     17  C   UNL     1      46.965  -3.674  13.620  0.00  0.00    +0.000 C 
ATOM     18  O   UNL     1      45.957  -3.486  12.653  0.00  0.00    +0.000 OA
ENDBRANCH  11  18
ENDBRANCH   1  14
BRANCH   3  19
ATOM     19  C   UNL     1      39.044   1.777  14.464  0.00  0.00    +0.000 C 
ATOM     20  O   UNL     1      38.723   2.188  13.312  0.00  0.00    +0.000 OA
ATOM     21  N   UNL     1      39.064   2.682  15.534  0.00  0.00    +0.000 NA
BRANCH  21  22
ATOM     22  C   UNL     1      38.712   4.085  15.292  0.00  0.00    +0.000 C 
BRANCH  22  23
ATOM     23  C   UNL     1      39.225   4.915  16.389  0.00  0.00    +0.000 A 
ATOM     24  C   UNL     1      40.251   5.792  16.216  0.00  0.00    +0.000 A 
ATOM     25  C   UNL     1      40.718   6.562  17.255  0.00  0.00    +0.000 A 
ATOM     26  C   UNL     1      40.109   6.417  18.487  0.00  0.00    +0.000 A 
ATOM     27  C   UNL     1      39.068   5.539  18.699  0.00  0.00    +0.000 A 
ATOM     28  C   UNL     1      38.640   4.795  17.631  0.00  0.00    +0.000 A 
ENDBRANCH  22  23
ENDBRANCH  21  22
ENDBRANCH   3  19
BRANCH   6  29
ATOM     29  C   UNL     1      34.906  -0.389  16.527  0.00  0.00    +0.000 C 
ATOM     30  C   UNL     1      34.974   1.034  17.030  0.00  0.00    +0.000 C 
ATOM     31  C   UNL     1      34.333  -1.303  17.561  0.00  0.00    +0.000 C 
ENDBRANCH   6  29
TORSDOF 6
ENDMDL
MODEL 4
REMARK VINA RESULT:      -7.6      3.139      4.144
REMARK  Name = 
REMARK  6 active torsions:
REMARK  status: ('A' for Active; 'I' for Inactive)
REMARK    1  A    between atoms: O_2  and  C_3
REMARK    2  A    between atoms: C_6  and  C_7
REMARK    3  A    between atoms: C_9  and  C_10
REMARK    4  A    between atoms: N_12  and  C_13
REMARK    5  A    between atoms: C_13  and  C_14
REMARK    6  A    between atoms: C_22  and  C_23
REMARK                            x       y       z     vdW  Elec       q    Type
REMARK                         _______ _______ _______ _____ _____    ______ ____
ROOT
ATOM      1  C   UNL     1      39.344   6.022  17.120  0.00  0.00    +0.000 A 
ATOM      2  C   UNL     1      38.848   4.768  16.833  0.00  0.00    +0.000 A 
ATOM      3  C   UNL     1      37.857   4.553  15.900  0.00  0.00    +0.000 A 
ATOM      4  C   UNL     1      37.334   5.640  15.221  0.00  0.00    +0.000 A 
ATOM      5  C   UNL     1      36.333   5.484  14.269  0.00  0.00    +0.000 A 
ATOM      6  C   UNL     1      35.811   6.562  13.589  0.00  0.00    +0.000 A 
ATOM      7  C   UNL     1      36.320   7.806  13.890  0.00  0.00    +0.000 A 
ATOM      8  C   UNL     1      37.312   7.960  14.834  0.00  0.00    +0.000 A 
ATOM      9  C   UNL     1      37.844   6.886  15.521  0.00  0.00    +0.000 A 
ATOM     10  N   UNL     1      38.820   7.057  16.445  0.00  0.00    +0.000 NA
ENDROOT
BRANCH   1  14
ATOM     11  C   UNL     1      42.457   6.582  19.991  0.00  0.00    +0.000 A 
ATOM     12  C   UNL     1      41.153   6.349  20.405  0.00  0.00    +0.000 A 
ATOM     13  C   UNL     1      40.149   6.168  19.471  0.00  0.00    +0.000 A 
ATOM     14  C   UNL     1      40.409   6.212  18.122  0.00  0.00    +0.000 A 
ATOM     15  C   UNL     1      41.709   6.445  17.709  0.00  0.00    +0.000 A 
ATOM     16  C   UNL     1      42.719   6.627  18.637  0.00  0.00    +0.000 A 
BRANCH  11  18
ATOM     17  C   UNL     1      43.829   5.689  21.767  0.00  0.00    +0.000 C 
ATOM     18  O   UNL     1      43.486   6.767  20.927  0.00  0.00    +0.000 OA
ENDBRANCH  11  18
ENDBRANCH   1  14
BRANCH   3  19
ATOM     19  C   UNL     1      37.337   3.220  15.603  0.00  0.00    +0.000 C 
ATOM     20  O   UNL     1      37.958   2.538  14.738  0.00  0.00    +0.000 OA
ATOM     21  N   UNL     1      36.204   2.675  16.221  0.00  0.00    +0.000 NA
BRANCH  21  22
ATOM     22  C   UNL     1      35.764   1.327  15.850  0.00  0.00    +0.000 C 
BRANCH  22  23
ATOM     23  C   UNL     1      36.150   0.378  16.903  0.00  0.00    +0.000 A 
ATOM     24  C   UNL     1      36.989  -0.667  16.665  0.00  0.00    +0.000 A 
ATOM     25  C   UNL     1      37.338  -1.544  17.663  0.00  0.00    +0.000 A 
ATOM     26  C   UNL     1      36.810  -1.332  18.923  0.00  0.00    +0.000 A 
ATOM     27  C   UNL     1      35.958  -0.284  19.199  0.00  0.00    +0.000 A 
ATOM     28  C   UNL     1      35.640   0.562  18.169  0.00  0.00    +0.000 A 
ENDBRANCH  22  23
ENDBRANCH  21  22
ENDBRANCH   3  19
BRANCH   6  29
ATOM     29  C   UNL     1      34.734   6.389  12.561  0.00  0.00    +0.000 C 
ATOM     30  C   UNL     1      35.117   7.002  11.235  0.00  0.00    +0.000 C 
ATOM     31  C   UNL     1      33.444   6.952  13.067  0.00  0.00    +0.000 C 
ENDBRANCH   6  29
TORSDOF 6
ENDMDL
MODEL 5
REMARK VINA RESULT:      -7.6      3.945      4.590
REMARK  Name = 
REMARK  6 active torsions:
REMARK  status: ('A' for Active; 'I' for Inactive)
REMARK    1  A    between atoms: O_2  and  C_3
REMARK    2  A    between atoms: C_6  and  C_7
REMARK    3  A    between atoms: C_9  and  C_10
REMARK    4  A    between atoms: N_12  and  C_13
REMARK    5  A    between atoms: C_13  and  C_14
REMARK    6  A    between atoms: C_22  and  C_23
REMARK                            x       y       z     vdW  Elec       q    Type
REMARK                         _______ _______ _______ _____ _____    ______ ____
ROOT
ATOM      1  C   UNL     1      35.794   4.083  14.236  0.00  0.00    +0.000 A 
ATOM      2  C   UNL     1      35.551   3.346  15.375  0.00  0.00    +0.000 A 
ATOM      3  C   UNL     1      35.903   2.019  15.494  0.00  0.00    +0.000 A 
ATOM      4  C   UNL     1      36.529   1.397  14.428  0.00  0.00    +0.000 A 
ATOM      5  C   UNL     1      36.907   0.061  14.492  0.00  0.00    +0.000 A 
ATOM      6  C   UNL     1      37.531  -0.563  13.434  0.00  0.00    +0.000 A 
ATOM      7  C   UNL     1      37.765   0.191  12.305  0.00  0.00    +0.000 A 
ATOM      8  C   UNL     1      37.389   1.515  12.242  0.00  0.00    +0.000 A 
ATOM      9  C   UNL     1      36.765   2.151  13.297  0.00  0.00    +0.000 A 
ATOM     10  N   UNL     1      36.402   3.454  13.218  0.00  0.00    +0.000 NA
ENDROOT
BRANCH   1  14
ATOM     11  C   UNL     1      34.711   8.206  13.965  0.00  0.00    +0.000 A 
ATOM     12  C   UNL     1      33.739   7.237  14.169  0.00  0.00    +0.000 A 
ATOM     13  C   UNL     1      34.096   5.903  14.256  0.00  0.00    +0.000 A 
ATOM     14  C   UNL     1      35.406   5.503  14.145  0.00  0.00    +0.000 A 
ATOM     15  C   UNL     1      36.375   6.470  13.942  0.00  0.00    +0.000 A 
ATOM     16  C   UNL     1      36.027   7.806  13.854  0.00  0.00    +0.000 A 
BRANCH  11  18
ATOM     17  C   UNL     1      34.615  10.393  14.986  0.00  0.00    +0.000 C 
ATOM     18  O   UNL     1      34.364   9.563  13.875  0.00  0.00    +0.000 OA
ENDBRANCH  11  18
ENDBRANCH   1  14
BRANCH   3  19
ATOM     19  C   UNL     1      35.641   1.246  16.706  0.00  0.00    +0.000 C 
ATOM     20  O   UNL     1      34.449   0.878  16.910  0.00  0.00    +0.000 OA
ATOM     21  N   UNL     1      36.633   0.900  17.634  0.00  0.00    +0.000 NA
BRANCH  21  22
ATOM     22  C   UNL     1      36.265   0.121  18.820  0.00  0.00    +0.000 C 
BRANCH  22  23
ATOM     23  C   UNL     1      37.064  -1.111  18.865  0.00  0.00    +0.000 A 
ATOM     24  C   UNL     1      37.699  -1.603  17.767  0.00  0.00    +0.000 A 
ATOM     25  C   UNL     1      38.442  -2.757  17.828  0.00  0.00    +0.000 A 
ATOM     26  C   UNL     1      38.526  -3.406  19.046  0.00  0.00    +0.000 A 
ATOM     27  C   UNL     1      37.895  -2.936  20.178  0.00  0.00    +0.000 A 
ATOM     28  C   UNL     1      37.166  -1.782  20.064  0.00  0.00    +0.000 A 
ENDBRANCH  22  23
ENDBRANCH  21  22
ENDBRANCH   3  19
BRANCH   6  29
ATOM     29  C   UNL     1      37.940  -2.003  13.508  0.00  0.00    +0.000 C 
ATOM     30  C   UNL     1      36.905  -2.847  14.212  0.00  0.00    +0.000 C 
ATOM     31  C   UNL     1      39.278  -2.124  14.166  0.00  0.00    +0.000 C 
ENDBRANCH   6  29
TORSDOF 6
ENDMDL
MODEL 6
REMARK VINA RESULT:      -7.4      3.126      4.239
REMARK  Name = 
REMARK  6 active torsions:
REMARK  status: ('A' for Active; 'I' for Inactive)
REMARK    1  A    between atoms: O_2  and  C_3
REMARK    2  A    between atoms: C_6  and  C_7
REMARK    3  A    between atoms: C_9  and  C_10
REMARK    4  A    between atoms: N_12  and  C_13
REMARK    5  A    between atoms: C_13  and  C_14
REMARK    6  A    between atoms: C_22  and  C_23
REMARK                            x       y       z     vdW  Elec       q    Type
REMARK                         _______ _______ _______ _____ _____    ______ ____
ROOT
ATOM      1  C   UNL     1      39.579   6.034  17.382  0.00  0.00    +0.000 A 
ATOM      2  C   UNL     1      39.044   4.778  17.193  0.00  0.00    +0.000 A 
ATOM      3  C   UNL     1      38.014   4.531  16.311  0.00  0.00    +0.000 A 
ATOM      4  C   UNL     1      37.493   5.586  15.582  0.00  0.00    +0.000 A 
ATOM      5  C   UNL     1      36.454   5.395  14.678  0.00  0.00    +0.000 A 
ATOM      6  C   UNL     1      35.933   6.441  13.949  0.00  0.00    +0.000 A 
ATOM      7  C   UNL     1      36.481   7.689  14.152  0.00  0.00    +0.000 A 
ATOM      8  C   UNL     1      37.510   7.876  15.049  0.00  0.00    +0.000 A 
ATOM      9  C   UNL     1      38.042   6.835  15.784  0.00  0.00    +0.000 A 
ATOM     10  N   UNL     1      39.054   7.038  16.661  0.00  0.00    +0.000 NA
ENDROOT
BRANCH   1  14
ATOM     11  C   UNL     1      42.752   6.682  20.167  0.00  0.00    +0.000 A 
ATOM     12  C   UNL     1      43.003   6.694  18.802  0.00  0.00    +0.000 A 
ATOM     13  C   UNL     1      41.971   6.484  17.905  0.00  0.00    +0.000 A 
ATOM     14  C   UNL     1      40.684   6.261  18.332  0.00  0.00    +0.000 A 
ATOM     15  C   UNL     1      40.435   6.249  19.693  0.00  0.00    +0.000 A 
ATOM     16  C   UNL     1      41.460   6.458  20.597  0.00  0.00    +0.000 A 
BRANCH  11  18
ATOM     17  C   UNL     1      44.231   5.803  21.862  0.00  0.00    +0.000 C 
ATOM     18  O   UNL     1      43.789   6.895  21.089  0.00  0.00    +0.000 OA
ENDBRANCH  11  18
ENDBRANCH   1  14
BRANCH   3  19
ATOM     19  C   UNL     1      37.453   3.195  16.117  0.00  0.00    +0.000 C 
ATOM     20  O   UNL     1      36.417   2.903  16.780  0.00  0.00    +0.000 OA
ATOM     21  N   UNL     1      38.002   2.244  15.247  0.00  0.00    +0.000 NA
BRANCH  21  22
ATOM     22  C   UNL     1      37.361   0.930  15.126  0.00  0.00    +0.000 C 
BRANCH  22  23
ATOM     23  C   UNL     1      38.387  -0.120  15.154  0.00  0.00    +0.000 A 
ATOM     24  C   UNL     1      39.603   0.038  14.563  0.00  0.00    +0.000 A 
ATOM     25  C   UNL     1      40.551  -0.957  14.600  0.00  0.00    +0.000 A 
ATOM     26  C   UNL     1      40.230  -2.128  15.260  0.00  0.00    +0.000 A 
ATOM     27  C   UNL     1      39.009  -2.323  15.869  0.00  0.00    +0.000 A 
ATOM     28  C   UNL     1      38.098  -1.301  15.803  0.00  0.00    +0.000 A 
ENDBRANCH  22  23
ENDBRANCH  21  22
ENDBRANCH   3  19
BRANCH   6  29
ATOM     29  C   UNL     1      34.815   6.231  12.973  0.00  0.00    +0.000 C 
ATOM     30  C   UNL     1      35.225   6.585  11.563  0.00  0.00    +0.000 C 
ATOM     31  C   UNL     1      33.608   7.006  13.398  0.00  0.00    +0.000 C 
ENDBRANCH   6  29
TORSDOF 6
ENDMDL
MODEL 7
REMARK VINA RESULT:      -7.4      4.474      6.081
REMARK  Name = 
REMARK  6 active torsions:
REMARK  status: ('A' for Active; 'I' for Inactive)
REMARK    1  A    between atoms: O_2  and  C_3
REMARK    2  A    between atoms: C_6  and  C_7
REMARK    3  A    between atoms: C_9  and  C_10
REMARK    4  A    between atoms: N_12  and  C_13
REMARK    5  A    between atoms: C_13  and  C_14
REMARK    6  A    between atoms: C_22  and  C_23
REMARK                            x       y       z     vdW  Elec       q    Type
REMARK                         _______ _______ _______ _____ _____    ______ ____
ROOT
ATOM      1  C   UNL     1      35.616   4.472  13.986  0.00  0.00    +0.000 A 
ATOM      2  C   UNL     1      36.736   3.807  13.535  0.00  0.00    +0.000 A 
ATOM      3  C   UNL     1      37.118   2.575  14.020  0.00  0.00    +0.000 A 
ATOM      4  C   UNL     1      36.347   1.977  15.002  0.00  0.00    +0.000 A 
ATOM      5  C   UNL     1      36.684   0.735  15.529  0.00  0.00    +0.000 A 
ATOM      6  C   UNL     1      35.920   0.136  16.505  0.00  0.00    +0.000 A 
ATOM      7  C   UNL     1      34.804   0.817  16.942  0.00  0.00    +0.000 A 
ATOM      8  C   UNL     1      34.472   2.048  16.420  0.00  0.00    +0.000 A 
ATOM      9  C   UNL     1      35.230   2.658  15.440  0.00  0.00    +0.000 A 
ATOM     10  N   UNL     1      34.887   3.869  14.938  0.00  0.00    +0.000 NA
ENDROOT
BRANCH   1  14
ATOM     11  C   UNL     1      34.485   8.288  12.434  0.00  0.00    +0.000 A 
ATOM     12  C   UNL     1      35.567   7.604  11.898  0.00  0.00    +0.000 A 
ATOM     13  C   UNL     1      35.929   6.369  12.404  0.00  0.00    +0.000 A 
ATOM     14  C   UNL     1      35.236   5.788  13.440  0.00  0.00    +0.000 A 
ATOM     15  C   UNL     1      34.158   6.470  13.974  0.00  0.00    +0.000 A 
ATOM     16  C   UNL     1      33.789   7.706  13.474  0.00  0.00    +0.000 A 
BRANCH  11  18
ATOM     17  C   UNL     1      34.386  10.686  12.703  0.00  0.00    +0.000 C 
ATOM     18  O   UNL     1      34.106   9.542  11.930  0.00  0.00    +0.000 OA
ENDBRANCH  11  18
ENDBRANCH   1  14
BRANCH   3  19
ATOM     19  C   UNL     1      38.307   1.877  13.536  0.00  0.00    +0.000 C 
ATOM     20  O   UNL     1      38.234   1.334  12.396  0.00  0.00    +0.000 OA
ATOM     21  N   UNL     1      39.501   1.785  14.263  0.00  0.00    +0.000 NA
BRANCH  21  22
ATOM     22  C   UNL     1      40.638   1.060  13.686  0.00  0.00    +0.000 C 
BRANCH  22  23
ATOM     23  C   UNL     1      40.648  -0.319  14.192  0.00  0.00    +0.000 A 
ATOM     24  C   UNL     1      39.699  -0.783  15.050  0.00  0.00    +0.000 A 
ATOM     25  C   UNL     1      39.725  -2.077  15.512  0.00  0.00    +0.000 A 
ATOM     26  C   UNL     1      40.749  -2.897  15.076  0.00  0.00    +0.000 A 
ATOM     27  C   UNL     1      41.725  -2.460  14.207  0.00  0.00    +0.000 A 
ATOM     28  C   UNL     1      41.655  -1.162  13.776  0.00  0.00    +0.000 A 
ENDBRANCH  22  23
ENDBRANCH  21  22
ENDBRANCH   3  19
BRANCH   6  29
ATOM     29  C   UNL     1      36.284  -1.205  17.068  0.00  0.00    +0.000 C 
ATOM     30  C   UNL     1      35.441  -2.311  16.479  0.00  0.00    +0.000 C 
ATOM     31  C   UNL     1      36.184  -1.181  18.560  0.00  0.00    +0.000 C 
ENDBRANCH   6  29
TORSDOF 6
ENDMDL
MODEL 8
REMARK VINA RESULT:      -7.4      2.899      8.768
REMARK  Name = 
REMARK  6 active torsions:
REMARK  status: ('A' for Active; 'I' for Inactive)
REMARK    1  A    between atoms: O_2  and  C_3
REMARK    2  A    between atoms: C_6  and  C_7
REMARK    3  A    between atoms: C_9  and  C_10
REMARK    4  A    between atoms: N_12  and  C_13
REMARK    5  A    between atoms: C_13  and  C_14
REMARK    6  A    between atoms: C_22  and  C_23
REMARK                            x       y       z     vdW  Elec       q    Type
REMARK                         _______ _______ _______ _____ _____    ______ ____
ROOT
ATOM      1  C   UNL     1      37.405   0.729  12.451  0.00  0.00    +0.000 A 
ATOM      2  C   UNL     1      37.290   1.800  13.312  0.00  0.00    +0.000 A 
ATOM      3  C   UNL     1      37.042   1.651  14.659  0.00  0.00    +0.000 A 
ATOM      4  C   UNL     1      36.901   0.374  15.173  0.00  0.00    +0.000 A 
ATOM      5  C   UNL     1      36.650   0.163  16.525  0.00  0.00    +0.000 A 
ATOM      6  C   UNL     1      36.511  -1.106  17.042  0.00  0.00    +0.000 A 
ATOM      7  C   UNL     1      36.628  -2.163  16.165  0.00  0.00    +0.000 A 
ATOM      8  C   UNL     1      36.877  -1.953  14.826  0.00  0.00    +0.000 A 
ATOM      9  C   UNL     1      37.020  -0.685  14.297  0.00  0.00    +0.000 A 
ATOM     10  N   UNL     1      37.264  -0.497  12.978  0.00  0.00    +0.000 NA
ENDROOT
BRANCH   1  14
ATOM     11  C   UNL     1      38.147   1.319   8.286  0.00  0.00    +0.000 A 
ATOM     12  C   UNL     1      39.159   0.868   9.123  0.00  0.00    +0.000 A 
ATOM     13  C   UNL     1      38.912   0.679  10.471  0.00  0.00    +0.000 A 
ATOM     14  C   UNL     1      37.675   0.927  11.015  0.00  0.00    +0.000 A 
ATOM     15  C   UNL     1      36.667   1.377  10.181  0.00  0.00    +0.000 A 
ATOM     16  C   UNL     1      36.905   1.569   8.832  0.00  0.00    +0.000 A 
BRANCH  11  18
ATOM     17  C   UNL     1      37.397   1.098   6.001  0.00  0.00    +0.000 C 
ATOM     18  O   UNL     1      38.382   1.516   6.917  0.00  0.00    +0.000 OA
ENDBRANCH  11  18
ENDBRANCH   1  14
BRANCH   3  19
ATOM     19  C   UNL     1      36.922   2.792  15.564  0.00  0.00    +0.000 C 
ATOM     20  O   UNL     1      35.824   3.418  15.562  0.00  0.00    +0.000 OA
ATOM     21  N   UNL     1      37.950   3.214  16.418  0.00  0.00    +0.000 NA
BRANCH  21  22
ATOM     22  C   UNL     1      37.728   4.373  17.288  0.00  0.00    +0.000 C 
BRANCH  22  23
ATOM     23  C   UNL     1      38.984   5.118  17.443  0.00  0.00    +0.000 A 
ATOM     24  C   UNL     1      39.763   5.454  16.378  0.00  0.00    +0.000 A 
ATOM     25  C   UNL     1      40.936   6.152  16.543  0.00  0.00    +0.000 A 
ATOM     26  C   UNL     1      41.301   6.506  17.828  0.00  0.00    +0.000 A 
ATOM     27  C   UNL     1      40.536   6.183  18.928  0.00  0.00    +0.000 A 
ATOM     28  C   UNL     1      39.377   5.485  18.711  0.00  0.00    +0.000 A 
ENDBRANCH  22  23
ENDBRANCH  21  22
ENDBRANCH   3  19
BRANCH   6  29
ATOM     29  C   UNL     1      36.243  -1.330  18.500  0.00  0.00    +0.000 C 
ATOM     30  C   UNL     1      35.635  -0.112  19.154  0.00  0.00    +0.000 C 
ATOM     31  C   UNL     1      37.499  -1.749  19.195  0.00  0.00    +0.000 C 
ENDBRANCH   6  29
TORSDOF 6
ENDMDL
MODEL 9
REMARK VINA RESULT:      -7.3     23.806     27.804
REMARK  Name = 
REMARK  6 active torsions:
REMARK  status: ('A' for Active; 'I' for Inactive)
REMARK    1  A    between atoms: O_2  and  C_3
REMARK    2  A    between atoms: C_6  and  C_7
REMARK    3  A    between atoms: C_9  and  C_10
REMARK    4  A    between atoms: N_12  and  C_13
REMARK    5  A    between atoms: C_13  and  C_14
REMARK    6  A    between atoms: C_22  and  C_23
REMARK                            x       y       z     vdW  Elec       q    Type
REMARK                         _______ _______ _______ _____ _____    ______ ____
ROOT
ATOM      1  C   UNL     1      12.020  -3.049  26.294  0.00  0.00    +0.000 A 
ATOM      2  C   UNL     1      13.182  -2.378  26.608  0.00  0.00    +0.000 A 
ATOM      3  C   UNL     1      13.247  -1.005  26.709  0.00  0.00    +0.000 A 
ATOM      4  C   UNL     1      12.098  -0.266  26.485  0.00  0.00    +0.000 A 
ATOM      5  C   UNL     1      12.104   1.122  26.572  0.00  0.00    +0.000 A 
ATOM      6  C   UNL     1      10.964   1.862  26.352  0.00  0.00    +0.000 A 
ATOM      7  C   UNL     1       9.813   1.173  26.038  0.00  0.00    +0.000 A 
ATOM      8  C   UNL     1       9.808  -0.203  25.951  0.00  0.00    +0.000 A 
ATOM      9  C   UNL     1      10.945  -0.955  26.172  0.00  0.00    +0.000 A 
ATOM     10  N   UNL     1      10.922  -2.307  26.082  0.00  0.00    +0.000 NA
ENDROOT
BRANCH   1  14
ATOM     11  C   UNL     1      11.907  -7.308  25.982  0.00  0.00    +0.000 A 
ATOM     12  C   UNL     1      12.563  -6.698  27.043  0.00  0.00    +0.000 A 
ATOM     13  C   UNL     1      12.596  -5.319  27.139  0.00  0.00    +0.000 A 
ATOM     14  C   UNL     1      11.988  -4.520  26.199  0.00  0.00    +0.000 A 
ATOM     15  C   UNL     1      11.335  -5.128  25.142  0.00  0.00    +0.000 A 
ATOM     16  C   UNL     1      11.297  -6.507  25.039  0.00  0.00    +0.000 A 
BRANCH  11  18
ATOM     17  C   UNL     1      12.960  -9.449  26.356  0.00  0.00    +0.000 C 
ATOM     18  O   UNL     1      11.865  -8.706  25.872  0.00  0.00    +0.000 OA
ENDBRANCH  11  18
ENDBRANCH   1  14
BRANCH   3  19
ATOM     19  C   UNL     1      14.483  -0.302  27.043  0.00  0.00    +0.000 C 
ATOM     20  O   UNL     1      14.603   0.125  28.228  0.00  0.00    +0.000 OA
ATOM     21  N   UNL     1      15.521  -0.083  26.128  0.00  0.00    +0.000 NA
BRANCH  21  22
ATOM     22  C   UNL     1      16.723   0.635  26.565  0.00  0.00    +0.000 C 
BRANCH  22  23
ATOM     23  C   UNL     1      17.852   0.277  25.697  0.00  0.00    +0.000 A 
ATOM     24  C   UNL     1      18.612   1.217  25.072  0.00  0.00    +0.000 A 
ATOM     25  C   UNL     1      19.665   0.863  24.263  0.00  0.00    +0.000 A 
ATOM     26  C   UNL     1      19.931  -0.485  24.104  0.00  0.00    +0.000 A 
ATOM     27  C   UNL     1      19.182  -1.463  24.721  0.00  0.00    +0.000 A 
ATOM     28  C   UNL     1      18.142  -1.057  25.517  0.00  0.00    +0.000 A 
ENDBRANCH  22  23
ENDBRANCH  21  22
ENDBRANCH   3  19
BRANCH   6  29
ATOM     29  C   UNL     1      10.973   3.358  26.450  0.00  0.00    +0.000 C 
ATOM     30  C   UNL     1      12.281   3.878  26.997  0.00  0.00    +0.000 C 
ATOM     31  C   UNL     1       9.816   3.827  27.273  0.00  0.00    +0.000 C 
ENDBRANCH   6  29
TORSDOF 6
ENDMDL
MODEL 10
REMARK VINA RESULT:      -7.2      4.379      5.422
REMARK  Name = 
REMARK  6 active torsions:
REMARK  status: ('A' for Active; 'I' for Inactive)
REMARK    1  A    between atoms: O_2  and  C_3
REMARK    2  A    between atoms: C_6  and  C_7
REMARK    3  A    between atoms: C_9  and  C_10
REMARK    4  A    between atoms: N_12  and  C_13
REMARK    5  A    between atoms: C_13  and  C_14
REMARK    6  A    between atoms: C_22  and  C_23
REMARK                            x       y       z     vdW  Elec       q    Type
REMARK                         _______ _______ _______ _____ _____    ______ ____
ROOT
ATOM      1  C   UNL     1      37.083   3.580  13.082  0.00  0.00    +0.000 A 
ATOM      2  C   UNL     1      36.563   2.834  14.118  0.00  0.00    +0.000 A 
ATOM      3  C   UNL     1      37.223   1.756  14.666  0.00  0.00    +0.000 A 
ATOM      4  C   UNL     1      38.461   1.404  14.157  0.00  0.00    +0.000 A 
ATOM      5  C   UNL     1      39.173   0.325  14.671  0.00  0.00    +0.000 A 
ATOM      6  C   UNL     1      40.406  -0.028  14.169  0.00  0.00    +0.000 A 
ATOM      7  C   UNL     1      40.909   0.730  13.133  0.00  0.00    +0.000 A 
ATOM      8  C   UNL     1      40.202   1.798  12.625  0.00  0.00    +0.000 A 
ATOM      9  C   UNL     1      38.966   2.162  13.121  0.00  0.00    +0.000 A 
ATOM     10  N   UNL     1      38.285   3.216  12.609  0.00  0.00    +0.000 NA
ENDROOT
BRANCH   1  14
ATOM     11  C   UNL     1      34.974   6.905  11.426  0.00  0.00    +0.000 A 
ATOM     12  C   UNL     1      34.769   6.530  12.747  0.00  0.00    +0.000 A 
ATOM     13  C   UNL     1      35.455   5.453  13.277  0.00  0.00    +0.000 A 
ATOM     14  C   UNL     1      36.349   4.731  12.524  0.00  0.00    +0.000 A 
ATOM     15  C   UNL     1      36.553   5.105  11.208  0.00  0.00    +0.000 A 
ATOM     16  C   UNL     1      35.872   6.181  10.669  0.00  0.00    +0.000 A 
BRANCH  11  18
ATOM     17  C   UNL     1      34.535   9.280  11.398  0.00  0.00    +0.000 C 
ATOM     18  O   UNL     1      34.286   7.997  10.874  0.00  0.00    +0.000 OA
ENDBRANCH  11  18
ENDBRANCH   1  14
BRANCH   3  19
ATOM     19  C   UNL     1      36.664   0.971  15.764  0.00  0.00    +0.000 C 
ATOM     20  O   UNL     1      36.726   1.473  16.923  0.00  0.00    +0.000 OA
ATOM     21  N   UNL     1      36.073  -0.288  15.594  0.00  0.00    +0.000 NA
BRANCH  21  22
ATOM     22  C   UNL     1      35.542  -0.994  16.764  0.00  0.00    +0.000 C 
BRANCH  22  23
ATOM     23  C   UNL     1      36.635  -1.691  17.455  0.00  0.00    +0.000 A 
ATOM     24  C   UNL     1      36.780  -1.650  18.807  0.00  0.00    +0.000 A 
ATOM     25  C   UNL     1      37.809  -2.308  19.436  0.00  0.00    +0.000 A 
ATOM     26  C   UNL     1      38.696  -3.018  18.649  0.00  0.00    +0.000 A 
ATOM     27  C   UNL     1      38.579  -3.082  17.278  0.00  0.00    +0.000 A 
ATOM     28  C   UNL     1      37.536  -2.408  16.699  0.00  0.00    +0.000 A 
ENDBRANCH  22  23
ENDBRANCH  21  22
ENDBRANCH   3  19
BRANCH   6  29
ATOM     29  C   UNL     1      41.172  -1.190  14.727  0.00  0.00    +0.000 C 
ATOM     30  C   UNL     1      42.642  -1.109  14.389  0.00  0.00    +0.000 C 
ATOM     31  C   UNL     1      40.575  -2.475  14.252  0.00  0.00    +0.000 C 
ENDBRANCH   6  29
TORSDOF 6
ENDMDL
