MODEL 1
REMARK VINA RESULT:      -7.1      0.000      0.000
REMARK  Name = 
REMARK  4 active torsions:
REMARK  status: ('A' for Active; 'I' for Inactive)
REMARK    1  A    between atoms: C_2  and  N_3
REMARK    2  A    between atoms: C_2  and  C_13
REMARK    3  A    between atoms: N_3  and  N_4
REMARK    4  A    between atoms: C_5  and  C_7
REMARK                            x       y       z     vdW  Elec       q    Type
REMARK                         _______ _______ _______ _____ _____    ______ ____
ROOT
ATOM      1  N   UNL     1      16.641  11.244  36.112  0.00  0.00    +0.000 NA
ENDROOT
BRANCH   1   2
ATOM      2  N   UNL     1      16.408  11.336  34.696  0.00  0.00    +0.000 NA
ATOM      3  C   UNL     1      15.230  12.043  34.249  0.00  0.00    +0.000 C 
ATOM      4  O   UNL     1      14.510  12.507  35.169  0.00  0.00    +0.000 OA
BRANCH   3   5
ATOM      5  C   UNL     1      14.858  12.237  32.854  0.00  0.00    +0.000 C 
ATOM      6  C   UNL     1      14.100  13.488  32.582  0.00  0.00    +0.000 C 
ATOM      7  C   UNL     1      13.696  13.659  31.147  0.00  0.00    +0.000 C 
ATOM      8  C   UNL     1      14.607  12.920  30.193  0.00  0.00    +0.000 C 
ATOM      9  C   UNL     1      16.024  12.935  30.784  0.00  0.00    +0.000 C 
ATOM     10  C   UNL     1      15.992  11.966  31.935  0.00  0.00    +0.000 C 
ENDBRANCH   3   5
ENDBRANCH   1   2
BRANCH   1  12
ATOM     11  C   UNL     1      17.607   9.213  35.460  0.00  0.00    +0.000 C 
ATOM     12  C   UNL     1      17.374  10.044  36.464  0.00  0.00    +0.000 C 
BRANCH  12  13
ATOM     13  C   UNL     1      17.846   9.794  37.807  0.00  0.00    +0.000 A 
ATOM     14  C   UNL     1      19.167   9.378  37.968  0.00  0.00    +0.000 A 
ATOM     15  C   UNL     1      19.686   9.120  39.219  0.00  0.00    +0.000 A 
ATOM     16  C   UNL     1      18.910   9.267  40.334  0.00  0.00    +0.000 A 
ATOM     17  F   UNL     1      19.444   9.012  41.564  0.00  0.00    +0.000 F 
ATOM     18  C   UNL     1      17.590   9.681  40.201  0.00  0.00    +0.000 A 
ATOM     19  C   UNL     1      17.085   9.936  38.930  0.00  0.00    +0.000 A 
ENDBRANCH  12  13
ENDBRANCH   1  12
TORSDOF 4
ENDMDL
MODEL 2
REMARK VINA RESULT:      -6.9     20.349     22.647
REMARK  Name = 
REMARK  4 active torsions:
REMARK  status: ('A' for Active; 'I' for Inactive)
REMARK    1  A    between atoms: C_2  and  N_3
REMARK    2  A    between atoms: C_2  and  C_13
REMARK    3  A    between atoms: N_3  and  N_4
REMARK    4  A    between atoms: C_5  and  C_7
REMARK                            x       y       z     vdW  Elec       q    Type
REMARK                         _______ _______ _______ _____ _____    ______ ____
ROOT
ATOM      1  N   UNL     1      27.497  23.615  22.088  0.00  0.00    +0.000 NA
ENDROOT
BRANCH   1   2
ATOM      2  N   UNL     1      27.759  24.998  21.790  0.00  0.00    +0.000 NA
ATOM      3  C   UNL     1      29.000  25.323  21.127  0.00  0.00    +0.000 C 
ATOM      4  O   UNL     1      29.745  24.339  20.883  0.00  0.00    +0.000 OA
BRANCH   3   5
ATOM      5  C   UNL     1      29.409  26.668  20.744  0.00  0.00    +0.000 C 
ATOM      6  C   UNL     1      30.012  26.771  19.388  0.00  0.00    +0.000 C 
ATOM      7  C   UNL     1      30.457  28.156  19.020  0.00  0.00    +0.000 C 
ATOM      8  C   UNL     1      29.693  29.230  19.762  0.00  0.00    +0.000 C 
ATOM      9  C   UNL     1      28.260  28.725  19.982  0.00  0.00    +0.000 C 
ATOM     10  C   UNL     1      28.363  27.675  21.055  0.00  0.00    +0.000 C 
ENDBRANCH   3   5
ENDBRANCH   1   2
BRANCH   1  12
ATOM     11  C   UNL     1      25.972  23.572  23.863  0.00  0.00    +0.000 C 
ATOM     12  C   UNL     1      27.233  23.405  23.497  0.00  0.00    +0.000 C 
BRANCH  12  13
ATOM     13  C   UNL     1      28.267  23.007  24.425  0.00  0.00    +0.000 A 
ATOM     14  C   UNL     1      27.902  22.785  25.752  0.00  0.00    +0.000 A 
ATOM     15  C   UNL     1      28.834  22.404  26.694  0.00  0.00    +0.000 A 
ATOM     16  C   UNL     1      30.144  22.236  26.343  0.00  0.00    +0.000 A 
ATOM     17  F   UNL     1      31.051  21.853  27.289  0.00  0.00    +0.000 F 
ATOM     18  C   UNL     1      30.534  22.450  25.027  0.00  0.00    +0.000 A 
ATOM     19  C   UNL     1      29.578  22.835  24.091  0.00  0.00    +0.000 A 
ENDBRANCH  12  13
ENDBRANCH   1  12
TORSDOF 4
ENDMDL
MODEL 3
REMARK VINA RESULT:      -6.9      3.346      8.080
REMARK  Name = 
REMARK  4 active torsions:
REMARK  status: ('A' for Active; 'I' for Inactive)
REMARK    1  A    between atoms: C_2  and  N_3
REMARK    2  A    between atoms: C_2  and  C_13
REMARK    3  A    between atoms: N_3  and  N_4
REMARK    4  A    between atoms: C_5  and  C_7
REMARK                            x       y       z     vdW  Elec       q    Type
REMARK                         _______ _______ _______ _____ _____    ______ ____
ROOT
ATOM      1  N   UNL     1      16.707  11.373  35.841  0.00  0.00    +0.000 NA
ENDROOT
BRANCH   1   2
ATOM      2  N   UNL     1      17.531  10.777  36.858  0.00  0.00    +0.000 NA
ATOM      3  C   UNL     1      16.920  10.475  38.131  0.00  0.00    +0.000 C 
ATOM      4  O   UNL     1      15.703  10.782  38.222  0.00  0.00    +0.000 OA
BRANCH   3   5
ATOM      5  C   UNL     1      17.608   9.858  39.257  0.00  0.00    +0.000 C 
ATOM      6  C   UNL     1      16.722   9.455  40.382  0.00  0.00    +0.000 C 
ATOM      7  C   UNL     1      17.449   8.852  41.548  0.00  0.00    +0.000 C 
ATOM      8  C   UNL     1      18.763   8.217  41.150  0.00  0.00    +0.000 C 
ATOM      9  C   UNL     1      18.602   7.641  39.736  0.00  0.00    +0.000 C 
ATOM     10  C   UNL     1      18.585   8.832  38.815  0.00  0.00    +0.000 C 
ENDBRANCH   3   5
ENDBRANCH   1   2
BRANCH   1  12
ATOM     11  C   UNL     1      17.556   9.577  34.601  0.00  0.00    +0.000 C 
ATOM     12  C   UNL     1      16.822  10.679  34.573  0.00  0.00    +0.000 C 
BRANCH  12  13
ATOM     13  C   UNL     1      16.154  11.139  33.378  0.00  0.00    +0.000 A 
ATOM     14  C   UNL     1      15.219  12.165  33.506  0.00  0.00    +0.000 A 
ATOM     15  C   UNL     1      14.543  12.655  32.408  0.00  0.00    +0.000 A 
ATOM     16  C   UNL     1      14.777  12.140  31.165  0.00  0.00    +0.000 A 
ATOM     17  F   UNL     1      14.101  12.642  30.090  0.00  0.00    +0.000 F 
ATOM     18  C   UNL     1      15.705  11.118  31.010  0.00  0.00    +0.000 A 
ATOM     19  C   UNL     1      16.377  10.637  32.129  0.00  0.00    +0.000 A 
ENDBRANCH  12  13
ENDBRANCH   1  12
TORSDOF 4
ENDMDL
MODEL 4
REMARK VINA RESULT:      -6.7      4.234      7.479
REMARK  Name = 
REMARK  4 active torsions:
REMARK  status: ('A' for Active; 'I' for Inactive)
REMARK    1  A    between atoms: C_2  and  N_3
REMARK    2  A    between atoms: C_2  and  C_13
REMARK    3  A    between atoms: N_3  and  N_4
REMARK    4  A    between atoms: C_5  and  C_7
REMARK                            x       y       z     vdW  Elec       q    Type
REMARK                         _______ _______ _______ _____ _____    ______ ____
ROOT
ATOM      1  N   UNL     1      18.504  10.820  37.806  0.00  0.00    +0.000 NA
ENDROOT
BRANCH   1   2
ATOM      2  N   UNL     1      19.797  10.241  37.558  0.00  0.00    +0.000 NA
ATOM      3  C   UNL     1      20.957  11.087  37.715  0.00  0.00    +0.000 C 
ATOM      4  O   UNL     1      20.707  12.273  38.051  0.00  0.00    +0.000 OA
BRANCH   3   5
ATOM      5  C   UNL     1      22.334  10.654  37.516  0.00  0.00    +0.000 C 
ATOM      6  C   UNL     1      22.617  10.080  36.173  0.00  0.00    +0.000 C 
ATOM      7  C   UNL     1      24.030   9.609  35.994  0.00  0.00    +0.000 C 
ATOM      8  C   UNL     1      25.003  10.327  36.902  0.00  0.00    +0.000 C 
ATOM      9  C   UNL     1      24.504  11.767  37.086  0.00  0.00    +0.000 C 
ATOM     10  C   UNL     1      23.309  11.666  37.996  0.00  0.00    +0.000 C 
ENDBRANCH   3   5
ENDBRANCH   1   2
BRANCH   1  12
ATOM     11  C   UNL     1      17.961   9.593  35.886  0.00  0.00    +0.000 C 
ATOM     12  C   UNL     1      17.565  10.522  36.743  0.00  0.00    +0.000 C 
BRANCH  12  13
ATOM     13  C   UNL     1      16.276  11.170  36.647  0.00  0.00    +0.000 A 
ATOM     14  C   UNL     1      15.404  11.049  37.728  0.00  0.00    +0.000 A 
ATOM     15  C   UNL     1      14.158  11.640  37.708  0.00  0.00    +0.000 A 
ATOM     16  C   UNL     1      13.751  12.359  36.620  0.00  0.00    +0.000 A 
ATOM     17  F   UNL     1      12.515  12.940  36.621  0.00  0.00    +0.000 F 
ATOM     18  C   UNL     1      14.601  12.494  35.530  0.00  0.00    +0.000 A 
ATOM     19  C   UNL     1      15.854  11.891  35.569  0.00  0.00    +0.000 A 
ENDBRANCH  12  13
ENDBRANCH   1  12
TORSDOF 4
ENDMDL
MODEL 5
REMARK VINA RESULT:      -6.7      2.433      2.842
REMARK  Name = 
REMARK  4 active torsions:
REMARK  status: ('A' for Active; 'I' for Inactive)
REMARK    1  A    between atoms: C_2  and  N_3
REMARK    2  A    between atoms: C_2  and  C_13
REMARK    3  A    between atoms: N_3  and  N_4
REMARK    4  A    between atoms: C_5  and  C_7
REMARK                            x       y       z     vdW  Elec       q    Type
REMARK                         _______ _______ _______ _____ _____    ______ ____
ROOT
ATOM      1  N   UNL     1      17.508   9.528  36.143  0.00  0.00    +0.000 NA
ENDROOT
BRANCH   1   2
ATOM      2  N   UNL     1      16.475  10.227  35.425  0.00  0.00    +0.000 NA
ATOM      3  C   UNL     1      16.658  10.430  34.007  0.00  0.00    +0.000 C 
ATOM      4  O   UNL     1      17.732   9.972  33.539  0.00  0.00    +0.000 OA
BRANCH   3   5
ATOM      5  C   UNL     1      15.704  11.103  33.135  0.00  0.00    +0.000 C 
ATOM      6  C   UNL     1      15.176  12.388  33.668  0.00  0.00    +0.000 C 
ATOM      7  C   UNL     1      14.170  13.054  32.774  0.00  0.00    +0.000 C 
ATOM      8  C   UNL     1      14.338  12.669  31.321  0.00  0.00    +0.000 C 
ATOM      9  C   UNL     1      15.835  12.448  31.060  0.00  0.00    +0.000 C 
ATOM     10  C   UNL     1      16.172  11.141  31.726  0.00  0.00    +0.000 C 
ENDBRANCH   3   5
ENDBRANCH   1   2
BRANCH   1  12
ATOM     11  C   UNL     1      16.967  10.419  38.240  0.00  0.00    +0.000 C 
ATOM     12  C   UNL     1      17.918  10.244  37.335  0.00  0.00    +0.000 C 
BRANCH  12  13
ATOM     13  C   UNL     1      19.274  10.699  37.534  0.00  0.00    +0.000 A 
ATOM     14  C   UNL     1      20.310   9.885  37.078  0.00  0.00    +0.000 A 
ATOM     15  C   UNL     1      21.629  10.255  37.232  0.00  0.00    +0.000 A 
ATOM     16  C   UNL     1      21.950  11.435  37.842  0.00  0.00    +0.000 A 
ATOM     17  F   UNL     1      23.262  11.786  37.982  0.00  0.00    +0.000 F 
ATOM     18  C   UNL     1      20.937  12.265  38.305  0.00  0.00    +0.000 A 
ATOM     19  C   UNL     1      19.612  11.874  38.140  0.00  0.00    +0.000 A 
ENDBRANCH  12  13
ENDBRANCH   1  12
TORSDOF 4
ENDMDL
MODEL 6
REMARK VINA RESULT:      -6.5      4.226      7.369
REMARK  Name = 
REMARK  4 active torsions:
REMARK  status: ('A' for Active; 'I' for Inactive)
REMARK    1  A    between atoms: C_2  and  N_3
REMARK    2  A    between atoms: C_2  and  C_13
REMARK    3  A    between atoms: N_3  and  N_4
REMARK    4  A    between atoms: C_5  and  C_7
REMARK                            x       y       z     vdW  Elec       q    Type
REMARK                         _______ _______ _______ _____ _____    ______ ____
ROOT
ATOM      1  N   UNL     1      18.902  10.933  39.101  0.00  0.00    +0.000 NA
ENDROOT
BRANCH   1   2
ATOM      2  N   UNL     1      19.934  11.301  38.169  0.00  0.00    +0.000 NA
ATOM      3  C   UNL     1      21.136  10.500  38.142  0.00  0.00    +0.000 C 
ATOM      4  O   UNL     1      21.157   9.547  38.962  0.00  0.00    +0.000 OA
BRANCH   3   5
ATOM      5  C   UNL     1      22.266  10.729  37.251  0.00  0.00    +0.000 C 
ATOM      6  C   UNL     1      23.443  11.371  37.894  0.00  0.00    +0.000 C 
ATOM      7  C   UNL     1      24.587  11.630  36.957  0.00  0.00    +0.000 C 
ATOM      8  C   UNL     1      24.595  10.687  35.774  0.00  0.00    +0.000 C 
ATOM      9  C   UNL     1      24.046   9.333  36.244  0.00  0.00    +0.000 C 
ATOM     10  C   UNL     1      22.565   9.536  36.418  0.00  0.00    +0.000 C 
ENDBRANCH   3   5
ENDBRANCH   1   2
BRANCH   1  12
ATOM     11  C   UNL     1      16.841   9.831  39.244  0.00  0.00    +0.000 C 
ATOM     12  C   UNL     1      17.757  10.343  38.436  0.00  0.00    +0.000 C 
BRANCH  12  13
ATOM     13  C   UNL     1      17.612  10.347  36.999  0.00  0.00    +0.000 A 
ATOM     14  C   UNL     1      18.073   9.236  36.294  0.00  0.00    +0.000 A 
ATOM     15  C   UNL     1      17.969   9.169  34.920  0.00  0.00    +0.000 A 
ATOM     16  C   UNL     1      17.408  10.199  34.218  0.00  0.00    +0.000 A 
ATOM     17  F   UNL     1      17.309  10.112  32.859  0.00  0.00    +0.000 F 
ATOM     18  C   UNL     1      16.940  11.317  34.897  0.00  0.00    +0.000 A 
ATOM     19  C   UNL     1      17.055  11.366  36.283  0.00  0.00    +0.000 A 
ENDBRANCH  12  13
ENDBRANCH   1  12
TORSDOF 4
ENDMDL
MODEL 7
REMARK VINA RESULT:      -6.4     20.707     22.880
REMARK  Name = 
REMARK  4 active torsions:
REMARK  status: ('A' for Active; 'I' for Inactive)
REMARK    1  A    between atoms: C_2  and  N_3
REMARK    2  A    between atoms: C_2  and  C_13
REMARK    3  A    between atoms: N_3  and  N_4
REMARK    4  A    between atoms: C_5  and  C_7
REMARK                            x       y       z     vdW  Elec       q    Type
REMARK                         _______ _______ _______ _____ _____    ______ ____
ROOT
ATOM      1  N   UNL     1      33.924  -3.398  34.070  0.00  0.00    +0.000 NA
ENDROOT
BRANCH   1   2
ATOM      2  N   UNL     1      33.570  -4.038  32.831  0.00  0.00    +0.000 NA
ATOM      3  C   UNL     1      34.148  -5.332  32.550  0.00  0.00    +0.000 C 
ATOM      4  O   UNL     1      34.926  -5.768  33.436  0.00  0.00    +0.000 OA
BRANCH   3   5
ATOM      5  C   UNL     1      33.882  -6.116  31.352  0.00  0.00    +0.000 C 
ATOM      6  C   UNL     1      32.441  -6.375  31.085  0.00  0.00    +0.000 C 
ATOM      7  C   UNL     1      32.184  -7.211  29.866  0.00  0.00    +0.000 C 
ATOM      8  C   UNL     1      33.296  -7.110  28.846  0.00  0.00    +0.000 C 
ATOM      9  C   UNL     1      33.872  -5.689  28.913  0.00  0.00    +0.000 C 
ATOM     10  C   UNL     1      34.669  -5.636  30.188  0.00  0.00    +0.000 C 
ENDBRANCH   3   5
ENDBRANCH   1   2
BRANCH   1  12
ATOM     11  C   UNL     1      32.010  -2.626  35.175  0.00  0.00    +0.000 C 
ATOM     12  C   UNL     1      33.028  -2.305  34.391  0.00  0.00    +0.000 C 
BRANCH  12  13
ATOM     13  C   UNL     1      33.251  -0.959  33.917  0.00  0.00    +0.000 A 
ATOM     14  C   UNL     1      34.200  -0.769  32.914  0.00  0.00    +0.000 A 
ATOM     15  C   UNL     1      34.466   0.488  32.412  0.00  0.00    +0.000 A 
ATOM     16  C   UNL     1      33.801   1.579  32.893  0.00  0.00    +0.000 A 
ATOM     17  F   UNL     1      34.075   2.815  32.380  0.00  0.00    +0.000 F 
ATOM     18  C   UNL     1      32.849   1.418  33.892  0.00  0.00    +0.000 A 
ATOM     19  C   UNL     1      32.595   0.142  34.385  0.00  0.00    +0.000 A 
ENDBRANCH  12  13
ENDBRANCH   1  12
TORSDOF 4
ENDMDL
MODEL 8
REMARK VINA RESULT:      -6.3      3.867      7.689
REMARK  Name = 
REMARK  4 active torsions:
REMARK  status: ('A' for Active; 'I' for Inactive)
REMARK    1  A    between atoms: C_2  and  N_3
REMARK    2  A    between atoms: C_2  and  C_13
REMARK    3  A    between atoms: N_3  and  N_4
REMARK    4  A    between atoms: C_5  and  C_7
REMARK                            x       y       z     vdW  Elec       q    Type
REMARK                         _______ _______ _______ _____ _____    ______ ____
ROOT
ATOM      1  N   UNL     1      16.971  10.520  36.544  0.00  0.00    +0.000 NA
ENDROOT
BRANCH   1   2
ATOM      2  N   UNL     1      18.153  11.236  36.941  0.00  0.00    +0.000 NA
ATOM      3  C   UNL     1      18.966  10.669  37.991  0.00  0.00    +0.000 C 
ATOM      4  O   UNL     1      18.538   9.586  38.467  0.00  0.00    +0.000 OA
BRANCH   3   5
ATOM      5  C   UNL     1      20.198  11.259  38.498  0.00  0.00    +0.000 C 
ATOM      6  C   UNL     1      21.411  10.953  37.693  0.00  0.00    +0.000 C 
ATOM      7  C   UNL     1      22.677  11.540  38.244  0.00  0.00    +0.000 C 
ATOM      8  C   UNL     1      22.428  12.773  39.085  0.00  0.00    +0.000 C 
ATOM      9  C   UNL     1      21.221  13.514  38.493  0.00  0.00    +0.000 C 
ATOM     10  C   UNL     1      20.019  12.688  38.863  0.00  0.00    +0.000 C 
ENDBRANCH   3   5
ENDBRANCH   1   2
BRANCH   1  12
ATOM     11  C   UNL     1      17.757   8.894  35.054  0.00  0.00    +0.000 C 
ATOM     12  C   UNL     1      17.070  10.018  35.188  0.00  0.00    +0.000 C 
BRANCH  12  13
ATOM     13  C   UNL     1      16.436  10.680  34.071  0.00  0.00    +0.000 A 
ATOM     14  C   UNL     1      15.488  11.664  34.348  0.00  0.00    +0.000 A 
ATOM     15  C   UNL     1      14.841  12.337  33.333  0.00  0.00    +0.000 A 
ATOM     16  C   UNL     1      15.118  12.050  32.027  0.00  0.00    +0.000 A 
ATOM     17  F   UNL     1      14.471  12.731  31.036  0.00  0.00    +0.000 F 
ATOM     18  C   UNL     1      16.059  11.074  31.723  0.00  0.00    +0.000 A 
ATOM     19  C   UNL     1      16.701  10.406  32.761  0.00  0.00    +0.000 A 
ENDBRANCH  12  13
ENDBRANCH   1  12
TORSDOF 4
ENDMDL
MODEL 9
REMARK VINA RESULT:      -6.1      3.586      8.038
REMARK  Name = 
REMARK  4 active torsions:
REMARK  status: ('A' for Active; 'I' for Inactive)
REMARK    1  A    between atoms: C_2  and  N_3
REMARK    2  A    between atoms: C_2  and  C_13
REMARK    3  A    between atoms: N_3  and  N_4
REMARK    4  A    between atoms: C_5  and  C_7
REMARK                            x       y       z     vdW  Elec       q    Type
REMARK                         _______ _______ _______ _____ _____    ______ ____
ROOT
ATOM      1  N   UNL     1      18.370  10.672  37.493  0.00  0.00    +0.000 NA
ENDROOT
BRANCH   1   2
ATOM      2  N   UNL     1      17.714  10.084  38.630  0.00  0.00    +0.000 NA
ATOM      3  C   UNL     1      18.444   9.104  39.399  0.00  0.00    +0.000 C 
ATOM      4  O   UNL     1      19.602   8.854  38.977  0.00  0.00    +0.000 OA
BRANCH   3   5
ATOM      5  C   UNL     1      17.931   8.427  40.582  0.00  0.00    +0.000 C 
ATOM      6  C   UNL     1      16.532   8.782  40.943  0.00  0.00    +0.000 C 
ATOM      7  C   UNL     1      16.028   8.102  42.183  0.00  0.00    +0.000 C 
ATOM      8  C   UNL     1      16.737   6.795  42.459  0.00  0.00    +0.000 C 
ATOM      9  C   UNL     1      17.095   6.156  41.109  0.00  0.00    +0.000 C 
ATOM     10  C   UNL     1      18.236   6.974  40.566  0.00  0.00    +0.000 C 
ENDBRANCH   3   5
ENDBRANCH   1   2
BRANCH   1  12
ATOM     11  C   UNL     1      18.045   9.226  35.680  0.00  0.00    +0.000 C 
ATOM     12  C   UNL     1      17.685  10.364  36.253  0.00  0.00    +0.000 C 
BRANCH  12  13
ATOM     13  C   UNL     1      16.660  11.222  35.703  0.00  0.00    +0.000 A 
ATOM     14  C   UNL     1      16.303  11.039  34.368  0.00  0.00    +0.000 A 
ATOM     15  C   UNL     1      15.334  11.820  33.775  0.00  0.00    +0.000 A 
ATOM     16  C   UNL     1      14.700  12.796  34.490  0.00  0.00    +0.000 A 
ATOM     17  F   UNL     1      13.739  13.557  33.887  0.00  0.00    +0.000 F 
ATOM     18  C   UNL     1      15.036  12.999  35.823  0.00  0.00    +0.000 A 
ATOM     19  C   UNL     1      16.017  12.201  36.403  0.00  0.00    +0.000 A 
ENDBRANCH  12  13
ENDBRANCH   1  12
TORSDOF 4
ENDMDL
MODEL 10
REMARK VINA RESULT:      -5.9     21.309     23.525
REMARK  Name = 
REMARK  4 active torsions:
REMARK  status: ('A' for Active; 'I' for Inactive)
REMARK    1  A    between atoms: C_2  and  N_3
REMARK    2  A    between atoms: C_2  and  C_13
REMARK    3  A    between atoms: N_3  and  N_4
REMARK    4  A    between atoms: C_5  and  C_7
REMARK                            x       y       z     vdW  Elec       q    Type
REMARK                         _______ _______ _______ _____ _____    ______ ____
ROOT
ATOM      1  N   UNL     1      29.447  24.421  21.757  0.00  0.00    +0.000 NA
ENDROOT
BRANCH   1   2
ATOM      2  N   UNL     1      29.262  25.845  21.670  0.00  0.00    +0.000 NA
ATOM      3  C   UNL     1      29.518  26.483  20.400  0.00  0.00    +0.000 C 
ATOM      4  O   UNL     1      29.894  25.708  19.484  0.00  0.00    +0.000 OA
BRANCH   3   5
ATOM      5  C   UNL     1      29.365  27.908  20.141  0.00  0.00    +0.000 C 
ATOM      6  C   UNL     1      29.288  28.756  21.361  0.00  0.00    +0.000 C 
ATOM      7  C   UNL     1      29.098  30.218  21.080  0.00  0.00    +0.000 C 
ATOM      8  C   UNL     1      29.624  30.622  19.720  0.00  0.00    +0.000 C 
ATOM      9  C   UNL     1      30.848  29.750  19.408  0.00  0.00    +0.000 C 
ATOM     10  C   UNL     1      30.301  28.384  19.091  0.00  0.00    +0.000 C 
ENDBRANCH   3   5
ENDBRANCH   1   2
BRANCH   1  12
ATOM     11  C   UNL     1      27.280  23.750  22.339  0.00  0.00    +0.000 C 
ATOM     12  C   UNL     1      28.547  23.815  22.719  0.00  0.00    +0.000 C 
BRANCH  12  13
ATOM     13  C   UNL     1      29.008  23.291  23.984  0.00  0.00    +0.000 A 
ATOM     14  C   UNL     1      30.378  23.096  24.149  0.00  0.00    +0.000 A 
ATOM     15  C   UNL     1      30.891  22.598  25.329  0.00  0.00    +0.000 A 
ATOM     16  C   UNL     1      30.059  22.283  26.366  0.00  0.00    +0.000 A 
ATOM     17  F   UNL     1      30.586  21.796  27.528  0.00  0.00    +0.000 F 
ATOM     18  C   UNL     1      28.689  22.468  26.227  0.00  0.00    +0.000 A 
ATOM     19  C   UNL     1      28.191  22.971  25.029  0.00  0.00    +0.000 A 
ENDBRANCH  12  13
ENDBRANCH   1  12
TORSDOF 4
ENDMDL
