MODEL 1
REMARK VINA RESULT:      -7.2      0.000      0.000
REMARK  Name = 
REMARK  4 active torsions:
REMARK  status: ('A' for Active; 'I' for Inactive)
REMARK    1  A    between atoms: C_2  and  C_4
REMARK    2  A    between atoms: C_7  and  C_8
REMARK    3  A    between atoms: N_9  and  C_10
REMARK    4  A    between atoms: C_13  and  C_14
REMARK                            x       y       z     vdW  Elec       q    Type
REMARK                         _______ _______ _______ _____ _____    ______ ____
ROOT
ATOM      1  C   UNL     1      16.867  10.012  35.274  0.00  0.00    +0.000 C 
ATOM      2  N   UNL     1      16.901  10.582  36.402  0.00  0.00    +0.000 NA
ENDROOT
BRANCH   1   6
ATOM      3  C   UNL     1      15.357  12.127  31.914  0.00  0.00    +0.000 A 
ATOM      4  C   UNL     1      16.258  11.100  31.719  0.00  0.00    +0.000 A 
ATOM      5  C   UNL     1      16.741  10.422  32.820  0.00  0.00    +0.000 A 
ATOM      6  C   UNL     1      16.362  10.724  34.108  0.00  0.00    +0.000 A 
ATOM      7  C   UNL     1      15.460  11.755  34.267  0.00  0.00    +0.000 A 
ATOM      8  C   UNL     1      14.953  12.460  33.184  0.00  0.00    +0.000 A 
BRANCH   3  10
ATOM      9  C   UNL     1      15.842  13.827  30.182  0.00  0.00    +0.000 C 
ATOM     10  C   UNL     1      14.794  12.905  30.762  0.00  0.00    +0.000 C 
ATOM     11  C   UNL     1      13.666  13.748  31.322  0.00  0.00    +0.000 C 
ENDBRANCH   3  10
ENDBRANCH   1   6
BRANCH   2  12
ATOM     12  C   UNL     1      17.361  10.020  37.611  0.00  0.00    +0.000 A 
ATOM     13  C   UNL     1      16.600  10.182  38.753  0.00  0.00    +0.000 A 
ATOM     14  C   UNL     1      16.996   9.653  39.973  0.00  0.00    +0.000 A 
ATOM     15  C   UNL     1      18.170   8.943  40.092  0.00  0.00    +0.000 A 
ATOM     16  C   UNL     1      18.930   8.780  38.952  0.00  0.00    +0.000 A 
ATOM     17  C   UNL     1      18.536   9.307  37.737  0.00  0.00    +0.000 A 
BRANCH  15  18
ATOM     18  C   UNL     1      18.579   8.389  41.385  0.00  0.00    +0.000 C 
ATOM     19  N   UNL     1      17.594   7.970  42.289  0.00  0.00    +0.000 NA
ATOM     20  O   UNL     1      19.785   8.278  41.712  0.00  0.00    +0.000 OA
ENDBRANCH  15  18
ENDBRANCH   2  12
TORSDOF 4
ENDMDL
MODEL 2
REMARK VINA RESULT:      -7.2      0.722      1.655
REMARK  Name = 
REMARK  4 active torsions:
REMARK  status: ('A' for Active; 'I' for Inactive)
REMARK    1  A    between atoms: C_2  and  C_4
REMARK    2  A    between atoms: C_7  and  C_8
REMARK    3  A    between atoms: N_9  and  C_10
REMARK    4  A    between atoms: C_13  and  C_14
REMARK                            x       y       z     vdW  Elec       q    Type
REMARK                         _______ _______ _______ _____ _____    ______ ____
ROOT
ATOM      1  C   UNL     1      16.729  10.132  35.418  0.00  0.00    +0.000 C 
ATOM      2  N   UNL     1      16.872  10.703  36.538  0.00  0.00    +0.000 NA
ENDROOT
BRANCH   1   6
ATOM      3  C   UNL     1      15.321  12.280  32.036  0.00  0.00    +0.000 A 
ATOM      4  C   UNL     1      14.797  12.560  33.282  0.00  0.00    +0.000 A 
ATOM      5  C   UNL     1      15.263  11.854  34.372  0.00  0.00    +0.000 A 
ATOM      6  C   UNL     1      16.231  10.881  34.272  0.00  0.00    +0.000 A 
ATOM      7  C   UNL     1      16.734  10.627  33.013  0.00  0.00    +0.000 A 
ATOM      8  C   UNL     1      16.288  11.316  31.893  0.00  0.00    +0.000 A 
BRANCH   3  10
ATOM      9  C   UNL     1      16.013  13.731  30.154  0.00  0.00    +0.000 C 
ATOM     10  C   UNL     1      14.858  13.010  30.810  0.00  0.00    +0.000 C 
ATOM     11  C   UNL     1      13.848  14.039  31.276  0.00  0.00    +0.000 C 
ENDBRANCH   3  10
ENDBRANCH   1   6
BRANCH   2  12
ATOM     12  C   UNL     1      17.341  10.108  37.727  0.00  0.00    +0.000 A 
ATOM     13  C   UNL     1      18.565   9.467  37.713  0.00  0.00    +0.000 A 
ATOM     14  C   UNL     1      19.083   8.862  38.850  0.00  0.00    +0.000 A 
ATOM     15  C   UNL     1      18.392   8.878  40.042  0.00  0.00    +0.000 A 
ATOM     16  C   UNL     1      17.170   9.519  40.056  0.00  0.00    +0.000 A 
ATOM     17  C   UNL     1      16.654  10.122  38.924  0.00  0.00    +0.000 A 
BRANCH  15  18
ATOM     18  C   UNL     1      18.948   8.236  41.234  0.00  0.00    +0.000 C 
ATOM     19  N   UNL     1      19.919   7.238  41.081  0.00  0.00    +0.000 NA
ATOM     20  O   UNL     1      18.582   8.550  42.392  0.00  0.00    +0.000 OA
ENDBRANCH  15  18
ENDBRANCH   2  12
TORSDOF 4
ENDMDL
MODEL 3
REMARK VINA RESULT:      -7.0      3.730      8.918
REMARK  Name = 
REMARK  4 active torsions:
REMARK  status: ('A' for Active; 'I' for Inactive)
REMARK    1  A    between atoms: C_2  and  C_4
REMARK    2  A    between atoms: C_7  and  C_8
REMARK    3  A    between atoms: N_9  and  C_10
REMARK    4  A    between atoms: C_13  and  C_14
REMARK                            x       y       z     vdW  Elec       q    Type
REMARK                         _______ _______ _______ _____ _____    ______ ____
ROOT
ATOM      1  C   UNL     1      16.663  10.972  36.881  0.00  0.00    +0.000 C 
ATOM      2  N   UNL     1      15.532  11.204  36.363  0.00  0.00    +0.000 NA
ENDROOT
BRANCH   1   6
ATOM      3  C   UNL     1      16.862   9.417  40.828  0.00  0.00    +0.000 A 
ATOM      4  C   UNL     1      18.015   9.503  40.075  0.00  0.00    +0.000 A 
ATOM      5  C   UNL     1      17.936  10.009  38.794  0.00  0.00    +0.000 A 
ATOM      6  C   UNL     1      16.754  10.435  38.232  0.00  0.00    +0.000 A 
ATOM      7  C   UNL     1      15.620  10.336  39.012  0.00  0.00    +0.000 A 
ATOM      8  C   UNL     1      15.661   9.831  40.304  0.00  0.00    +0.000 A 
BRANCH   3  10
ATOM      9  C   UNL     1      15.912   7.719  42.358  0.00  0.00    +0.000 C 
ATOM     10  C   UNL     1      16.877   8.875  42.227  0.00  0.00    +0.000 C 
ATOM     11  C   UNL     1      16.410   9.999  43.129  0.00  0.00    +0.000 C 
ENDBRANCH   3  10
ENDBRANCH   1   6
BRANCH   2  12
ATOM     12  C   UNL     1      15.293  11.720  35.073  0.00  0.00    +0.000 A 
ATOM     13  C   UNL     1      14.460  12.814  34.937  0.00  0.00    +0.000 A 
ATOM     14  C   UNL     1      14.184  13.370  33.696  0.00  0.00    +0.000 A 
ATOM     15  C   UNL     1      14.733  12.849  32.545  0.00  0.00    +0.000 A 
ATOM     16  C   UNL     1      15.565  11.757  32.680  0.00  0.00    +0.000 A 
ATOM     17  C   UNL     1      15.841  11.203  33.916  0.00  0.00    +0.000 A 
BRANCH  15  18
ATOM     18  C   UNL     1      14.434  13.443  31.241  0.00  0.00    +0.000 C 
ATOM     19  N   UNL     1      15.485  13.688  30.347  0.00  0.00    +0.000 NA
ATOM     20  O   UNL     1      13.266  13.741  30.895  0.00  0.00    +0.000 OA
ENDBRANCH  15  18
ENDBRANCH   2  12
TORSDOF 4
ENDMDL
MODEL 4
REMARK VINA RESULT:      -6.7      1.325      1.722
REMARK  Name = 
REMARK  4 active torsions:
REMARK  status: ('A' for Active; 'I' for Inactive)
REMARK    1  A    between atoms: C_2  and  C_4
REMARK    2  A    between atoms: C_7  and  C_8
REMARK    3  A    between atoms: N_9  and  C_10
REMARK    4  A    between atoms: C_13  and  C_14
REMARK                            x       y       z     vdW  Elec       q    Type
REMARK                         _______ _______ _______ _____ _____    ______ ____
ROOT
ATOM      1  C   UNL     1      16.808  10.221  35.689  0.00  0.00    +0.000 C 
ATOM      2  N   UNL     1      17.914  10.566  36.198  0.00  0.00    +0.000 NA
ENDROOT
BRANCH   1   6
ATOM      3  C   UNL     1      15.368  12.121  32.175  0.00  0.00    +0.000 A 
ATOM      4  C   UNL     1      16.388  11.198  32.076  0.00  0.00    +0.000 A 
ATOM      5  C   UNL     1      16.847  10.588  33.225  0.00  0.00    +0.000 A 
ATOM      6  C   UNL     1      16.330  10.861  34.471  0.00  0.00    +0.000 A 
ATOM      7  C   UNL     1      15.311  11.788  34.535  0.00  0.00    +0.000 A 
ATOM      8  C   UNL     1      14.824  12.422  33.400  0.00  0.00    +0.000 A 
BRANCH   3  10
ATOM      9  C   UNL     1      15.906  13.627  30.286  0.00  0.00    +0.000 C 
ATOM     10  C   UNL     1      14.823  12.821  30.965  0.00  0.00    +0.000 C 
ATOM     11  C   UNL     1      13.753  13.772  31.463  0.00  0.00    +0.000 C 
ENDBRANCH   3  10
ENDBRANCH   1   6
BRANCH   2  12
ATOM     12  C   UNL     1      18.500  10.037  37.366  0.00  0.00    +0.000 A 
ATOM     13  C   UNL     1      19.877   9.955  37.443  0.00  0.00    +0.000 A 
ATOM     14  C   UNL     1      20.514   9.445  38.564  0.00  0.00    +0.000 A 
ATOM     15  C   UNL     1      19.794   8.998  39.651  0.00  0.00    +0.000 A 
ATOM     16  C   UNL     1      18.419   9.081  39.575  0.00  0.00    +0.000 A 
ATOM     17  C   UNL     1      17.783   9.589  38.458  0.00  0.00    +0.000 A 
BRANCH  15  18
ATOM     18  C   UNL     1      20.478   8.462  40.829  0.00  0.00    +0.000 C 
ATOM     19  N   UNL     1      21.789   7.984  40.698  0.00  0.00    +0.000 NA
ATOM     20  O   UNL     1      19.929   8.415  41.955  0.00  0.00    +0.000 OA
ENDBRANCH  15  18
ENDBRANCH   2  12
TORSDOF 4
ENDMDL
MODEL 5
REMARK VINA RESULT:      -6.6      1.392      2.115
REMARK  Name = 
REMARK  4 active torsions:
REMARK  status: ('A' for Active; 'I' for Inactive)
REMARK    1  A    between atoms: C_2  and  C_4
REMARK    2  A    between atoms: C_7  and  C_8
REMARK    3  A    between atoms: N_9  and  C_10
REMARK    4  A    between atoms: C_13  and  C_14
REMARK                            x       y       z     vdW  Elec       q    Type
REMARK                         _______ _______ _______ _____ _____    ______ ____
ROOT
ATOM      1  C   UNL     1      17.577  10.287  36.766  0.00  0.00    +0.000 C 
ATOM      2  N   UNL     1      16.748  10.248  37.721  0.00  0.00    +0.000 NA
ENDROOT
BRANCH   1   6
ATOM      3  C   UNL     1      16.297  11.071  32.794  0.00  0.00    +0.000 A 
ATOM      4  C   UNL     1      15.685  11.725  33.843  0.00  0.00    +0.000 A 
ATOM      5  C   UNL     1      16.110  11.460  35.129  0.00  0.00    +0.000 A 
ATOM      6  C   UNL     1      17.122  10.571  35.412  0.00  0.00    +0.000 A 
ATOM      7  C   UNL     1      17.712   9.935  34.340  0.00  0.00    +0.000 A 
ATOM      8  C   UNL     1      17.310  10.175  33.033  0.00  0.00    +0.000 A 
BRANCH   3  10
ATOM      9  C   UNL     1      16.084  12.762  30.999  0.00  0.00    +0.000 C 
ATOM     10  C   UNL     1      15.882  11.311  31.372  0.00  0.00    +0.000 C 
ATOM     11  C   UNL     1      14.403  10.993  31.294  0.00  0.00    +0.000 C 
ENDBRANCH   3  10
ENDBRANCH   1   6
BRANCH   2  12
ATOM     12  C   UNL     1      17.043   9.987  39.075  0.00  0.00    +0.000 A 
ATOM     13  C   UNL     1      15.998   9.788  39.958  0.00  0.00    +0.000 A 
ATOM     14  C   UNL     1      16.221   9.527  41.302  0.00  0.00    +0.000 A 
ATOM     15  C   UNL     1      17.499   9.456  41.811  0.00  0.00    +0.000 A 
ATOM     16  C   UNL     1      18.542   9.653  40.930  0.00  0.00    +0.000 A 
ATOM     17  C   UNL     1      18.321   9.913  39.590  0.00  0.00    +0.000 A 
BRANCH  15  18
ATOM     18  C   UNL     1      17.722   9.180  43.231  0.00  0.00    +0.000 C 
ATOM     19  N   UNL     1      16.622   8.900  44.052  0.00  0.00    +0.000 NA
ATOM     20  O   UNL     1      18.868   9.187  43.740  0.00  0.00    +0.000 OA
ENDBRANCH  15  18
ENDBRANCH   2  12
TORSDOF 4
ENDMDL
MODEL 6
REMARK VINA RESULT:      -6.5      4.493      7.652
REMARK  Name = 
REMARK  4 active torsions:
REMARK  status: ('A' for Active; 'I' for Inactive)
REMARK    1  A    between atoms: C_2  and  C_4
REMARK    2  A    between atoms: C_7  and  C_8
REMARK    3  A    between atoms: N_9  and  C_10
REMARK    4  A    between atoms: C_13  and  C_14
REMARK                            x       y       z     vdW  Elec       q    Type
REMARK                         _______ _______ _______ _____ _____    ______ ____
ROOT
ATOM      1  C   UNL     1      18.733  10.938  37.918  0.00  0.00    +0.000 C 
ATOM      2  N   UNL     1      17.968  11.547  37.116  0.00  0.00    +0.000 NA
ENDROOT
BRANCH   1   6
ATOM      3  C   UNL     1      22.946  11.142  37.426  0.00  0.00    +0.000 A 
ATOM      4  C   UNL     1      22.315  12.054  38.247  0.00  0.00    +0.000 A 
ATOM      5  C   UNL     1      20.946  11.977  38.397  0.00  0.00    +0.000 A 
ATOM      6  C   UNL     1      20.179  11.026  37.763  0.00  0.00    +0.000 A 
ATOM      7  C   UNL     1      20.840  10.130  36.951  0.00  0.00    +0.000 A 
ATOM      8  C   UNL     1      22.217  10.177  36.775  0.00  0.00    +0.000 A 
BRANCH   3  10
ATOM      9  C   UNL     1      24.875   9.980  36.398  0.00  0.00    +0.000 C 
ATOM     10  C   UNL     1      24.432  11.170  37.217  0.00  0.00    +0.000 C 
ATOM     11  C   UNL     1      25.061  11.071  38.592  0.00  0.00    +0.000 C 
ENDBRANCH   3  10
ENDBRANCH   1   6
BRANCH   2  12
ATOM     12  C   UNL     1      16.558  11.553  37.143  0.00  0.00    +0.000 A 
ATOM     13  C   UNL     1      15.911  10.969  38.216  0.00  0.00    +0.000 A 
ATOM     14  C   UNL     1      14.527  10.942  38.303  0.00  0.00    +0.000 A 
ATOM     15  C   UNL     1      13.740  11.499  37.318  0.00  0.00    +0.000 A 
ATOM     16  C   UNL     1      14.386  12.082  36.248  0.00  0.00    +0.000 A 
ATOM     17  C   UNL     1      15.765  12.109  36.160  0.00  0.00    +0.000 A 
BRANCH  15  18
ATOM     18  C   UNL     1      12.281  11.464  37.421  0.00  0.00    +0.000 C 
ATOM     19  N   UNL     1      11.673  10.436  38.155  0.00  0.00    +0.000 NA
ATOM     20  O   UNL     1      11.552  12.325  36.872  0.00  0.00    +0.000 OA
ENDBRANCH  15  18
ENDBRANCH   2  12
TORSDOF 4
ENDMDL
MODEL 7
REMARK VINA RESULT:      -6.5      3.563      9.000
REMARK  Name = 
REMARK  4 active torsions:
REMARK  status: ('A' for Active; 'I' for Inactive)
REMARK    1  A    between atoms: C_2  and  C_4
REMARK    2  A    between atoms: C_7  and  C_8
REMARK    3  A    between atoms: N_9  and  C_10
REMARK    4  A    between atoms: C_13  and  C_14
REMARK                            x       y       z     vdW  Elec       q    Type
REMARK                         _______ _______ _______ _____ _____    ______ ____
ROOT
ATOM      1  C   UNL     1      15.651  11.158  37.404  0.00  0.00    +0.000 C 
ATOM      2  N   UNL     1      16.168  11.019  36.259  0.00  0.00    +0.000 NA
ENDROOT
BRANCH   1   6
ATOM      3  C   UNL     1      17.432   9.228  40.742  0.00  0.00    +0.000 A 
ATOM      4  C   UNL     1      16.080   9.501  40.760  0.00  0.00    +0.000 A 
ATOM      5  C   UNL     1      15.514  10.129  39.670  0.00  0.00    +0.000 A 
ATOM      6  C   UNL     1      16.242  10.495  38.560  0.00  0.00    +0.000 A 
ATOM      7  C   UNL     1      17.590  10.207  38.574  0.00  0.00    +0.000 A 
ATOM      8  C   UNL     1      18.194   9.577  39.654  0.00  0.00    +0.000 A 
BRANCH   3  10
ATOM      9  C   UNL     1      19.488   8.072  41.494  0.00  0.00    +0.000 C 
ATOM     10  C   UNL     1      18.111   8.548  41.895  0.00  0.00    +0.000 C 
ATOM     11  C   UNL     1      17.264   7.340  42.242  0.00  0.00    +0.000 C 
ENDBRANCH   3  10
ENDBRANCH   1   6
BRANCH   2  12
ATOM     12  C   UNL     1      15.709  11.597  35.057  0.00  0.00    +0.000 A 
ATOM     13  C   UNL     1      16.271  11.189  33.863  0.00  0.00    +0.000 A 
ATOM     14  C   UNL     1      15.863  11.718  32.648  0.00  0.00    +0.000 A 
ATOM     15  C   UNL     1      14.876  12.676  32.584  0.00  0.00    +0.000 A 
ATOM     16  C   UNL     1      14.313  13.084  33.776  0.00  0.00    +0.000 A 
ATOM     17  C   UNL     1      14.719  12.557  34.988  0.00  0.00    +0.000 A 
BRANCH  15  18
ATOM     18  C   UNL     1      14.453  13.228  31.296  0.00  0.00    +0.000 C 
ATOM     19  N   UNL     1      15.392  13.341  30.262  0.00  0.00    +0.000 NA
ATOM     20  O   UNL     1      13.275  13.604  31.084  0.00  0.00    +0.000 OA
ENDBRANCH  15  18
ENDBRANCH   2  12
TORSDOF 4
ENDMDL
MODEL 8
REMARK VINA RESULT:      -6.5     18.645     20.401
REMARK  Name = 
REMARK  4 active torsions:
REMARK  status: ('A' for Active; 'I' for Inactive)
REMARK    1  A    between atoms: C_2  and  C_4
REMARK    2  A    between atoms: C_7  and  C_8
REMARK    3  A    between atoms: N_9  and  C_10
REMARK    4  A    between atoms: C_13  and  C_14
REMARK                            x       y       z     vdW  Elec       q    Type
REMARK                         _______ _______ _______ _____ _____    ______ ____
ROOT
ATOM      1  C   UNL     1      33.229   0.823  33.915  0.00  0.00    +0.000 C 
ATOM      2  N   UNL     1      33.291  -0.109  34.769  0.00  0.00    +0.000 NA
ENDROOT
BRANCH   1   6
ATOM      3  C   UNL     1      34.081   4.843  34.987  0.00  0.00    +0.000 A 
ATOM      4  C   UNL     1      34.292   3.837  35.908  0.00  0.00    +0.000 A 
ATOM      5  C   UNL     1      34.011   2.536  35.547  0.00  0.00    +0.000 A 
ATOM      6  C   UNL     1      33.528   2.195  34.304  0.00  0.00    +0.000 A 
ATOM      7  C   UNL     1      33.328   3.223  33.407  0.00  0.00    +0.000 A 
ATOM      8  C   UNL     1      33.600   4.545  33.735  0.00  0.00    +0.000 A 
BRANCH   3  10
ATOM      9  C   UNL     1      35.824   6.598  35.077  0.00  0.00    +0.000 C 
ATOM     10  C   UNL     1      34.366   6.279  35.314  0.00  0.00    +0.000 C 
ATOM     11  C   UNL     1      34.067   6.452  36.790  0.00  0.00    +0.000 C 
ENDBRANCH   3  10
ENDBRANCH   1   6
BRANCH   2  12
ATOM     12  C   UNL     1      33.031  -1.475  34.538  0.00  0.00    +0.000 A 
ATOM     13  C   UNL     1      33.699  -2.116  33.512  0.00  0.00    +0.000 A 
ATOM     14  C   UNL     1      33.488  -3.459  33.233  0.00  0.00    +0.000 A 
ATOM     15  C   UNL     1      32.599  -4.208  33.972  0.00  0.00    +0.000 A 
ATOM     16  C   UNL     1      31.932  -3.568  34.997  0.00  0.00    +0.000 A 
ATOM     17  C   UNL     1      32.142  -2.231  35.275  0.00  0.00    +0.000 A 
BRANCH  15  18
ATOM     18  C   UNL     1      32.385  -5.624  33.669  0.00  0.00    +0.000 C 
ATOM     19  N   UNL     1      33.330  -6.564  34.099  0.00  0.00    +0.000 NA
ATOM     20  O   UNL     1      31.380  -6.025  33.034  0.00  0.00    +0.000 OA
ENDBRANCH  15  18
ENDBRANCH   2  12
TORSDOF 4
ENDMDL
MODEL 9
REMARK VINA RESULT:      -6.4      3.319      8.983
REMARK  Name = 
REMARK  4 active torsions:
REMARK  status: ('A' for Active; 'I' for Inactive)
REMARK    1  A    between atoms: C_2  and  C_4
REMARK    2  A    between atoms: C_7  and  C_8
REMARK    3  A    between atoms: N_9  and  C_10
REMARK    4  A    between atoms: C_13  and  C_14
REMARK                            x       y       z     vdW  Elec       q    Type
REMARK                         _______ _______ _______ _____ _____    ______ ____
ROOT
ATOM      1  C   UNL     1      16.476  10.478  37.814  0.00  0.00    +0.000 C 
ATOM      2  N   UNL     1      17.160  10.424  36.751  0.00  0.00    +0.000 NA
ENDROOT
BRANCH   1   6
ATOM      3  C   UNL     1      18.146   9.354  41.554  0.00  0.00    +0.000 A 
ATOM      4  C   UNL     1      18.985   9.698  40.514  0.00  0.00    +0.000 A 
ATOM      5  C   UNL     1      18.429  10.061  39.304  0.00  0.00    +0.000 A 
ATOM      6  C   UNL     1      17.070  10.095  39.088  0.00  0.00    +0.000 A 
ATOM      7  C   UNL     1      16.260   9.746  40.149  0.00  0.00    +0.000 A 
ATOM      8  C   UNL     1      16.784   9.375  41.380  0.00  0.00    +0.000 A 
BRANCH   3  10
ATOM      9  C   UNL     1      18.092   7.628  43.327  0.00  0.00    +0.000 C 
ATOM     10  C   UNL     1      18.684   8.950  42.895  0.00  0.00    +0.000 C 
ATOM     11  C   UNL     1      18.248  10.019  43.875  0.00  0.00    +0.000 C 
ENDBRANCH   3  10
ENDBRANCH   1   6
BRANCH   2  12
ATOM     12  C   UNL     1      16.719  10.762  35.455  0.00  0.00    +0.000 A 
ATOM     13  C   UNL     1      17.358  10.198  34.367  0.00  0.00    +0.000 A 
ATOM     14  C   UNL     1      16.973  10.489  33.066  0.00  0.00    +0.000 A 
ATOM     15  C   UNL     1      15.933  11.356  32.809  0.00  0.00    +0.000 A 
ATOM     16  C   UNL     1      15.295  11.918  33.895  0.00  0.00    +0.000 A 
ATOM     17  C   UNL     1      15.678  11.629  35.191  0.00  0.00    +0.000 A 
BRANCH  15  18
ATOM     18  C   UNL     1      15.536  11.655  31.432  0.00  0.00    +0.000 C 
ATOM     19  N   UNL     1      16.199  12.676  30.737  0.00  0.00    +0.000 NA
ATOM     20  O   UNL     1      14.619  11.027  30.850  0.00  0.00    +0.000 OA
ENDBRANCH  15  18
ENDBRANCH   2  12
TORSDOF 4
ENDMDL
MODEL 10
REMARK VINA RESULT:      -6.2     21.879     23.465
REMARK  Name = 
REMARK  4 active torsions:
REMARK  status: ('A' for Active; 'I' for Inactive)
REMARK    1  A    between atoms: C_2  and  C_4
REMARK    2  A    between atoms: C_7  and  C_8
REMARK    3  A    between atoms: N_9  and  C_10
REMARK    4  A    between atoms: C_13  and  C_14
REMARK                            x       y       z     vdW  Elec       q    Type
REMARK                         _______ _______ _______ _____ _____    ______ ____
ROOT
ATOM      1  C   UNL     1      23.569  -8.708  24.536  0.00  0.00    +0.000 C 
ATOM      2  N   UNL     1      22.911  -7.646  24.734  0.00  0.00    +0.000 NA
ENDROOT
BRANCH   1   6
ATOM      3  C   UNL     1      27.327  -8.487  22.570  0.00  0.00    +0.000 A 
ATOM      4  C   UNL     1      26.879  -9.705  23.040  0.00  0.00    +0.000 A 
ATOM      5  C   UNL     1      25.657  -9.762  23.677  0.00  0.00    +0.000 A 
ATOM      6  C   UNL     1      24.861  -8.655  23.865  0.00  0.00    +0.000 A 
ATOM      7  C   UNL     1      25.338  -7.454  23.383  0.00  0.00    +0.000 A 
ATOM      8  C   UNL     1      26.563  -7.358  22.737  0.00  0.00    +0.000 A 
BRANCH   3  10
ATOM      9  C   UNL     1      29.135  -6.926  21.924  0.00  0.00    +0.000 C 
ATOM     10  C   UNL     1      28.647  -8.355  21.869  0.00  0.00    +0.000 C 
ATOM     11  C   UNL     1      28.404  -8.727  20.420  0.00  0.00    +0.000 C 
ENDBRANCH   3  10
ENDBRANCH   1   6
BRANCH   2  12
ATOM     12  C   UNL     1      21.655  -7.546  25.367  0.00  0.00    +0.000 A 
ATOM     13  C   UNL     1      21.166  -8.640  26.055  0.00  0.00    +0.000 A 
ATOM     14  C   UNL     1      19.938  -8.606  26.699  0.00  0.00    +0.000 A 
ATOM     15  C   UNL     1      19.154  -7.473  26.677  0.00  0.00    +0.000 A 
ATOM     16  C   UNL     1      19.641  -6.380  25.991  0.00  0.00    +0.000 A 
ATOM     17  C   UNL     1      20.865  -6.414  25.349  0.00  0.00    +0.000 A 
BRANCH  15  18
ATOM     18  C   UNL     1      17.859  -7.449  27.360  0.00  0.00    +0.000 C 
ATOM     19  N   UNL     1      17.006  -6.355  27.164  0.00  0.00    +0.000 NA
ATOM     20  O   UNL     1      17.487  -8.376  28.118  0.00  0.00    +0.000 OA
ENDBRANCH  15  18
ENDBRANCH   2  12
TORSDOF 4
ENDMDL
