MODEL 1
REMARK VINA RESULT:      -6.0      0.000      0.000
REMARK  Name = 
REMARK  3 active torsions:
REMARK  status: ('A' for Active; 'I' for Inactive)
REMARK    1  A    between atoms: C_2  and  C_4
REMARK    2  A    between atoms: C_8  and  C_9
REMARK    3  A    between atoms: N_11  and  C_12
REMARK                            x       y       z     vdW  Elec       q    Type
REMARK                         _______ _______ _______ _____ _____    ______ ____
ROOT
ATOM      1  C   UNL     1      19.133  -7.207  26.276  0.00  0.00    +0.000 A 
ATOM      2  C   UNL     1      19.501  -5.909  26.106  0.00  0.00    +0.000 A 
ATOM      3  C   UNL     1      18.807  -4.692  26.611  0.00  0.00    +0.000 C 
ATOM      4  N   UNL     1      20.626  -5.857  25.387  0.00  0.00    +0.000 NA
ATOM      5  C   UNL     1      21.028  -7.100  25.067  0.00  0.00    +0.000 A 
ATOM      6  C   UNL     1      20.104  -7.961  25.616  0.00  0.00    +0.000 A 
ATOM      7  C   UNL     1      20.055  -9.445  25.573  0.00  0.00    +0.000 C 
ENDROOT
BRANCH   1   9
ATOM      8  C   UNL     1      16.643  -7.698  26.302  0.00  0.00    +0.000 C 
ATOM      9  C   UNL     1      17.961  -7.676  27.004  0.00  0.00    +0.000 C 
ATOM     10  O   UNL     1      17.997  -8.064  28.195  0.00  0.00    +0.000 OA
ENDBRANCH   1   9
BRANCH   5  11
ATOM     11  C   UNL     1      22.203  -7.502  24.293  0.00  0.00    +0.000 C 
ATOM     12  O   UNL     1      22.080  -7.842  23.092  0.00  0.00    +0.000 OA
ATOM     13  N   UNL     1      23.512  -7.529  24.846  0.00  0.00    +0.000 NA
BRANCH  13  14
ATOM     14  C   UNL     1      24.631  -7.926  24.060  0.00  0.00    +0.000 A 
ATOM     15  C   UNL     1      25.361  -6.963  23.393  0.00  0.00    +0.000 A 
ATOM     16  C   UNL     1      26.466  -7.297  22.612  0.00  0.00    +0.000 A 
ATOM     17  C   UNL     1      26.872  -8.607  22.475  0.00  0.00    +0.000 A 
ATOM     18 CL   UNL     1      28.267  -9.043  21.491  0.00  0.00    +0.000 Cl
ATOM     19  C   UNL     1      26.135  -9.560  23.147  0.00  0.00    +0.000 A 
ATOM     20  C   UNL     1      25.037  -9.238  23.924  0.00  0.00    +0.000 A 
ENDBRANCH  13  14
ENDBRANCH   5  11
TORSDOF 3
ENDMDL
MODEL 2
REMARK VINA RESULT:      -5.9     31.466     32.451
REMARK  Name = 
REMARK  3 active torsions:
REMARK  status: ('A' for Active; 'I' for Inactive)
REMARK    1  A    between atoms: C_2  and  C_4
REMARK    2  A    between atoms: C_8  and  C_9
REMARK    3  A    between atoms: N_11  and  C_12
REMARK                            x       y       z     vdW  Elec       q    Type
REMARK                         _______ _______ _______ _____ _____    ______ ____
ROOT
ATOM      1  C   UNL     1      28.995  24.121  23.209  0.00  0.00    +0.000 A 
ATOM      2  C   UNL     1      27.754  23.660  23.517  0.00  0.00    +0.000 A 
ATOM      3  C   UNL     1      26.523  23.725  22.682  0.00  0.00    +0.000 C 
ATOM      4  N   UNL     1      27.777  23.108  24.735  0.00  0.00    +0.000 NA
ATOM      5  C   UNL     1      29.014  23.187  25.255  0.00  0.00    +0.000 A 
ATOM      6  C   UNL     1      29.793  23.820  24.312  0.00  0.00    +0.000 A 
ATOM      7  C   UNL     1      31.235  24.170  24.361  0.00  0.00    +0.000 C 
ENDROOT
BRANCH   1   9
ATOM      8  C   UNL     1      29.342  26.279  21.918  0.00  0.00    +0.000 C 
ATOM      9  C   UNL     1      29.376  24.787  21.969  0.00  0.00    +0.000 C 
ATOM     10  O   UNL     1      29.732  24.173  20.936  0.00  0.00    +0.000 OA
ENDBRANCH   1   9
BRANCH   5  11
ATOM     11  C   UNL     1      29.481  22.712  26.558  0.00  0.00    +0.000 C 
ATOM     12  O   UNL     1      29.854  21.522  26.698  0.00  0.00    +0.000 OA
ATOM     13  N   UNL     1      29.534  23.549  27.705  0.00  0.00    +0.000 NA
BRANCH  13  14
ATOM     14  C   UNL     1      29.996  23.049  28.956  0.00  0.00    +0.000 A 
ATOM     15  C   UNL     1      29.083  22.805  29.962  0.00  0.00    +0.000 A 
ATOM     16  C   UNL     1      29.481  22.315  31.204  0.00  0.00    +0.000 A 
ATOM     17  C   UNL     1      30.807  22.055  31.476  0.00  0.00    +0.000 A 
ATOM     18 CL   UNL     1      31.324  21.435  33.042  0.00  0.00    +0.000 Cl
ATOM     19  C   UNL     1      31.709  22.303  30.463  0.00  0.00    +0.000 A 
ATOM     20  C   UNL     1      31.323  22.789  29.227  0.00  0.00    +0.000 A 
ENDBRANCH  13  14
ENDBRANCH   5  11
TORSDOF 3
ENDMDL
MODEL 3
REMARK VINA RESULT:      -5.7     21.371     23.099
REMARK  Name = 
REMARK  3 active torsions:
REMARK  status: ('A' for Active; 'I' for Inactive)
REMARK    1  A    between atoms: C_2  and  C_4
REMARK    2  A    between atoms: C_8  and  C_9
REMARK    3  A    between atoms: N_11  and  C_12
REMARK                            x       y       z     vdW  Elec       q    Type
REMARK                         _______ _______ _______ _____ _____    ______ ____
ROOT
ATOM      1  C   UNL     1      18.462   9.368  40.655  0.00  0.00    +0.000 A 
ATOM      2  C   UNL     1      17.120   9.485  40.835  0.00  0.00    +0.000 A 
ATOM      3  C   UNL     1      16.331   9.154  42.054  0.00  0.00    +0.000 C 
ATOM      4  N   UNL     1      16.563   9.961  39.718  0.00  0.00    +0.000 NA
ATOM      5  C   UNL     1      17.507  10.169  38.783  0.00  0.00    +0.000 A 
ATOM      6  C   UNL     1      18.706   9.802  39.353  0.00  0.00    +0.000 A 
ATOM      7  C   UNL     1      20.072   9.826  38.771  0.00  0.00    +0.000 C 
ENDROOT
BRANCH   1   9
ATOM      8  C   UNL     1      20.003   9.859  42.613  0.00  0.00    +0.000 C 
ATOM      9  C   UNL     1      19.418   8.884  41.643  0.00  0.00    +0.000 C 
ATOM     10  O   UNL     1      19.781   7.687  41.726  0.00  0.00    +0.000 OA
ENDBRANCH   1   9
BRANCH   5  11
ATOM     11  C   UNL     1      17.338  10.680  37.422  0.00  0.00    +0.000 C 
ATOM     12  O   UNL     1      17.798  11.804  37.109  0.00  0.00    +0.000 OA
ATOM     13  N   UNL     1      16.659   9.950  36.409  0.00  0.00    +0.000 NA
BRANCH  13  14
ATOM     14  C   UNL     1      16.515  10.481  35.095  0.00  0.00    +0.000 A 
ATOM     15  C   UNL     1      15.539  11.426  34.854  0.00  0.00    +0.000 A 
ATOM     16  C   UNL     1      15.356  11.978  33.587  0.00  0.00    +0.000 A 
ATOM     17  C   UNL     1      16.147  11.599  32.524  0.00  0.00    +0.000 A 
ATOM     18 CL   UNL     1      15.928  12.289  30.918  0.00  0.00    +0.000 Cl
ATOM     19  C   UNL     1      17.119  10.654  32.778  0.00  0.00    +0.000 A 
ATOM     20  C   UNL     1      17.307  10.100  34.032  0.00  0.00    +0.000 A 
ENDBRANCH  13  14
ENDBRANCH   5  11
TORSDOF 3
ENDMDL
MODEL 4
REMARK VINA RESULT:      -5.6     31.017     31.802
REMARK  Name = 
REMARK  3 active torsions:
REMARK  status: ('A' for Active; 'I' for Inactive)
REMARK    1  A    between atoms: C_2  and  C_4
REMARK    2  A    between atoms: C_8  and  C_9
REMARK    3  A    between atoms: N_11  and  C_12
REMARK                            x       y       z     vdW  Elec       q    Type
REMARK                         _______ _______ _______ _____ _____    ______ ____
ROOT
ATOM      1  C   UNL     1      28.421  23.259  24.493  0.00  0.00    +0.000 A 
ATOM      2  C   UNL     1      27.453  22.966  25.402  0.00  0.00    +0.000 A 
ATOM      3  C   UNL     1      25.980  23.111  25.243  0.00  0.00    +0.000 C 
ATOM      4  N   UNL     1      28.021  22.504  26.520  0.00  0.00    +0.000 NA
ATOM      5  C   UNL     1      29.358  22.480  26.384  0.00  0.00    +0.000 A 
ATOM      6  C   UNL     1      29.629  22.950  25.118  0.00  0.00    +0.000 A 
ATOM      7  C   UNL     1      30.937  23.135  24.441  0.00  0.00    +0.000 C 
ENDROOT
BRANCH   1   9
ATOM      8  C   UNL     1      28.335  25.257  22.929  0.00  0.00    +0.000 C 
ATOM      9  C   UNL     1      28.203  23.786  23.152  0.00  0.00    +0.000 C 
ATOM     10  O   UNL     1      27.909  23.068  22.167  0.00  0.00    +0.000 OA
ENDBRANCH   1   9
BRANCH   5  11
ATOM     11  C   UNL     1      30.361  22.049  27.360  0.00  0.00    +0.000 C 
ATOM     12  O   UNL     1      30.914  20.930  27.241  0.00  0.00    +0.000 OA
ATOM     13  N   UNL     1      30.749  22.853  28.465  0.00  0.00    +0.000 NA
BRANCH  13  14
ATOM     14  C   UNL     1      31.729  22.400  29.392  0.00  0.00    +0.000 A 
ATOM     15  C   UNL     1      31.320  21.850  30.590  0.00  0.00    +0.000 A 
ATOM     16  C   UNL     1      32.237  21.390  31.533  0.00  0.00    +0.000 A 
ATOM     17  C   UNL     1      33.594  21.466  31.303  0.00  0.00    +0.000 A 
ATOM     18 CL   UNL     1      34.765  20.888  32.485  0.00  0.00    +0.000 Cl
ATOM     19  C   UNL     1      33.991  22.017  30.102  0.00  0.00    +0.000 A 
ATOM     20  C   UNL     1      33.087  22.477  29.161  0.00  0.00    +0.000 A 
ENDBRANCH  13  14
ENDBRANCH   5  11
TORSDOF 3
ENDMDL
MODEL 5
REMARK VINA RESULT:      -5.5     31.315     32.145
REMARK  Name = 
REMARK  3 active torsions:
REMARK  status: ('A' for Active; 'I' for Inactive)
REMARK    1  A    between atoms: C_2  and  C_4
REMARK    2  A    between atoms: C_8  and  C_9
REMARK    3  A    between atoms: N_11  and  C_12
REMARK                            x       y       z     vdW  Elec       q    Type
REMARK                         _______ _______ _______ _____ _____    ______ ____
ROOT
ATOM      1  C   UNL     1      32.736  21.749  31.477  0.00  0.00    +0.000 A 
ATOM      2  C   UNL     1      31.446  21.719  31.905  0.00  0.00    +0.000 A 
ATOM      3  C   UNL     1      30.942  21.332  33.251  0.00  0.00    +0.000 C 
ATOM      4  N   UNL     1      30.640  22.100  30.910  0.00  0.00    +0.000 NA
ATOM      5  C   UNL     1      31.363  22.389  29.814  0.00  0.00    +0.000 A 
ATOM      6  C   UNL     1      32.682  22.175  30.150  0.00  0.00    +0.000 A 
ATOM      7  C   UNL     1      33.904  22.338  29.323  0.00  0.00    +0.000 C 
ENDROOT
BRANCH   1   9
ATOM      8  C   UNL     1      34.447  22.409  33.233  0.00  0.00    +0.000 C 
ATOM      9  C   UNL     1      33.909  21.402  32.270  0.00  0.00    +0.000 C 
ATOM     10  O   UNL     1      34.495  20.297  32.189  0.00  0.00    +0.000 OA
ENDBRANCH   1   9
BRANCH   5  11
ATOM     11  C   UNL     1      30.886  22.843  28.506  0.00  0.00    +0.000 C 
ATOM     12  O   UNL     1      30.811  24.069  28.254  0.00  0.00    +0.000 OA
ATOM     13  N   UNL     1      30.491  21.942  27.481  0.00  0.00    +0.000 NA
BRANCH  13  14
ATOM     14  C   UNL     1      30.033  22.422  26.221  0.00  0.00    +0.000 A 
ATOM     15  C   UNL     1      28.677  22.560  26.006  0.00  0.00    +0.000 A 
ATOM     16  C   UNL     1      28.175  23.025  24.792  0.00  0.00    +0.000 A 
ATOM     17  C   UNL     1      29.018  23.367  23.757  0.00  0.00    +0.000 A 
ATOM     18 CL   UNL     1      28.397  23.958  22.217  0.00  0.00    +0.000 Cl
ATOM     19  C   UNL     1      30.371  23.226  23.984  0.00  0.00    +0.000 A 
ATOM     20  C   UNL     1      30.878  22.763  25.186  0.00  0.00    +0.000 A 
ENDBRANCH  13  14
ENDBRANCH   5  11
TORSDOF 3
ENDMDL
MODEL 6
REMARK VINA RESULT:      -5.5     32.871     34.403
REMARK  Name = 
REMARK  3 active torsions:
REMARK  status: ('A' for Active; 'I' for Inactive)
REMARK    1  A    between atoms: C_2  and  C_4
REMARK    2  A    between atoms: C_8  and  C_9
REMARK    3  A    between atoms: N_11  and  C_12
REMARK                            x       y       z     vdW  Elec       q    Type
REMARK                         _______ _______ _______ _____ _____    ______ ____
ROOT
ATOM      1  C   UNL     1      28.708  23.737  24.744  0.00  0.00    +0.000 A 
ATOM      2  C   UNL     1      30.014  23.421  24.541  0.00  0.00    +0.000 A 
ATOM      3  C   UNL     1      30.910  22.634  25.434  0.00  0.00    +0.000 C 
ATOM      4  N   UNL     1      30.419  23.933  23.376  0.00  0.00    +0.000 NA
ATOM      5  C   UNL     1      29.407  24.592  22.784  0.00  0.00    +0.000 A 
ATOM      6  C   UNL     1      28.324  24.480  23.628  0.00  0.00    +0.000 A 
ATOM      7  C   UNL     1      26.948  25.017  23.472  0.00  0.00    +0.000 C 
ENDROOT
BRANCH   1   9
ATOM      8  C   UNL     1      27.816  24.309  27.051  0.00  0.00    +0.000 C 
ATOM      9  C   UNL     1      27.906  23.360  25.901  0.00  0.00    +0.000 C 
ATOM     10  O   UNL     1      27.283  22.276  25.986  0.00  0.00    +0.000 OA
ENDBRANCH   1   9
BRANCH   5  11
ATOM     11  C   UNL     1      29.412  25.299  21.502  0.00  0.00    +0.000 C 
ATOM     12  O   UNL     1      29.561  24.663  20.432  0.00  0.00    +0.000 OA
ATOM     13  N   UNL     1      29.256  26.708  21.405  0.00  0.00    +0.000 NA
BRANCH  13  14
ATOM     14  C   UNL     1      29.266  27.361  20.140  0.00  0.00    +0.000 A 
ATOM     15  C   UNL     1      28.151  28.067  19.737  0.00  0.00    +0.000 A 
ATOM     16  C   UNL     1      28.108  28.725  18.509  0.00  0.00    +0.000 A 
ATOM     17  C   UNL     1      29.183  28.695  17.648  0.00  0.00    +0.000 A 
ATOM     18 CL   UNL     1      29.144  29.522  16.093  0.00  0.00    +0.000 Cl
ATOM     19  C   UNL     1      30.292  27.987  18.061  0.00  0.00    +0.000 A 
ATOM     20  C   UNL     1      30.343  27.330  19.278  0.00  0.00    +0.000 A 
ENDBRANCH  13  14
ENDBRANCH   5  11
TORSDOF 3
ENDMDL
MODEL 7
REMARK VINA RESULT:      -5.4      5.492      9.411
REMARK  Name = 
REMARK  3 active torsions:
REMARK  status: ('A' for Active; 'I' for Inactive)
REMARK    1  A    between atoms: C_2  and  C_4
REMARK    2  A    between atoms: C_8  and  C_9
REMARK    3  A    between atoms: N_11  and  C_12
REMARK                            x       y       z     vdW  Elec       q    Type
REMARK                         _______ _______ _______ _____ _____    ______ ____
ROOT
ATOM      1  C   UNL     1      19.332  -7.443  25.878  0.00  0.00    +0.000 A 
ATOM      2  C   UNL     1      18.682  -6.312  26.261  0.00  0.00    +0.000 A 
ATOM      3  C   UNL     1      19.275  -4.982  26.575  0.00  0.00    +0.000 C 
ATOM      4  N   UNL     1      17.370  -6.555  26.326  0.00  0.00    +0.000 NA
ATOM      5  C   UNL     1      17.119  -7.832  25.992  0.00  0.00    +0.000 A 
ATOM      6  C   UNL     1      18.338  -8.407  25.707  0.00  0.00    +0.000 A 
ATOM      7  C   UNL     1      18.651  -9.796  25.285  0.00  0.00    +0.000 C 
ENDROOT
BRANCH   1   9
ATOM      8  C   UNL     1      21.466  -6.651  24.753  0.00  0.00    +0.000 C 
ATOM      9  C   UNL     1      20.771  -7.581  25.693  0.00  0.00    +0.000 C 
ATOM     10  O   UNL     1      21.463  -8.444  26.283  0.00  0.00    +0.000 OA
ENDBRANCH   1   9
BRANCH   5  11
ATOM     11  C   UNL     1      15.826  -8.517  25.931  0.00  0.00    +0.000 C 
ATOM     12  O   UNL     1      15.582  -9.472  26.707  0.00  0.00    +0.000 OA
ATOM     13  N   UNL     1      14.807  -8.147  25.013  0.00  0.00    +0.000 NA
BRANCH  13  14
ATOM     14  C   UNL     1      13.562  -8.837  24.984  0.00  0.00    +0.000 A 
ATOM     15  C   UNL     1      12.534  -8.407  25.799  0.00  0.00    +0.000 A 
ATOM     16  C   UNL     1      11.295  -9.046  25.809  0.00  0.00    +0.000 A 
ATOM     17  C   UNL     1      11.050 -10.136  25.002  0.00  0.00    +0.000 A 
ATOM     18 CL   UNL     1       9.489 -10.953  25.004  0.00  0.00    +0.000 Cl
ATOM     19  C   UNL     1      12.084 -10.556  24.192  0.00  0.00    +0.000 A 
ATOM     20  C   UNL     1      13.317  -9.929  24.176  0.00  0.00    +0.000 A 
ENDBRANCH  13  14
ENDBRANCH   5  11
TORSDOF 3
ENDMDL
MODEL 8
REMARK VINA RESULT:      -5.4     33.476     35.143
REMARK  Name = 
REMARK  3 active torsions:
REMARK  status: ('A' for Active; 'I' for Inactive)
REMARK    1  A    between atoms: C_2  and  C_4
REMARK    2  A    between atoms: C_8  and  C_9
REMARK    3  A    between atoms: N_11  and  C_12
REMARK                            x       y       z     vdW  Elec       q    Type
REMARK                         _______ _______ _______ _____ _____    ______ ____
ROOT
ATOM      1  C   UNL     1      28.780  28.223  19.068  0.00  0.00    +0.000 A 
ATOM      2  C   UNL     1      29.869  27.662  18.478  0.00  0.00    +0.000 A 
ATOM      3  C   UNL     1      30.540  28.082  17.217  0.00  0.00    +0.000 C 
ATOM      4  N   UNL     1      30.286  26.626  19.212  0.00  0.00    +0.000 NA
ATOM      5  C   UNL     1      29.498  26.477  20.291  0.00  0.00    +0.000 A 
ATOM      6  C   UNL     1      28.547  27.470  20.219  0.00  0.00    +0.000 A 
ATOM      7  C   UNL     1      27.427  27.773  21.146  0.00  0.00    +0.000 C 
ENDROOT
BRANCH   1   9
ATOM      8  C   UNL     1      28.472  30.742  18.988  0.00  0.00    +0.000 C 
ATOM      9  C   UNL     1      28.037  29.375  18.572  0.00  0.00    +0.000 C 
ATOM     10  O   UNL     1      27.046  29.282  17.811  0.00  0.00    +0.000 OA
ENDBRANCH   1   9
BRANCH   5  11
ATOM     11  C   UNL     1      29.595  25.474  21.353  0.00  0.00    +0.000 C 
ATOM     12  O   UNL     1      29.645  24.254  21.064  0.00  0.00    +0.000 OA
ATOM     13  N   UNL     1      29.635  25.819  22.731  0.00  0.00    +0.000 NA
BRANCH  13  14
ATOM     14  C   UNL     1      29.730  24.814  23.735  0.00  0.00    +0.000 A 
ATOM     15  C   UNL     1      30.977  24.393  24.151  0.00  0.00    +0.000 A 
ATOM     16  C   UNL     1      31.126  23.413  25.131  0.00  0.00    +0.000 A 
ATOM     17  C   UNL     1      30.030  22.826  25.724  0.00  0.00    +0.000 A 
ATOM     18 CL   UNL     1      30.203  21.587  26.964  0.00  0.00    +0.000 Cl
ATOM     19  C   UNL     1      28.789  23.255  25.300  0.00  0.00    +0.000 A 
ATOM     20  C   UNL     1      28.631  24.227  24.328  0.00  0.00    +0.000 A 
ENDBRANCH  13  14
ENDBRANCH   5  11
TORSDOF 3
ENDMDL
MODEL 9
REMARK VINA RESULT:      -5.3     35.207     36.648
REMARK  Name = 
REMARK  3 active torsions:
REMARK  status: ('A' for Active; 'I' for Inactive)
REMARK    1  A    between atoms: C_2  and  C_4
REMARK    2  A    between atoms: C_8  and  C_9
REMARK    3  A    between atoms: N_11  and  C_12
REMARK                            x       y       z     vdW  Elec       q    Type
REMARK                         _______ _______ _______ _____ _____    ______ ____
ROOT
ATOM      1  C   UNL     1      29.051  26.304  22.390  0.00  0.00    +0.000 A 
ATOM      2  C   UNL     1      29.233  25.092  21.801  0.00  0.00    +0.000 A 
ATOM      3  C   UNL     1      29.094  23.746  22.424  0.00  0.00    +0.000 C 
ATOM      4  N   UNL     1      29.572  25.267  20.520  0.00  0.00    +0.000 NA
ATOM      5  C   UNL     1      29.622  26.579  20.231  0.00  0.00    +0.000 A 
ATOM      6  C   UNL     1      29.298  27.246  21.392  0.00  0.00    +0.000 A 
ATOM      7  C   UNL     1      29.201  28.707  21.645  0.00  0.00    +0.000 C 
ENDROOT
BRANCH   1   9
ATOM      8  C   UNL     1      27.225  26.627  24.123  0.00  0.00    +0.000 C 
ATOM      9  C   UNL     1      28.676  26.532  23.779  0.00  0.00    +0.000 C 
ATOM     10  O   UNL     1      29.507  26.653  24.709  0.00  0.00    +0.000 OA
ENDBRANCH   1   9
BRANCH   5  11
ATOM     11  C   UNL     1      29.951  27.214  18.954  0.00  0.00    +0.000 C 
ATOM     12  O   UNL     1      31.103  27.099  18.471  0.00  0.00    +0.000 OA
ATOM     13  N   UNL     1      29.008  27.977  18.213  0.00  0.00    +0.000 NA
BRANCH  13  14
ATOM     14  C   UNL     1      29.366  28.580  16.973  0.00  0.00    +0.000 A 
ATOM     15  C   UNL     1      29.757  29.903  16.956  0.00  0.00    +0.000 A 
ATOM     16  C   UNL     1      30.118  30.541  15.770  0.00  0.00    +0.000 A 
ATOM     17  C   UNL     1      30.098  29.870  14.566  0.00  0.00    +0.000 A 
ATOM     18 CL   UNL     1      30.552  30.664  13.060  0.00  0.00    +0.000 Cl
ATOM     19  C   UNL     1      29.707  28.549  14.596  0.00  0.00    +0.000 A 
ATOM     20  C   UNL     1      29.346  27.907  15.768  0.00  0.00    +0.000 A 
ENDBRANCH  13  14
ENDBRANCH   5  11
TORSDOF 3
ENDMDL
MODEL 10
REMARK VINA RESULT:      -5.2     20.953     22.629
REMARK  Name = 
REMARK  3 active torsions:
REMARK  status: ('A' for Active; 'I' for Inactive)
REMARK    1  A    between atoms: C_2  and  C_4
REMARK    2  A    between atoms: C_8  and  C_9
REMARK    3  A    between atoms: N_11  and  C_12
REMARK                            x       y       z     vdW  Elec       q    Type
REMARK                         _______ _______ _______ _____ _____    ______ ____
ROOT
ATOM      1  C   UNL     1      18.243  10.756  37.015  0.00  0.00    +0.000 A 
ATOM      2  C   UNL     1      18.595   9.721  36.207  0.00  0.00    +0.000 A 
ATOM      3  C   UNL     1      17.728   8.970  35.259  0.00  0.00    +0.000 C 
ATOM      4  N   UNL     1      19.892   9.445  36.380  0.00  0.00    +0.000 NA
ATOM      5  C   UNL     1      20.424  10.277  37.292  0.00  0.00    +0.000 A 
ATOM      6  C   UNL     1      19.405  11.108  37.703  0.00  0.00    +0.000 A 
ATOM      7  C   UNL     1      19.431  12.212  38.695  0.00  0.00    +0.000 C 
ENDROOT
BRANCH   1   9
ATOM      8  C   UNL     1      16.624  12.590  36.337  0.00  0.00    +0.000 C 
ATOM      9  C   UNL     1      16.916  11.349  37.116  0.00  0.00    +0.000 C 
ATOM     10  O   UNL     1      15.998  10.873  37.824  0.00  0.00    +0.000 OA
ENDBRANCH   1   9
BRANCH   5  11
ATOM     11  C   UNL     1      21.803  10.325  37.780  0.00  0.00    +0.000 C 
ATOM     12  O   UNL     1      22.095   9.824  38.892  0.00  0.00    +0.000 OA
ATOM     13  N   UNL     1      22.857  10.927  37.040  0.00  0.00    +0.000 NA
BRANCH  13  14
ATOM     14  C   UNL     1      24.187  10.953  37.548  0.00  0.00    +0.000 A 
ATOM     15  C   UNL     1      25.055   9.934  37.215  0.00  0.00    +0.000 A 
ATOM     16  C   UNL     1      26.367   9.912  37.685  0.00  0.00    +0.000 A 
ATOM     17  C   UNL     1      26.848  10.912  38.502  0.00  0.00    +0.000 A 
ATOM     18 CL   UNL     1      28.505  10.897  39.103  0.00  0.00    +0.000 Cl
ATOM     19  C   UNL     1      25.971  11.925  38.828  0.00  0.00    +0.000 A 
ATOM     20  C   UNL     1      24.667  11.955  38.367  0.00  0.00    +0.000 A 
ENDBRANCH  13  14
ENDBRANCH   5  11
TORSDOF 3
ENDMDL
