MODEL 1
REMARK VINA RESULT:      -8.4      0.000      0.000
REMARK  Name = 
REMARK  6 active torsions:
REMARK  status: ('A' for Active; 'I' for Inactive)
REMARK    1  A    between atoms: C_2  and  C_3
REMARK    2  A    between atoms: C_3  and  C_5
REMARK    3  A    between atoms: C_8  and  N_9
REMARK    4  A    between atoms: C_16  and  C_17
REMARK    5  A    between atoms: N_21  and  C_22
REMARK    6  A    between atoms: C_22  and  C_23
REMARK                            x       y       z     vdW  Elec       q    Type
REMARK                         _______ _______ _______ _____ _____    ______ ____
ROOT
ATOM      1  N   UNL     1      36.847   3.063  15.865  0.00  0.00    +0.000 N 
ATOM      2  C   UNL     1      36.808   3.794  14.654  0.00  0.00    +0.000 C 
ATOM      3  O   UNL     1      36.280   3.171  13.671  0.00  0.00    +0.000 OA
ATOM      4  N   UNL     1      37.297   5.102  14.487  0.00  0.00    +0.000 NA
ATOM      5  C   UNL     1      37.830   5.714  15.503  0.00  0.00    +0.000 C 
ATOM      6  O   UNL     1      38.320   7.017  15.342  0.00  0.00    +0.000 OA
ATOM      7  C   UNL     1      37.960   5.136  16.826  0.00  0.00    +0.000 C 
ATOM      8  C   UNL     1      38.451   5.733  17.879  0.00  0.00    +0.000 C 
ATOM      9  C   UNL     1      37.428   3.745  16.953  0.00  0.00    +0.000 C 
ATOM     10  O   UNL     1      37.522   3.212  18.074  0.00  0.00    +0.000 OA
ENDROOT
BRANCH   1  14
ATOM     11  C   UNL     1      35.432  -0.916  16.418  0.00  0.00    +0.000 A 
ATOM     12  C   UNL     1      34.725   0.131  16.886  0.00  0.00    +0.000 A 
ATOM     13  C   UNL     1      35.191   1.422  16.702  0.00  0.00    +0.000 A 
ATOM     14  C   UNL     1      36.360   1.736  16.056  0.00  0.00    +0.000 A 
ATOM     15  C   UNL     1      37.039   0.627  15.599  0.00  0.00    +0.000 A 
ATOM     16  C   UNL     1      36.607  -0.672  15.763  0.00  0.00    +0.000 A 
BRANCH  11  17
ATOM     17  C   UNL     1      34.939  -2.400  16.614  0.00  0.00    +0.000 C 
ATOM     18  C   UNL     1      36.241  -3.027  17.345  0.00  0.00    +0.000 C 
BRANCH  17  20
ATOM     19  C   UNL     1      34.374  -3.977  14.887  0.00  0.00    +0.000 C 
ATOM     20  C   UNL     1      35.422  -2.905  15.120  0.00  0.00    +0.000 C 
ENDBRANCH  17  20
ENDBRANCH  11  17
ENDBRANCH   1  14
BRANCH   8  21
ATOM     21  C   UNL     1      38.926   7.087  17.846  0.00  0.00    +0.000 A 
ATOM     22  C   UNL     1      38.146   8.236  18.034  0.00  0.00    +0.000 A 
ATOM     23  C   UNL     1      38.930   9.359  17.933  0.00  0.00    +0.000 A 
ATOM     24  C   UNL     1      40.193   8.869  17.683  0.00  0.00    +0.000 A 
ATOM     25  N   UNL     1      40.179   7.537  17.634  0.00  0.00    +0.000 N 
BRANCH  25  26
ATOM     26  C   UNL     1      41.295   6.673  17.393  0.00  0.00    +0.000 C 
BRANCH  26  27
ATOM     27  C   UNL     1      42.278   6.635  18.506  0.00  0.00    +0.000 A 
ATOM     28  C   UNL     1      41.872   6.370  19.787  0.00  0.00    +0.000 A 
ATOM     29  C   UNL     1      42.722   6.312  20.859  0.00  0.00    +0.000 A 
ATOM     30  C   UNL     1      44.068   6.536  20.636  0.00  0.00    +0.000 A 
ATOM     31  C   UNL     1      44.486   6.805  19.350  0.00  0.00    +0.000 A 
ATOM     32  C   UNL     1      43.616   6.856  18.289  0.00  0.00    +0.000 A 
ATOM     33  C   UNL     1      44.125   7.157  16.904  0.00  0.00    +0.000 C 
ENDBRANCH  26  27
ENDBRANCH  25  26
ENDBRANCH   8  21
TORSDOF 6
ENDMDL
MODEL 2
REMARK VINA RESULT:      -8.3      2.001      2.939
REMARK  Name = 
REMARK  6 active torsions:
REMARK  status: ('A' for Active; 'I' for Inactive)
REMARK    1  A    between atoms: C_2  and  C_3
REMARK    2  A    between atoms: C_3  and  C_5
REMARK    3  A    between atoms: C_8  and  N_9
REMARK    4  A    between atoms: C_16  and  C_17
REMARK    5  A    between atoms: N_21  and  C_22
REMARK    6  A    between atoms: C_22  and  C_23
REMARK                            x       y       z     vdW  Elec       q    Type
REMARK                         _______ _______ _______ _____ _____    ______ ____
ROOT
ATOM      1  N   UNL     1      37.972   4.960  16.252  0.00  0.00    +0.000 N 
ATOM      2  C   UNL     1      37.660   6.122  15.508  0.00  0.00    +0.000 C 
ATOM      3  O   UNL     1      37.236   5.900  14.323  0.00  0.00    +0.000 OA
ATOM      4  N   UNL     1      37.790   7.441  15.980  0.00  0.00    +0.000 NA
ATOM      5  C   UNL     1      38.225   7.640  17.189  0.00  0.00    +0.000 C 
ATOM      6  O   UNL     1      38.358   8.952  17.665  0.00  0.00    +0.000 OA
ATOM      7  C   UNL     1      38.594   6.582  18.108  0.00  0.00    +0.000 C 
ATOM      8  C   UNL     1      38.995   6.741  19.341  0.00  0.00    +0.000 C 
ATOM      9  C   UNL     1      38.441   5.199  17.560  0.00  0.00    +0.000 C 
ATOM     10  O   UNL     1      38.749   4.261  18.317  0.00  0.00    +0.000 OA
ENDROOT
BRANCH   1  14
ATOM     11  C   UNL     1      37.565   0.944  14.893  0.00  0.00    +0.000 A 
ATOM     12  C   UNL     1      38.678   1.650  14.613  0.00  0.00    +0.000 A 
ATOM     13  C   UNL     1      38.803   2.955  15.058  0.00  0.00    +0.000 A 
ATOM     14  C   UNL     1      37.851   3.615  15.792  0.00  0.00    +0.000 A 
ATOM     15  C   UNL     1      36.736   2.845  16.048  0.00  0.00    +0.000 A 
ATOM     16  C   UNL     1      36.576   1.544  15.621  0.00  0.00    +0.000 A 
BRANCH  11  17
ATOM     17  C   UNL     1      37.381  -0.540  14.397  0.00  0.00    +0.000 C 
ATOM     18  C   UNL     1      36.490  -1.127  15.614  0.00  0.00    +0.000 C 
BRANCH  17  20
ATOM     19  C   UNL     1      38.243  -1.693  16.326  0.00  0.00    +0.000 C 
ATOM     20  C   UNL     1      38.795  -1.081  15.052  0.00  0.00    +0.000 C 
ENDBRANCH  17  20
ENDBRANCH  11  17
ENDBRANCH   1  14
BRANCH   8  21
ATOM     21  C   UNL     1      39.110   8.035  19.953  0.00  0.00    +0.000 A 
ATOM     22  C   UNL     1      38.087   8.720  20.622  0.00  0.00    +0.000 A 
ATOM     23  C   UNL     1      38.550   9.929  21.078  0.00  0.00    +0.000 A 
ATOM     24  C   UNL     1      39.867   9.960  20.675  0.00  0.00    +0.000 A 
ATOM     25  N   UNL     1      40.184   8.846  20.016  0.00  0.00    +0.000 N 
BRANCH  25  26
ATOM     26  C   UNL     1      41.454   8.516  19.444  0.00  0.00    +0.000 C 
BRANCH  26  27
ATOM     27  C   UNL     1      42.391   7.861  20.393  0.00  0.00    +0.000 A 
ATOM     28  C   UNL     1      42.351   6.507  20.589  0.00  0.00    +0.000 A 
ATOM     29  C   UNL     1      43.187   5.836  21.443  0.00  0.00    +0.000 A 
ATOM     30  C   UNL     1      44.124   6.570  22.147  0.00  0.00    +0.000 A 
ATOM     31  C   UNL     1      44.171   7.934  21.956  0.00  0.00    +0.000 A 
ATOM     32  C   UNL     1      43.323   8.586  21.094  0.00  0.00    +0.000 A 
ATOM     33  C   UNL     1      43.415  10.080  20.926  0.00  0.00    +0.000 C 
ENDBRANCH  26  27
ENDBRANCH  25  26
ENDBRANCH   8  21
TORSDOF 6
ENDMDL
MODEL 3
REMARK VINA RESULT:      -8.1      2.002      3.230
REMARK  Name = 
REMARK  6 active torsions:
REMARK  status: ('A' for Active; 'I' for Inactive)
REMARK    1  A    between atoms: C_2  and  C_3
REMARK    2  A    between atoms: C_3  and  C_5
REMARK    3  A    between atoms: C_8  and  N_9
REMARK    4  A    between atoms: C_16  and  C_17
REMARK    5  A    between atoms: N_21  and  C_22
REMARK    6  A    between atoms: C_22  and  C_23
REMARK                            x       y       z     vdW  Elec       q    Type
REMARK                         _______ _______ _______ _____ _____    ______ ____
ROOT
ATOM      1  N   UNL     1      36.362   1.666  15.543  0.00  0.00    +0.000 N 
ATOM      2  C   UNL     1      35.376   2.680  15.545  0.00  0.00    +0.000 C 
ATOM      3  O   UNL     1      34.175   2.257  15.655  0.00  0.00    +0.000 OA
ATOM      4  N   UNL     1      35.636   4.058  15.434  0.00  0.00    +0.000 NA
ATOM      5  C   UNL     1      36.867   4.463  15.322  0.00  0.00    +0.000 C 
ATOM      6  O   UNL     1      37.132   5.834  15.209  0.00  0.00    +0.000 OA
ATOM      7  C   UNL     1      38.017   3.581  15.303  0.00  0.00    +0.000 C 
ATOM      8  C   UNL     1      39.267   3.952  15.233  0.00  0.00    +0.000 C 
ATOM      9  C   UNL     1      37.689   2.127  15.421  0.00  0.00    +0.000 C 
ATOM     10  O   UNL     1      38.649   1.335  15.407  0.00  0.00    +0.000 OA
ENDROOT
BRANCH   1  14
ATOM     11  C   UNL     1      35.615  -2.512  15.906  0.00  0.00    +0.000 A 
ATOM     12  C   UNL     1      36.198  -2.016  14.796  0.00  0.00    +0.000 A 
ATOM     13  C   UNL     1      36.437  -0.657  14.686  0.00  0.00    +0.000 A 
ATOM     14  C   UNL     1      36.120   0.264  15.651  0.00  0.00    +0.000 A 
ATOM     15  C   UNL     1      35.528  -0.299  16.762  0.00  0.00    +0.000 A 
ATOM     16  C   UNL     1      35.273  -1.646  16.907  0.00  0.00    +0.000 A 
BRANCH  11  17
ATOM     17  C   UNL     1      35.319  -4.051  16.067  0.00  0.00    +0.000 C 
ATOM     18  C   UNL     1      36.777  -4.651  15.700  0.00  0.00    +0.000 C 
BRANCH  17  20
ATOM     19  C   UNL     1      33.279  -4.426  14.847  0.00  0.00    +0.000 C 
ATOM     20  C   UNL     1      34.752  -4.244  14.530  0.00  0.00    +0.000 C 
ENDBRANCH  17  20
ENDBRANCH  11  17
ENDBRANCH   1  14
BRANCH   8  21
ATOM     21  C   UNL     1      39.660   5.331  15.176  0.00  0.00    +0.000 A 
ATOM     22  C   UNL     1      39.788   6.100  14.011  0.00  0.00    +0.000 A 
ATOM     23  C   UNL     1      40.183   7.376  14.331  0.00  0.00    +0.000 A 
ATOM     24  C   UNL     1      40.290   7.363  15.705  0.00  0.00    +0.000 A 
ATOM     25  N   UNL     1      39.981   6.160  16.189  0.00  0.00    +0.000 N 
BRANCH  25  26
ATOM     26  C   UNL     1      39.978   5.760  17.564  0.00  0.00    +0.000 C 
BRANCH  26  27
ATOM     27  C   UNL     1      39.293   6.719  18.469  0.00  0.00    +0.000 A 
ATOM     28  C   UNL     1      38.140   7.346  18.077  0.00  0.00    +0.000 A 
ATOM     29  C   UNL     1      37.453   8.235  18.860  0.00  0.00    +0.000 A 
ATOM     30  C   UNL     1      37.953   8.517  20.118  0.00  0.00    +0.000 A 
ATOM     31  C   UNL     1      39.113   7.891  20.520  0.00  0.00    +0.000 A 
ATOM     32  C   UNL     1      39.785   7.002  19.719  0.00  0.00    +0.000 A 
ATOM     33  C   UNL     1      41.052   6.348  20.207  0.00  0.00    +0.000 C 
ENDBRANCH  26  27
ENDBRANCH  25  26
ENDBRANCH   8  21
TORSDOF 6
ENDMDL
MODEL 4
REMARK VINA RESULT:      -8.0     23.382     27.474
REMARK  Name = 
REMARK  6 active torsions:
REMARK  status: ('A' for Active; 'I' for Inactive)
REMARK    1  A    between atoms: C_2  and  C_3
REMARK    2  A    between atoms: C_3  and  C_5
REMARK    3  A    between atoms: C_8  and  N_9
REMARK    4  A    between atoms: C_16  and  C_17
REMARK    5  A    between atoms: N_21  and  C_22
REMARK    6  A    between atoms: C_22  and  C_23
REMARK                            x       y       z     vdW  Elec       q    Type
REMARK                         _______ _______ _______ _____ _____    ______ ____
ROOT
ATOM      1  N   UNL     1      16.729   0.034  26.756  0.00  0.00    +0.000 N 
ATOM      2  C   UNL     1      16.844   0.373  28.125  0.00  0.00    +0.000 C 
ATOM      3  O   UNL     1      18.020   0.712  28.494  0.00  0.00    +0.000 OA
ATOM      4  N   UNL     1      15.786   0.354  29.052  0.00  0.00    +0.000 NA
ATOM      5  C   UNL     1      14.600   0.004  28.651  0.00  0.00    +0.000 C 
ATOM      6  O   UNL     1      13.542  -0.018  29.571  0.00  0.00    +0.000 OA
ATOM      7  C   UNL     1      14.277  -0.375  27.289  0.00  0.00    +0.000 C 
ATOM      8  C   UNL     1      13.093  -0.692  26.842  0.00  0.00    +0.000 C 
ATOM      9  C   UNL     1      15.434  -0.342  26.343  0.00  0.00    +0.000 C 
ATOM     10  O   UNL     1      15.200  -0.662  25.164  0.00  0.00    +0.000 OA
ENDROOT
BRANCH   1  14
ATOM     11  C   UNL     1      19.891   0.110  23.903  0.00  0.00    +0.000 A 
ATOM     12  C   UNL     1      19.511  -1.052  24.470  0.00  0.00    +0.000 A 
ATOM     13  C   UNL     1      18.482  -1.069  25.397  0.00  0.00    +0.000 A 
ATOM     14  C   UNL     1      17.788   0.044  25.801  0.00  0.00    +0.000 A 
ATOM     15  C   UNL     1      18.220   1.201  25.189  0.00  0.00    +0.000 A 
ATOM     16  C   UNL     1      19.240   1.257  24.263  0.00  0.00    +0.000 A 
BRANCH  11  17
ATOM     17  C   UNL     1      21.062   0.172  22.851  0.00  0.00    +0.000 C 
ATOM     18  C   UNL     1      20.236   0.669  21.551  0.00  0.00    +0.000 C 
BRANCH  17  20
ATOM     19  C   UNL     1      20.422  -1.245  21.015  0.00  0.00    +0.000 C 
ATOM     20  C   UNL     1      20.951  -1.418  22.427  0.00  0.00    +0.000 C 
ENDBRANCH  17  20
ENDBRANCH  11  17
ENDBRANCH   1  14
BRANCH   8  21
ATOM     21  C   UNL     1      11.926  -0.689  27.678  0.00  0.00    +0.000 A 
ATOM     22  C   UNL     1      11.579  -1.681  28.606  0.00  0.00    +0.000 A 
ATOM     23  C   UNL     1      10.399  -1.353  29.226  0.00  0.00    +0.000 A 
ATOM     24  C   UNL     1      10.042  -0.149  28.659  0.00  0.00    +0.000 A 
ATOM     25  N   UNL     1      10.943   0.230  27.754  0.00  0.00    +0.000 N 
BRANCH  25  26
ATOM     26  C   UNL     1      10.915   1.419  26.957  0.00  0.00    +0.000 C 
BRANCH  26  27
ATOM     27  C   UNL     1       9.594   1.699  26.338  0.00  0.00    +0.000 A 
ATOM     28  C   UNL     1       9.188   1.016  25.223  0.00  0.00    +0.000 A 
ATOM     29  C   UNL     1       7.982   1.216  24.604  0.00  0.00    +0.000 A 
ATOM     30  C   UNL     1       7.127   2.165  25.135  0.00  0.00    +0.000 A 
ATOM     31  C   UNL     1       7.529   2.858  26.257  0.00  0.00    +0.000 A 
ATOM     32  C   UNL     1       8.742   2.640  26.862  0.00  0.00    +0.000 A 
ATOM     33  C   UNL     1       9.133   3.429  28.085  0.00  0.00    +0.000 C 
ENDBRANCH  26  27
ENDBRANCH  25  26
ENDBRANCH   8  21
TORSDOF 6
ENDMDL
MODEL 5
REMARK VINA RESULT:      -7.8      1.670      2.481
REMARK  Name = 
REMARK  6 active torsions:
REMARK  status: ('A' for Active; 'I' for Inactive)
REMARK    1  A    between atoms: C_2  and  C_3
REMARK    2  A    between atoms: C_3  and  C_5
REMARK    3  A    between atoms: C_8  and  N_9
REMARK    4  A    between atoms: C_16  and  C_17
REMARK    5  A    between atoms: N_21  and  C_22
REMARK    6  A    between atoms: C_22  and  C_23
REMARK                            x       y       z     vdW  Elec       q    Type
REMARK                         _______ _______ _______ _____ _____    ______ ____
ROOT
ATOM      1  N   UNL     1      36.227   2.842  15.292  0.00  0.00    +0.000 N 
ATOM      2  C   UNL     1      35.265   3.756  14.802  0.00  0.00    +0.000 C 
ATOM      3  O   UNL     1      34.085   3.279  14.683  0.00  0.00    +0.000 OA
ATOM      4  N   UNL     1      35.528   5.094  14.456  0.00  0.00    +0.000 NA
ATOM      5  C   UNL     1      36.736   5.556  14.586  0.00  0.00    +0.000 C 
ATOM      6  O   UNL     1      37.005   6.888  14.241  0.00  0.00    +0.000 OA
ATOM      7  C   UNL     1      37.859   4.778  15.072  0.00  0.00    +0.000 C 
ATOM      8  C   UNL     1      39.075   5.217  15.255  0.00  0.00    +0.000 C 
ATOM      9  C   UNL     1      37.530   3.363  15.425  0.00  0.00    +0.000 C 
ATOM     10  O   UNL     1      38.467   2.660  15.846  0.00  0.00    +0.000 OA
ENDROOT
BRANCH   1  14
ATOM     11  C   UNL     1      35.522  -1.233  16.312  0.00  0.00    +0.000 A 
ATOM     12  C   UNL     1      35.150  -0.245  17.151  0.00  0.00    +0.000 A 
ATOM     13  C   UNL     1      35.383   1.077  16.812  0.00  0.00    +0.000 A 
ATOM     14  C   UNL     1      35.982   1.482  15.646  0.00  0.00    +0.000 A 
ATOM     15  C   UNL     1      36.339   0.430  14.829  0.00  0.00    +0.000 A 
ATOM     16  C   UNL     1      36.125  -0.897  15.133  0.00  0.00    +0.000 A 
BRANCH  11  17
ATOM     17  C   UNL     1      35.282  -2.750  16.665  0.00  0.00    +0.000 C 
ATOM     18  C   UNL     1      36.813  -3.226  16.885  0.00  0.00    +0.000 C 
BRANCH  17  20
ATOM     19  C   UNL     1      35.924  -4.605  15.274  0.00  0.00    +0.000 C 
ATOM     20  C   UNL     1      35.254  -3.254  15.095  0.00  0.00    +0.000 C 
ENDBRANCH  17  20
ENDBRANCH  11  17
ENDBRANCH   1  14
BRANCH   8  21
ATOM     21  C   UNL     1      39.451   6.578  14.993  0.00  0.00    +0.000 A 
ATOM     22  C   UNL     1      40.040   7.055  13.815  0.00  0.00    +0.000 A 
ATOM     23  C   UNL     1      40.264   8.406  13.914  0.00  0.00    +0.000 A 
ATOM     24  C   UNL     1      39.800   8.735  15.169  0.00  0.00    +0.000 A 
ATOM     25  N   UNL     1      39.326   7.657  15.792  0.00  0.00    +0.000 N 
BRANCH  25  26
ATOM     26  C   UNL     1      38.764   7.600  17.108  0.00  0.00    +0.000 C 
BRANCH  26  27
ATOM     27  C   UNL     1      39.771   7.430  18.187  0.00  0.00    +0.000 A 
ATOM     28  C   UNL     1      40.643   8.440  18.493  0.00  0.00    +0.000 A 
ATOM     29  C   UNL     1      41.592   8.355  19.477  0.00  0.00    +0.000 A 
ATOM     30  C   UNL     1      41.674   7.181  20.203  0.00  0.00    +0.000 A 
ATOM     31  C   UNL     1      40.800   6.158  19.901  0.00  0.00    +0.000 A 
ATOM     32  C   UNL     1      39.856   6.266  18.910  0.00  0.00    +0.000 A 
ATOM     33  C   UNL     1      38.928   5.115  18.619  0.00  0.00    +0.000 C 
ENDBRANCH  26  27
ENDBRANCH  25  26
ENDBRANCH   8  21
TORSDOF 6
ENDMDL
MODEL 6
REMARK VINA RESULT:      -7.7      4.733      8.559
REMARK  Name = 
REMARK  6 active torsions:
REMARK  status: ('A' for Active; 'I' for Inactive)
REMARK    1  A    between atoms: C_2  and  C_3
REMARK    2  A    between atoms: C_3  and  C_5
REMARK    3  A    between atoms: C_8  and  N_9
REMARK    4  A    between atoms: C_16  and  C_17
REMARK    5  A    between atoms: N_21  and  C_22
REMARK    6  A    between atoms: C_22  and  C_23
REMARK                            x       y       z     vdW  Elec       q    Type
REMARK                         _______ _______ _______ _____ _____    ______ ____
ROOT
ATOM      1  N   UNL     1      36.488   4.890  13.387  0.00  0.00    +0.000 N 
ATOM      2  C   UNL     1      36.684   4.488  12.044  0.00  0.00    +0.000 C 
ATOM      3  O   UNL     1      36.158   5.261  11.173  0.00  0.00    +0.000 OA
ATOM      4  N   UNL     1      37.389   3.339  11.642  0.00  0.00    +0.000 NA
ATOM      5  C   UNL     1      37.914   2.568  12.547  0.00  0.00    +0.000 C 
ATOM      6  O   UNL     1      38.616   1.421  12.152  0.00  0.00    +0.000 OA
ATOM      7  C   UNL     1      37.827   2.810  13.975  0.00  0.00    +0.000 C 
ATOM      8  C   UNL     1      38.375   2.083  14.910  0.00  0.00    +0.000 C 
ATOM      9  C   UNL     1      37.067   4.041  14.352  0.00  0.00    +0.000 C 
ATOM     10  O   UNL     1      36.967   4.284  15.569  0.00  0.00    +0.000 OA
ENDROOT
BRANCH   1  14
ATOM     11  C   UNL     1      34.400   8.374  14.669  0.00  0.00    +0.000 A 
ATOM     12  C   UNL     1      33.726   7.247  14.362  0.00  0.00    +0.000 A 
ATOM     13  C   UNL     1      34.412   6.119  13.946  0.00  0.00    +0.000 A 
ATOM     14  C   UNL     1      35.776   6.048  13.817  0.00  0.00    +0.000 A 
ATOM     15  C   UNL     1      36.412   7.227  14.144  0.00  0.00    +0.000 A 
ATOM     16  C   UNL     1      35.763   8.370  14.561  0.00  0.00    +0.000 A 
BRANCH  11  17
ATOM     17  C   UNL     1      33.656   9.681  15.139  0.00  0.00    +0.000 C 
ATOM     18  C   UNL     1      34.916  10.526  15.702  0.00  0.00    +0.000 C 
BRANCH  17  20
ATOM     19  C   UNL     1      33.579  10.325  17.455  0.00  0.00    +0.000 C 
ATOM     20  C   UNL     1      33.268   9.091  16.629  0.00  0.00    +0.000 C 
ENDBRANCH  17  20
ENDBRANCH  11  17
ENDBRANCH   1  14
BRANCH   8  21
ATOM     21  C   UNL     1      39.166   0.921  14.620  0.00  0.00    +0.000 A 
ATOM     22  C   UNL     1      40.517   0.921  14.247  0.00  0.00    +0.000 A 
ATOM     23  C   UNL     1      40.950  -0.367  14.046  0.00  0.00    +0.000 A 
ATOM     24  C   UNL     1      39.839  -1.141  14.305  0.00  0.00    +0.000 A 
ATOM     25  N   UNL     1      38.801  -0.376  14.640  0.00  0.00    +0.000 N 
BRANCH  25  26
ATOM     26  C   UNL     1      37.480  -0.816  14.975  0.00  0.00    +0.000 C 
BRANCH  26  27
ATOM     27  C   UNL     1      37.244  -0.955  16.435  0.00  0.00    +0.000 A 
ATOM     28  C   UNL     1      38.034  -1.779  17.194  0.00  0.00    +0.000 A 
ATOM     29  C   UNL     1      37.878  -1.950  18.544  0.00  0.00    +0.000 A 
ATOM     30  C   UNL     1      36.866  -1.253  19.177  0.00  0.00    +0.000 A 
ATOM     31  C   UNL     1      36.066  -0.423  18.420  0.00  0.00    +0.000 A 
ATOM     32  C   UNL     1      36.241  -0.265  17.068  0.00  0.00    +0.000 A 
ATOM     33  C   UNL     1      35.335   0.653  16.288  0.00  0.00    +0.000 C 
ENDBRANCH  26  27
ENDBRANCH  25  26
ENDBRANCH   8  21
TORSDOF 6
ENDMDL
MODEL 7
REMARK VINA RESULT:      -7.7      3.730      8.795
REMARK  Name = 
REMARK  6 active torsions:
REMARK  status: ('A' for Active; 'I' for Inactive)
REMARK    1  A    between atoms: C_2  and  C_3
REMARK    2  A    between atoms: C_3  and  C_5
REMARK    3  A    between atoms: C_8  and  N_9
REMARK    4  A    between atoms: C_16  and  C_17
REMARK    5  A    between atoms: N_21  and  C_22
REMARK    6  A    between atoms: C_22  and  C_23
REMARK                            x       y       z     vdW  Elec       q    Type
REMARK                         _______ _______ _______ _____ _____    ______ ____
ROOT
ATOM      1  N   UNL     1      38.483   5.724  16.652  0.00  0.00    +0.000 N 
ATOM      2  C   UNL     1      37.824   4.486  16.471  0.00  0.00    +0.000 C 
ATOM      3  O   UNL     1      38.163   3.573  17.299  0.00  0.00    +0.000 OA
ATOM      4  N   UNL     1      36.866   4.221  15.475  0.00  0.00    +0.000 NA
ATOM      5  C   UNL     1      36.539   5.165  14.644  0.00  0.00    +0.000 C 
ATOM      6  O   UNL     1      35.586   4.907  13.649  0.00  0.00    +0.000 OA
ATOM      7  C   UNL     1      37.099   6.503  14.667  0.00  0.00    +0.000 C 
ATOM      8  C   UNL     1      36.766   7.487  13.877  0.00  0.00    +0.000 C 
ATOM      9  C   UNL     1      38.113   6.734  15.741  0.00  0.00    +0.000 C 
ATOM     10  O   UNL     1      38.620   7.870  15.795  0.00  0.00    +0.000 OA
ENDROOT
BRANCH   1  14
ATOM     11  C   UNL     1      41.428   6.591  19.605  0.00  0.00    +0.000 A 
ATOM     12  C   UNL     1      40.126   6.509  19.943  0.00  0.00    +0.000 A 
ATOM     13  C   UNL     1      39.174   6.227  18.977  0.00  0.00    +0.000 A 
ATOM     14  C   UNL     1      39.459   6.013  17.652  0.00  0.00    +0.000 A 
ATOM     15  C   UNL     1      40.804   6.109  17.366  0.00  0.00    +0.000 A 
ATOM     16  C   UNL     1      41.779   6.389  18.299  0.00  0.00    +0.000 A 
BRANCH  11  17
ATOM     17  C   UNL     1      42.540   6.918  20.673  0.00  0.00    +0.000 C 
ATOM     18  C   UNL     1      42.514   8.535  20.609  0.00  0.00    +0.000 C 
BRANCH  17  20
ATOM     19  C   UNL     1      44.848   6.250  20.546  0.00  0.00    +0.000 C 
ATOM     20  C   UNL     1      43.793   6.805  19.607  0.00  0.00    +0.000 C 
ENDBRANCH  17  20
ENDBRANCH  11  17
ENDBRANCH   1  14
BRANCH   8  21
ATOM     21  C   UNL     1      35.759   7.355  12.863  0.00  0.00    +0.000 A 
ATOM     22  C   UNL     1      35.972   6.921  11.547  0.00  0.00    +0.000 A 
ATOM     23  C   UNL     1      34.786   6.920  10.854  0.00  0.00    +0.000 A 
ATOM     24  C   UNL     1      33.857   7.358  11.773  0.00  0.00    +0.000 A 
ATOM     25  N   UNL     1      34.438   7.610  12.946  0.00  0.00    +0.000 N 
BRANCH  25  26
ATOM     26  C   UNL     1      33.802   8.082  14.138  0.00  0.00    +0.000 C 
BRANCH  26  27
ATOM     27  C   UNL     1      33.937   9.546  14.354  0.00  0.00    +0.000 A 
ATOM     28  C   UNL     1      34.244  10.379  13.311  0.00  0.00    +0.000 A 
ATOM     29  C   UNL     1      34.378  11.737  13.435  0.00  0.00    +0.000 A 
ATOM     30  C   UNL     1      34.193  12.298  14.686  0.00  0.00    +0.000 A 
ATOM     31  C   UNL     1      33.885  11.466  15.741  0.00  0.00    +0.000 A 
ATOM     32  C   UNL     1      33.754  10.107  15.593  0.00  0.00    +0.000 A 
ATOM     33  C   UNL     1      33.419   9.244  16.782  0.00  0.00    +0.000 C 
ENDBRANCH  26  27
ENDBRANCH  25  26
ENDBRANCH   8  21
TORSDOF 6
ENDMDL
MODEL 8
REMARK VINA RESULT:      -7.6      6.580     10.921
REMARK  Name = 
REMARK  6 active torsions:
REMARK  status: ('A' for Active; 'I' for Inactive)
REMARK    1  A    between atoms: C_2  and  C_3
REMARK    2  A    between atoms: C_3  and  C_5
REMARK    3  A    between atoms: C_8  and  N_9
REMARK    4  A    between atoms: C_16  and  C_17
REMARK    5  A    between atoms: N_21  and  C_22
REMARK    6  A    between atoms: C_22  and  C_23
REMARK                            x       y       z     vdW  Elec       q    Type
REMARK                         _______ _______ _______ _____ _____    ______ ____
ROOT
ATOM      1  N   UNL     1      41.048  -1.445  14.273  0.00  0.00    +0.000 N 
ATOM      2  C   UNL     1      40.425  -0.295  13.734  0.00  0.00    +0.000 C 
ATOM      3  O   UNL     1      41.125   0.338  12.872  0.00  0.00    +0.000 OA
ATOM      4  N   UNL     1      39.142   0.164  14.083  0.00  0.00    +0.000 NA
ATOM      5  C   UNL     1      38.450  -0.497  14.964  0.00  0.00    +0.000 C 
ATOM      6  O   UNL     1      37.172  -0.043  15.317  0.00  0.00    +0.000 OA
ATOM      7  C   UNL     1      38.912  -1.700  15.627  0.00  0.00    +0.000 C 
ATOM      8  C   UNL     1      38.231  -2.413  16.484  0.00  0.00    +0.000 C 
ATOM      9  C   UNL     1      40.281  -2.147  15.225  0.00  0.00    +0.000 C 
ATOM     10  O   UNL     1      40.715  -3.176  15.773  0.00  0.00    +0.000 OA
ENDROOT
BRANCH   1  14
ATOM     11  C   UNL     1      44.910  -2.906  13.229  0.00  0.00    +0.000 A 
ATOM     12  C   UNL     1      44.768  -1.989  14.207  0.00  0.00    +0.000 A 
ATOM     13  C   UNL     1      43.509  -1.519  14.540  0.00  0.00    +0.000 A 
ATOM     14  C   UNL     1      42.348  -1.927  13.936  0.00  0.00    +0.000 A 
ATOM     15  C   UNL     1      42.554  -2.864  12.946  0.00  0.00    +0.000 A 
ATOM     16  C   UNL     1      43.790  -3.355  12.586  0.00  0.00    +0.000 A 
BRANCH  11  17
ATOM     17  C   UNL     1      46.326  -3.460  12.814  0.00  0.00    +0.000 C 
ATOM     18  C   UNL     1      45.872  -4.753  11.952  0.00  0.00    +0.000 C 
BRANCH  17  20
ATOM     19  C   UNL     1      47.797  -5.091  13.796  0.00  0.00    +0.000 C 
ATOM     20  C   UNL     1      46.539  -4.340  14.193  0.00  0.00    +0.000 C 
ENDBRANCH  17  20
ENDBRANCH  11  17
ENDBRANCH   1  14
BRANCH   8  21
ATOM     21  C   UNL     1      36.891  -2.077  16.873  0.00  0.00    +0.000 A 
ATOM     22  C   UNL     1      36.530  -1.246  17.942  0.00  0.00    +0.000 A 
ATOM     23  C   UNL     1      35.163  -1.150  18.023  0.00  0.00    +0.000 A 
ATOM     24  C   UNL     1      34.706  -1.935  16.986  0.00  0.00    +0.000 A 
ATOM     25  N   UNL     1      35.727  -2.473  16.320  0.00  0.00    +0.000 N 
BRANCH  25  26
ATOM     26  C   UNL     1      35.651  -3.345  15.186  0.00  0.00    +0.000 C 
BRANCH  26  27
ATOM     27  C   UNL     1      35.296  -4.746  15.527  0.00  0.00    +0.000 A 
ATOM     28  C   UNL     1      36.102  -5.490  16.347  0.00  0.00    +0.000 A 
ATOM     29  C   UNL     1      35.834  -6.784  16.708  0.00  0.00    +0.000 A 
ATOM     30  C   UNL     1      34.684  -7.373  16.215  0.00  0.00    +0.000 A 
ATOM     31  C   UNL     1      33.867  -6.632  15.388  0.00  0.00    +0.000 A 
ATOM     32  C   UNL     1      34.155  -5.335  15.040  0.00  0.00    +0.000 A 
ATOM     33  C   UNL     1      33.229  -4.571  14.130  0.00  0.00    +0.000 C 
ENDBRANCH  26  27
ENDBRANCH  25  26
ENDBRANCH   8  21
TORSDOF 6
ENDMDL
MODEL 9
REMARK VINA RESULT:      -7.2     24.177     26.260
REMARK  Name = 
REMARK  6 active torsions:
REMARK  status: ('A' for Active; 'I' for Inactive)
REMARK    1  A    between atoms: C_2  and  C_3
REMARK    2  A    between atoms: C_3  and  C_5
REMARK    3  A    between atoms: C_8  and  N_9
REMARK    4  A    between atoms: C_16  and  C_17
REMARK    5  A    between atoms: N_21  and  C_22
REMARK    6  A    between atoms: C_22  and  C_23
REMARK                            x       y       z     vdW  Elec       q    Type
REMARK                         _______ _______ _______ _____ _____    ______ ____
ROOT
ATOM      1  N   UNL     1      18.128   0.103   3.189  0.00  0.00    +0.000 N 
ATOM      2  C   UNL     1      19.423   0.655   3.326  0.00  0.00    +0.000 C 
ATOM      3  O   UNL     1      20.126   0.144   4.264  0.00  0.00    +0.000 OA
ATOM      4  N   UNL     1      19.949   1.686   2.527  0.00  0.00    +0.000 NA
ATOM      5  C   UNL     1      19.214   2.190   1.580  0.00  0.00    +0.000 C 
ATOM      6  O   UNL     1      19.731   3.219   0.781  0.00  0.00    +0.000 OA
ATOM      7  C   UNL     1      17.863   1.759   1.279  0.00  0.00    +0.000 C 
ATOM      8  C   UNL     1      17.111   2.212   0.312  0.00  0.00    +0.000 C 
ATOM      9  C   UNL     1      17.349   0.663   2.157  0.00  0.00    +0.000 C 
ATOM     10  O   UNL     1      16.191   0.265   1.932  0.00  0.00    +0.000 OA
ENDROOT
BRANCH   1  14
ATOM     11  C   UNL     1      16.504  -3.042   5.559  0.00  0.00    +0.000 A 
ATOM     12  C   UNL     1      16.210  -1.756   5.836  0.00  0.00    +0.000 A 
ATOM     13  C   UNL     1      16.742  -0.739   5.062  0.00  0.00    +0.000 A 
ATOM     14  C   UNL     1      17.575  -0.940   3.990  0.00  0.00    +0.000 A 
ATOM     15  C   UNL     1      17.840  -2.272   3.753  0.00  0.00    +0.000 A 
ATOM     16  C   UNL     1      17.330  -3.310   4.503  0.00  0.00    +0.000 A 
BRANCH  11  17
ATOM     17  C   UNL     1      15.925  -4.227   6.421  0.00  0.00    +0.000 C 
ATOM     18  C   UNL     1      14.916  -4.885   5.340  0.00  0.00    +0.000 C 
BRANCH  17  20
ATOM     19  C   UNL     1      14.688  -4.004   8.472  0.00  0.00    +0.000 C 
ATOM     20  C   UNL     1      14.735  -3.323   7.117  0.00  0.00    +0.000 C 
ENDBRANCH  17  20
ENDBRANCH  11  17
ENDBRANCH   1  14
BRANCH   8  21
ATOM     21  C   UNL     1      17.559   3.221  -0.606  0.00  0.00    +0.000 A 
ATOM     22  C   UNL     1      17.491   4.605  -0.400  0.00  0.00    +0.000 A 
ATOM     23  C   UNL     1      18.008   5.268  -1.486  0.00  0.00    +0.000 A 
ATOM     24  C   UNL     1      18.388   4.262  -2.347  0.00  0.00    +0.000 A 
ATOM     25  N   UNL     1      18.120   3.067  -1.822  0.00  0.00    +0.000 N 
BRANCH  25  26
ATOM     26  C   UNL     1      18.368   1.789  -2.418  0.00  0.00    +0.000 C 
BRANCH  26  27
ATOM     27  C   UNL     1      19.614   1.134  -1.942  0.00  0.00    +0.000 A 
ATOM     28  C   UNL     1      20.819   1.776  -2.037  0.00  0.00    +0.000 A 
ATOM     29  C   UNL     1      22.005   1.237  -1.614  0.00  0.00    +0.000 A 
ATOM     30  C   UNL     1      21.983  -0.029  -1.058  0.00  0.00    +0.000 A 
ATOM     31  C   UNL     1      20.773  -0.683  -0.959  0.00  0.00    +0.000 A 
ATOM     32  C   UNL     1      19.596  -0.123  -1.389  0.00  0.00    +0.000 A 
ATOM     33  C   UNL     1      18.302  -0.883  -1.260  0.00  0.00    +0.000 C 
ENDBRANCH  26  27
ENDBRANCH  25  26
ENDBRANCH   8  21
TORSDOF 6
ENDMDL
MODEL 10
REMARK VINA RESULT:      -7.1      4.977      6.158
REMARK  Name = 
REMARK  6 active torsions:
REMARK  status: ('A' for Active; 'I' for Inactive)
REMARK    1  A    between atoms: C_2  and  C_3
REMARK    2  A    between atoms: C_3  and  C_5
REMARK    3  A    between atoms: C_8  and  N_9
REMARK    4  A    between atoms: C_16  and  C_17
REMARK    5  A    between atoms: N_21  and  C_22
REMARK    6  A    between atoms: C_22  and  C_23
REMARK                            x       y       z     vdW  Elec       q    Type
REMARK                         _______ _______ _______ _____ _____    ______ ____
ROOT
ATOM      1  N   UNL     1      36.338   3.013  14.690  0.00  0.00    +0.000 N 
ATOM      2  C   UNL     1      37.452   3.290  13.863  0.00  0.00    +0.000 C 
ATOM      3  O   UNL     1      38.379   2.411  13.902  0.00  0.00    +0.000 OA
ATOM      4  N   UNL     1      37.585   4.426  13.044  0.00  0.00    +0.000 NA
ATOM      5  C   UNL     1      36.628   5.306  13.022  0.00  0.00    +0.000 C 
ATOM      6  O   UNL     1      36.756   6.441  12.209  0.00  0.00    +0.000 OA
ATOM      7  C   UNL     1      35.406   5.202  13.795  0.00  0.00    +0.000 C 
ATOM      8  C   UNL     1      34.408   6.043  13.768  0.00  0.00    +0.000 C 
ATOM      9  C   UNL     1      35.313   3.980  14.651  0.00  0.00    +0.000 C 
ATOM     10  O   UNL     1      34.279   3.853  15.332  0.00  0.00    +0.000 OA
ENDROOT
BRANCH   1  14
ATOM     11  C   UNL     1      35.880  -0.428  17.158  0.00  0.00    +0.000 A 
ATOM     12  C   UNL     1      36.070   0.788  17.709  0.00  0.00    +0.000 A 
ATOM     13  C   UNL     1      36.218   1.901  16.900  0.00  0.00    +0.000 A 
ATOM     14  C   UNL     1      36.184   1.870  15.529  0.00  0.00    +0.000 A 
ATOM     15  C   UNL     1      35.988   0.603  15.022  0.00  0.00    +0.000 A 
ATOM     16  C   UNL     1      35.838  -0.528  15.795  0.00  0.00    +0.000 A 
BRANCH  11  17
ATOM     17  C   UNL     1      35.716  -1.721  18.044  0.00  0.00    +0.000 C 
ATOM     18  C   UNL     1      36.677  -1.326  19.286  0.00  0.00    +0.000 C 
BRANCH  17  20
ATOM     19  C   UNL     1      38.029  -2.344  18.268  0.00  0.00    +0.000 C 
ATOM     20  C   UNL     1      36.903  -2.568  17.275  0.00  0.00    +0.000 C 
ENDBRANCH  17  20
ENDBRANCH  11  17
ENDBRANCH   1  14
BRANCH   8  21
ATOM     21  C   UNL     1      34.403   7.207  12.928  0.00  0.00    +0.000 A 
ATOM     22  C   UNL     1      33.841   7.292  11.647  0.00  0.00    +0.000 A 
ATOM     23  C   UNL     1      34.022   8.554  11.136  0.00  0.00    +0.000 A 
ATOM     24  C   UNL     1      34.700   9.227  12.129  0.00  0.00    +0.000 A 
ATOM     25  N   UNL     1      34.918   8.428  13.174  0.00  0.00    +0.000 N 
BRANCH  25  26
ATOM     26  C   UNL     1      35.592   8.767  14.391  0.00  0.00    +0.000 C 
BRANCH  26  27
ATOM     27  C   UNL     1      34.756   9.534  15.349  0.00  0.00    +0.000 A 
ATOM     28  C   UNL     1      33.798   8.904  16.099  0.00  0.00    +0.000 A 
ATOM     29  C   UNL     1      32.996   9.546  17.005  0.00  0.00    +0.000 A 
ATOM     30  C   UNL     1      33.163  10.909  17.172  0.00  0.00    +0.000 A 
ATOM     31  C   UNL     1      34.124  11.551  16.420  0.00  0.00    +0.000 A 
ATOM     32  C   UNL     1      34.917  10.887  15.518  0.00  0.00    +0.000 A 
ATOM     33  C   UNL     1      35.951  11.639  14.720  0.00  0.00    +0.000 C 
ENDBRANCH  26  27
ENDBRANCH  25  26
ENDBRANCH   8  21
TORSDOF 6
ENDMDL
