MODEL 1
REMARK VINA RESULT:      -8.0      0.000      0.000
REMARK  Name = 
REMARK  6 active torsions:
REMARK  status: ('A' for Active; 'I' for Inactive)
REMARK    1  A    between atoms: C_7  and  C_8
REMARK    2  A    between atoms: C_8  and  O_9
REMARK    3  A    between atoms: O_9  and  C_10
REMARK    4  A    between atoms: C_13  and  C_14
REMARK    5  A    between atoms: C_14  and  C_15
REMARK    6  A    between atoms: C_16  and  C_17
REMARK                            x       y       z     vdW  Elec       q    Type
REMARK                         _______ _______ _______ _____ _____    ______ ____
ROOT
ATOM      1  C   UNL     1      36.911  -0.158  15.702  0.00  0.00    +0.000 A 
ATOM      2  C   UNL     1      37.765  -0.328  14.661  0.00  0.00    +0.000 A 
ATOM      3  C   UNL     1      38.857  -1.192  14.913  0.00  0.00    +0.000 A 
ATOM      4  C   UNL     1      39.037  -1.808  16.127  0.00  0.00    +0.000 A 
ATOM      5  C   UNL     1      38.156  -1.614  17.170  0.00  0.00    +0.000 A 
ATOM      6  C   UNL     1      38.294  -2.209  18.405  0.00  0.00    +0.000 A 
ATOM      7  C   UNL     1      37.396  -1.997  19.432  0.00  0.00    +0.000 A 
ATOM      8  O   UNL     1      37.528  -2.589  20.667  0.00  0.00    +0.000 OA
ATOM      9  C   UNL     1      36.323  -1.161  19.207  0.00  0.00    +0.000 A 
ATOM     10  C   UNL     1      36.180  -0.555  17.950  0.00  0.00    +0.000 A 
ATOM     11  C   UNL     1      37.095  -0.786  16.947  0.00  0.00    +0.000 A 
ENDROOT
BRANCH   2  12
ATOM     12  C   UNL     1      37.721   0.365  13.379  0.00  0.00    +0.000 A 
ATOM     13  C   UNL     1      38.647   1.417  13.194  0.00  0.00    +0.000 A 
ATOM     14  C   UNL     1      38.707   2.164  12.045  0.00  0.00    +0.000 A 
ATOM     15  C   UNL     1      37.847   1.923  10.989  0.00  0.00    +0.000 A 
ATOM     16  O   UNL     1      37.914   2.683   9.834  0.00  0.00    +0.000 OA
ATOM     17  C   UNL     1      36.938   0.897  11.158  0.00  0.00    +0.000 A 
ATOM     18  C   UNL     1      36.905   0.167  12.323  0.00  0.00    +0.000 A 
ENDBRANCH   2  12
BRANCH   1  19
ATOM     19  C   UNL     1      35.673   0.627  15.504  0.00  0.00    +0.000 C 
BRANCH  19  23
ATOM     20  C   UNL     1      36.576   4.811  14.957  0.00  0.00    +0.000 A 
ATOM     21  C   UNL     1      35.662   4.152  14.176  0.00  0.00    +0.000 A 
ATOM     22  C   UNL     1      35.412   2.839  14.382  0.00  0.00    +0.000 A 
ATOM     23  C   UNL     1      36.050   2.064  15.385  0.00  0.00    +0.000 A 
ATOM     24  C   UNL     1      36.940   2.774  16.120  0.00  0.00    +0.000 A 
ATOM     25  C   UNL     1      37.238   4.110  15.960  0.00  0.00    +0.000 A 
BRANCH  20  26
ATOM     26  O   UNL     1      36.797   6.153  14.708  0.00  0.00    +0.000 OA
BRANCH  26  27
ATOM     27  C   UNL     1      36.016   6.790  13.714  0.00  0.00    +0.000 C 
BRANCH  27  34
ATOM     28  C   UNL     1      36.642   9.707  13.540  0.00  0.00    +0.000 C 
ATOM     29  N   UNL     1      35.313   9.083  13.442  0.00  0.00    +0.000 NA
ATOM     30  C   UNL     1      35.180   8.486  12.204  0.00  0.00    +0.000 C 
ATOM     31  C   UNL     1      34.308   7.300  12.063  0.00  0.00    +0.000 C 
ATOM     32  C   UNL     1      33.541   6.927  13.289  0.00  0.00    +0.000 C 
ATOM     33  C   UNL     1      33.843   7.598  14.527  0.00  0.00    +0.000 C 
ATOM     34  C   UNL     1      35.419   8.037  14.606  0.00  0.00    +0.000 C 
ENDBRANCH  27  34
ENDBRANCH  26  27
ENDBRANCH  20  26
ENDBRANCH  19  23
ENDBRANCH   1  19
TORSDOF 6
ENDMDL
MODEL 2
REMARK VINA RESULT:      -7.9      4.909      9.328
REMARK  Name = 
REMARK  6 active torsions:
REMARK  status: ('A' for Active; 'I' for Inactive)
REMARK    1  A    between atoms: C_7  and  C_8
REMARK    2  A    between atoms: C_8  and  O_9
REMARK    3  A    between atoms: O_9  and  C_10
REMARK    4  A    between atoms: C_13  and  C_14
REMARK    5  A    between atoms: C_14  and  C_15
REMARK    6  A    between atoms: C_16  and  C_17
REMARK                            x       y       z     vdW  Elec       q    Type
REMARK                         _______ _______ _______ _____ _____    ______ ____
ROOT
ATOM      1  C   UNL     1      38.914   8.197  18.116  0.00  0.00    +0.000 A 
ATOM      2  C   UNL     1      39.262   8.076  19.422  0.00  0.00    +0.000 A 
ATOM      3  C   UNL     1      38.274   8.490  20.348  0.00  0.00    +0.000 A 
ATOM      4  C   UNL     1      37.057   8.982  19.947  0.00  0.00    +0.000 A 
ATOM      5  C   UNL     1      36.732   9.099  18.613  0.00  0.00    +0.000 A 
ATOM      6  C   UNL     1      35.524   9.586  18.163  0.00  0.00    +0.000 A 
ATOM      7  C   UNL     1      35.224   9.692  16.818  0.00  0.00    +0.000 A 
ATOM      8  O   UNL     1      34.021  10.177  16.363  0.00  0.00    +0.000 OA
ATOM      9  C   UNL     1      36.171   9.292  15.900  0.00  0.00    +0.000 A 
ATOM     10  C   UNL     1      37.400   8.794  16.355  0.00  0.00    +0.000 A 
ATOM     11  C   UNL     1      37.668   8.703  17.704  0.00  0.00    +0.000 A 
ENDROOT
BRANCH   2  12
ATOM     12  C   UNL     1      40.563   7.672  19.941  0.00  0.00    +0.000 A 
ATOM     13  C   UNL     1      41.491   8.707  20.200  0.00  0.00    +0.000 A 
ATOM     14  C   UNL     1      42.756   8.471  20.674  0.00  0.00    +0.000 A 
ATOM     15  C   UNL     1      43.198   7.185  20.928  0.00  0.00    +0.000 A 
ATOM     16  O   UNL     1      44.477   6.957  21.406  0.00  0.00    +0.000 OA
ATOM     17  C   UNL     1      42.300   6.167  20.679  0.00  0.00    +0.000 A 
ATOM     18  C   UNL     1      41.038   6.437  20.203  0.00  0.00    +0.000 A 
ENDBRANCH   2  12
BRANCH   1  19
ATOM     19  C   UNL     1      39.825   7.679  17.071  0.00  0.00    +0.000 C 
BRANCH  19  23
ATOM     20  C   UNL     1      38.689   3.715  15.799  0.00  0.00    +0.000 A 
ATOM     21  C   UNL     1      39.462   4.539  15.022  0.00  0.00    +0.000 A 
ATOM     22  C   UNL     1      39.791   5.775  15.461  0.00  0.00    +0.000 A 
ATOM     23  C   UNL     1      39.383   6.302  16.713  0.00  0.00    +0.000 A 
ATOM     24  C   UNL     1      38.623   5.438  17.431  0.00  0.00    +0.000 A 
ATOM     25  C   UNL     1      38.253   4.169  17.040  0.00  0.00    +0.000 A 
BRANCH  20  26
ATOM     26  O   UNL     1      38.378   2.461  15.308  0.00  0.00    +0.000 OA
BRANCH  26  27
ATOM     27  C   UNL     1      37.220   1.814  15.802  0.00  0.00    +0.000 C 
BRANCH  27  34
ATOM     28  C   UNL     1      36.814  -0.813  14.437  0.00  0.00    +0.000 C 
ATOM     29  N   UNL     1      35.771   0.154  14.815  0.00  0.00    +0.000 NA
ATOM     30  C   UNL     1      35.562   0.091  16.178  0.00  0.00    +0.000 C 
ATOM     31  C   UNL     1      35.113   1.302  16.898  0.00  0.00    +0.000 C 
ATOM     32  C   UNL     1      34.805   2.478  16.031  0.00  0.00    +0.000 C 
ATOM     33  C   UNL     1      35.145   2.417  14.633  0.00  0.00    +0.000 C 
ATOM     34  C   UNL     1      36.470   1.489  14.375  0.00  0.00    +0.000 C 
ENDBRANCH  27  34
ENDBRANCH  26  27
ENDBRANCH  20  26
ENDBRANCH  19  23
ENDBRANCH   1  19
TORSDOF 6
ENDMDL
MODEL 3
REMARK VINA RESULT:      -7.9      2.170      3.294
REMARK  Name = 
REMARK  6 active torsions:
REMARK  status: ('A' for Active; 'I' for Inactive)
REMARK    1  A    between atoms: C_7  and  C_8
REMARK    2  A    between atoms: C_8  and  O_9
REMARK    3  A    between atoms: O_9  and  C_10
REMARK    4  A    between atoms: C_13  and  C_14
REMARK    5  A    between atoms: C_14  and  C_15
REMARK    6  A    between atoms: C_16  and  C_17
REMARK                            x       y       z     vdW  Elec       q    Type
REMARK                         _______ _______ _______ _____ _____    ______ ____
ROOT
ATOM      1  C   UNL     1      36.955  -0.076  15.663  0.00  0.00    +0.000 A 
ATOM      2  C   UNL     1      37.803  -0.299  14.627  0.00  0.00    +0.000 A 
ATOM      3  C   UNL     1      38.841  -1.225  14.887  0.00  0.00    +0.000 A 
ATOM      4  C   UNL     1      38.978  -1.846  16.104  0.00  0.00    +0.000 A 
ATOM      5  C   UNL     1      38.106  -1.598  17.142  0.00  0.00    +0.000 A 
ATOM      6  C   UNL     1      38.203  -2.196  18.378  0.00  0.00    +0.000 A 
ATOM      7  C   UNL     1      37.313  -1.930  19.401  0.00  0.00    +0.000 A 
ATOM      8  O   UNL     1      37.404  -2.524  20.638  0.00  0.00    +0.000 OA
ATOM      9  C   UNL     1      36.292  -1.033  19.168  0.00  0.00    +0.000 A 
ATOM     10  C   UNL     1      36.191  -0.423  17.909  0.00  0.00    +0.000 A 
ATOM     11  C   UNL     1      37.096  -0.711  16.911  0.00  0.00    +0.000 A 
ENDROOT
BRANCH   2  12
ATOM     12  C   UNL     1      37.805   0.392  13.343  0.00  0.00    +0.000 A 
ATOM     13  C   UNL     1      38.807   1.370  13.150  0.00  0.00    +0.000 A 
ATOM     14  C   UNL     1      38.918   2.107  11.999  0.00  0.00    +0.000 A 
ATOM     15  C   UNL     1      38.038   1.929  10.947  0.00  0.00    +0.000 A 
ATOM     16  O   UNL     1      38.157   2.678   9.789  0.00  0.00    +0.000 OA
ATOM     17  C   UNL     1      37.055   0.975  11.124  0.00  0.00    +0.000 A 
ATOM     18  C   UNL     1      36.971   0.253  12.291  0.00  0.00    +0.000 A 
ENDBRANCH   2  12
BRANCH   1  19
ATOM     19  C   UNL     1      35.766   0.779  15.457  0.00  0.00    +0.000 C 
BRANCH  19  23
ATOM     20  C   UNL     1      37.231   4.837  15.518  0.00  0.00    +0.000 A 
ATOM     21  C   UNL     1      37.563   3.925  16.487  0.00  0.00    +0.000 A 
ATOM     22  C   UNL     1      37.078   2.664  16.428  0.00  0.00    +0.000 A 
ATOM     23  C   UNL     1      36.219   2.197  15.400  0.00  0.00    +0.000 A 
ATOM     24  C   UNL     1      35.931   3.147  14.476  0.00  0.00    +0.000 A 
ATOM     25  C   UNL     1      36.392   4.445  14.479  0.00  0.00    +0.000 A 
BRANCH  20  26
ATOM     26  O   UNL     1      37.752   6.114  15.621  0.00  0.00    +0.000 OA
BRANCH  26  27
ATOM     27  C   UNL     1      38.246   6.540  16.878  0.00  0.00    +0.000 C 
BRANCH  27  34
ATOM     28  C   UNL     1      39.157   9.367  16.558  0.00  0.00    +0.000 C 
ATOM     29  N   UNL     1      39.782   8.329  17.392  0.00  0.00    +0.000 NA
ATOM     30  C   UNL     1      39.019   8.134  18.526  0.00  0.00    +0.000 C 
ATOM     31  C   UNL     1      39.006   6.803  19.170  0.00  0.00    +0.000 C 
ATOM     32  C   UNL     1      39.945   5.804  18.578  0.00  0.00    +0.000 C 
ATOM     33  C   UNL     1      40.621   6.129  17.349  0.00  0.00    +0.000 C 
ATOM     34  C   UNL     1      39.713   7.112  16.404  0.00  0.00    +0.000 C 
ENDBRANCH  27  34
ENDBRANCH  26  27
ENDBRANCH  20  26
ENDBRANCH  19  23
ENDBRANCH   1  19
TORSDOF 6
ENDMDL
MODEL 4
REMARK VINA RESULT:      -7.7      4.370      8.752
REMARK  Name = 
REMARK  6 active torsions:
REMARK  status: ('A' for Active; 'I' for Inactive)
REMARK    1  A    between atoms: C_7  and  C_8
REMARK    2  A    between atoms: C_8  and  O_9
REMARK    3  A    between atoms: O_9  and  C_10
REMARK    4  A    between atoms: C_13  and  C_14
REMARK    5  A    between atoms: C_14  and  C_15
REMARK    6  A    between atoms: C_16  and  C_17
REMARK                            x       y       z     vdW  Elec       q    Type
REMARK                         _______ _______ _______ _____ _____    ______ ____
ROOT
ATOM      1  C   UNL     1      36.321   0.121  14.711  0.00  0.00    +0.000 A 
ATOM      2  C   UNL     1      35.904  -0.637  15.756  0.00  0.00    +0.000 A 
ATOM      3  C   UNL     1      35.218   0.068  16.775  0.00  0.00    +0.000 A 
ATOM      4  C   UNL     1      34.999   1.421  16.706  0.00  0.00    +0.000 A 
ATOM      5  C   UNL     1      35.439   2.169  15.635  0.00  0.00    +0.000 A 
ATOM      6  C   UNL     1      35.242   3.528  15.522  0.00  0.00    +0.000 A 
ATOM      7  C   UNL     1      35.692   4.252  14.436  0.00  0.00    +0.000 A 
ATOM      8  O   UNL     1      35.499   5.609  14.317  0.00  0.00    +0.000 OA
ATOM      9  C   UNL     1      36.360   3.585  13.431  0.00  0.00    +0.000 A 
ATOM     10  C   UNL     1      36.560   2.201  13.543  0.00  0.00    +0.000 A 
ATOM     11  C   UNL     1      36.099   1.509  14.641  0.00  0.00    +0.000 A 
ENDROOT
BRANCH   2  12
ATOM     12  C   UNL     1      36.185  -2.051  15.970  0.00  0.00    +0.000 A 
ATOM     13  C   UNL     1      37.211  -2.362  16.892  0.00  0.00    +0.000 A 
ATOM     14  C   UNL     1      37.592  -3.648  17.178  0.00  0.00    +0.000 A 
ATOM     15  C   UNL     1      36.981  -4.728  16.568  0.00  0.00    +0.000 A 
ATOM     16  O   UNL     1      37.372  -6.023  16.863  0.00  0.00    +0.000 OA
ATOM     17  C   UNL     1      35.977  -4.437  15.666  0.00  0.00    +0.000 A 
ATOM     18  C   UNL     1      35.619  -3.136  15.401  0.00  0.00    +0.000 A 
ENDBRANCH   2  12
BRANCH   1  19
ATOM     19  C   UNL     1      36.938  -0.536  13.538  0.00  0.00    +0.000 C 
BRANCH  19  23
ATOM     20  C   UNL     1      40.956  -1.818  14.450  0.00  0.00    +0.000 A 
ATOM     21  C   UNL     1      40.040  -2.649  13.860  0.00  0.00    +0.000 A 
ATOM     22  C   UNL     1      38.790  -2.205  13.594  0.00  0.00    +0.000 A 
ATOM     23  C   UNL     1      38.341  -0.893  13.892  0.00  0.00    +0.000 A 
ATOM     24  C   UNL     1      39.294  -0.123  14.473  0.00  0.00    +0.000 A 
ATOM     25  C   UNL     1      40.582  -0.516  14.768  0.00  0.00    +0.000 A 
BRANCH  20  26
ATOM     26  O   UNL     1      42.221  -2.317  14.701  0.00  0.00    +0.000 OA
BRANCH  26  27
ATOM     27  C   UNL     1      43.275  -1.945  13.833  0.00  0.00    +0.000 C 
BRANCH  27  34
ATOM     28  C   UNL     1      45.918  -3.334  13.941  0.00  0.00    +0.000 C 
ATOM     29  N   UNL     1      45.686  -1.881  13.931  0.00  0.00    +0.000 NA
ATOM     30  C   UNL     1      45.338  -1.484  12.655  0.00  0.00    +0.000 C 
ATOM     31  C   UNL     1      44.457  -0.311  12.478  0.00  0.00    +0.000 C 
ATOM     32  C   UNL     1      44.117   0.423  13.734  0.00  0.00    +0.000 C 
ATOM     33  C   UNL     1      44.491  -0.156  14.998  0.00  0.00    +0.000 C 
ATOM     34  C   UNL     1      44.485  -1.793  14.936  0.00  0.00    +0.000 C 
ENDBRANCH  27  34
ENDBRANCH  26  27
ENDBRANCH  20  26
ENDBRANCH  19  23
ENDBRANCH   1  19
TORSDOF 6
ENDMDL
MODEL 5
REMARK VINA RESULT:      -7.7      6.025      8.874
REMARK  Name = 
REMARK  6 active torsions:
REMARK  status: ('A' for Active; 'I' for Inactive)
REMARK    1  A    between atoms: C_7  and  C_8
REMARK    2  A    between atoms: C_8  and  O_9
REMARK    3  A    between atoms: O_9  and  C_10
REMARK    4  A    between atoms: C_13  and  C_14
REMARK    5  A    between atoms: C_14  and  C_15
REMARK    6  A    between atoms: C_16  and  C_17
REMARK                            x       y       z     vdW  Elec       q    Type
REMARK                         _______ _______ _______ _____ _____    ______ ____
ROOT
ATOM      1  C   UNL     1      41.186   7.404  20.221  0.00  0.00    +0.000 A 
ATOM      2  C   UNL     1      40.587   8.575  19.885  0.00  0.00    +0.000 A 
ATOM      3  C   UNL     1      41.399   9.726  20.019  0.00  0.00    +0.000 A 
ATOM      4  C   UNL     1      42.698   9.658  20.459  0.00  0.00    +0.000 A 
ATOM      5  C   UNL     1      43.280   8.455  20.798  0.00  0.00    +0.000 A 
ATOM      6  C   UNL     1      44.578   8.336  21.245  0.00  0.00    +0.000 A 
ATOM      7  C   UNL     1      45.137   7.117  21.576  0.00  0.00    +0.000 A 
ATOM      8  O   UNL     1      46.432   6.992  22.023  0.00  0.00    +0.000 OA
ATOM      9  C   UNL     1      44.364   5.983  21.452  0.00  0.00    +0.000 A 
ATOM     10  C   UNL     1      43.043   6.101  20.996  0.00  0.00    +0.000 A 
ATOM     11  C   UNL     1      42.515   7.333  20.675  0.00  0.00    +0.000 A 
ENDROOT
BRANCH   2  12
ATOM     12  C   UNL     1      39.189   8.760  19.516  0.00  0.00    +0.000 A 
ATOM     13  C   UNL     1      38.937   9.276  18.224  0.00  0.00    +0.000 A 
ATOM     14  C   UNL     1      37.672   9.515  17.751  0.00  0.00    +0.000 A 
ATOM     15  C   UNL     1      36.556   9.261  18.528  0.00  0.00    +0.000 A 
ATOM     16  O   UNL     1      35.284   9.506  18.042  0.00  0.00    +0.000 OA
ATOM     17  C   UNL     1      36.791   8.756  19.792  0.00  0.00    +0.000 A 
ATOM     18  C   UNL     1      38.072   8.527  20.236  0.00  0.00    +0.000 A 
ENDBRANCH   2  12
BRANCH   1  19
ATOM     19  C   UNL     1      40.465   6.131  20.001  0.00  0.00    +0.000 C 
BRANCH  19  23
ATOM     20  C   UNL     1      39.456   5.645  15.834  0.00  0.00    +0.000 A 
ATOM     21  C   UNL     1      38.578   5.336  16.840  0.00  0.00    +0.000 A 
ATOM     22  C   UNL     1      38.938   5.502  18.133  0.00  0.00    +0.000 A 
ATOM     23  C   UNL     1      40.205   5.992  18.541  0.00  0.00    +0.000 A 
ATOM     24  C   UNL     1      41.025   6.278  17.499  0.00  0.00    +0.000 A 
ATOM     25  C   UNL     1      40.718   6.131  16.164  0.00  0.00    +0.000 A 
BRANCH  20  26
ATOM     26  O   UNL     1      39.043   5.459  14.528  0.00  0.00    +0.000 OA
BRANCH  26  27
ATOM     27  C   UNL     1      37.656   5.326  14.274  0.00  0.00    +0.000 C 
BRANCH  27  34
ATOM     28  C   UNL     1      37.198   2.455  14.964  0.00  0.00    +0.000 C 
ATOM     29  N   UNL     1      36.483   3.242  13.946  0.00  0.00    +0.000 NA
ATOM     30  C   UNL     1      35.594   4.094  14.569  0.00  0.00    +0.000 C 
ATOM     31  C   UNL     1      35.253   5.381  13.925  0.00  0.00    +0.000 C 
ATOM     32  C   UNL     1      35.831   5.581  12.563  0.00  0.00    +0.000 C 
ATOM     33  C   UNL     1      36.803   4.637  12.076  0.00  0.00    +0.000 C 
ATOM     34  C   UNL     1      37.693   4.003  13.297  0.00  0.00    +0.000 C 
ENDBRANCH  27  34
ENDBRANCH  26  27
ENDBRANCH  20  26
ENDBRANCH  19  23
ENDBRANCH   1  19
TORSDOF 6
ENDMDL
MODEL 6
REMARK VINA RESULT:      -7.4      7.050      9.753
REMARK  Name = 
REMARK  6 active torsions:
REMARK  status: ('A' for Active; 'I' for Inactive)
REMARK    1  A    between atoms: C_7  and  C_8
REMARK    2  A    between atoms: C_8  and  O_9
REMARK    3  A    between atoms: O_9  and  C_10
REMARK    4  A    between atoms: C_13  and  C_14
REMARK    5  A    between atoms: C_14  and  C_15
REMARK    6  A    between atoms: C_16  and  C_17
REMARK                            x       y       z     vdW  Elec       q    Type
REMARK                         _______ _______ _______ _____ _____    ______ ____
ROOT
ATOM      1  C   UNL     1      40.228   6.038  18.045  0.00  0.00    +0.000 A 
ATOM      2  C   UNL     1      41.490   6.529  18.143  0.00  0.00    +0.000 A 
ATOM      3  C   UNL     1      42.225   6.544  16.934  0.00  0.00    +0.000 A 
ATOM      4  C   UNL     1      41.697   6.091  15.751  0.00  0.00    +0.000 A 
ATOM      5  C   UNL     1      40.413   5.592  15.680  0.00  0.00    +0.000 A 
ATOM      6  C   UNL     1      39.840   5.126  14.517  0.00  0.00    +0.000 A 
ATOM      7  C   UNL     1      38.550   4.634  14.474  0.00  0.00    +0.000 A 
ATOM      8  O   UNL     1      37.972   4.167  13.316  0.00  0.00    +0.000 OA
ATOM      9  C   UNL     1      37.815   4.612  15.640  0.00  0.00    +0.000 A 
ATOM     10  C   UNL     1      38.396   5.087  16.825  0.00  0.00    +0.000 A 
ATOM     11  C   UNL     1      39.686   5.571  16.833  0.00  0.00    +0.000 A 
ENDROOT
BRANCH   2  12
ATOM     12  C   UNL     1      42.173   6.927  19.368  0.00  0.00    +0.000 A 
ATOM     13  C   UNL     1      42.502   8.296  19.494  0.00  0.00    +0.000 A 
ATOM     14  C   UNL     1      43.159   8.808  20.584  0.00  0.00    +0.000 A 
ATOM     15  C   UNL     1      43.540   7.995  21.636  0.00  0.00    +0.000 A 
ATOM     16  O   UNL     1      44.203   8.520  22.732  0.00  0.00    +0.000 OA
ATOM     17  C   UNL     1      43.223   6.656  21.524  0.00  0.00    +0.000 A 
ATOM     18  C   UNL     1      42.564   6.175  20.417  0.00  0.00    +0.000 A 
ENDBRANCH   2  12
BRANCH   1  19
ATOM     19  C   UNL     1      39.334   6.092  19.222  0.00  0.00    +0.000 C 
BRANCH  19  23
ATOM     20  C   UNL     1      38.145  10.161  20.025  0.00  0.00    +0.000 A 
ATOM     21  C   UNL     1      38.632   9.335  21.004  0.00  0.00    +0.000 A 
ATOM     22  C   UNL     1      38.991   8.065  20.707  0.00  0.00    +0.000 A 
ATOM     23  C   UNL     1      38.897   7.504  19.408  0.00  0.00    +0.000 A 
ATOM     24  C   UNL     1      38.409   8.372  18.487  0.00  0.00    +0.000 A 
ATOM     25  C   UNL     1      38.027   9.674  18.726  0.00  0.00    +0.000 A 
BRANCH  20  26
ATOM     26  O   UNL     1      37.792  11.451  20.377  0.00  0.00    +0.000 OA
BRANCH  26  27
ATOM     27  C   UNL     1      38.551  12.107  21.376  0.00  0.00    +0.000 C 
BRANCH  27  34
ATOM     28  C   UNL     1      37.631  14.461  22.970  0.00  0.00    +0.000 C 
ATOM     29  N   UNL     1      38.877  14.354  22.194  0.00  0.00    +0.000 NA
ATOM     30  C   UNL     1      39.774  13.557  22.878  0.00  0.00    +0.000 C 
ATOM     31  C   UNL     1      40.767  12.770  22.118  0.00  0.00    +0.000 C 
ATOM     32  C   UNL     1      40.780  13.016  20.645  0.00  0.00    +0.000 C 
ATOM     33  C   UNL     1      39.733  13.818  20.067  0.00  0.00    +0.000 C 
ATOM     34  C   UNL     1      38.328  13.664  20.896  0.00  0.00    +0.000 C 
ENDBRANCH  27  34
ENDBRANCH  26  27
ENDBRANCH  20  26
ENDBRANCH  19  23
ENDBRANCH   1  19
TORSDOF 6
ENDMDL
MODEL 7
REMARK VINA RESULT:      -7.4      6.905     10.291
REMARK  Name = 
REMARK  6 active torsions:
REMARK  status: ('A' for Active; 'I' for Inactive)
REMARK    1  A    between atoms: C_7  and  C_8
REMARK    2  A    between atoms: C_8  and  O_9
REMARK    3  A    between atoms: O_9  and  C_10
REMARK    4  A    between atoms: C_13  and  C_14
REMARK    5  A    between atoms: C_14  and  C_15
REMARK    6  A    between atoms: C_16  and  C_17
REMARK                            x       y       z     vdW  Elec       q    Type
REMARK                         _______ _______ _______ _____ _____    ______ ____
ROOT
ATOM      1  C   UNL     1      38.421   6.143  17.109  0.00  0.00    +0.000 A 
ATOM      2  C   UNL     1      38.058   7.451  17.128  0.00  0.00    +0.000 A 
ATOM      3  C   UNL     1      37.459   7.927  15.937  0.00  0.00    +0.000 A 
ATOM      4  C   UNL     1      37.266   7.120  14.843  0.00  0.00    +0.000 A 
ATOM      5  C   UNL     1      37.649   5.795  14.849  0.00  0.00    +0.000 A 
ATOM      6  C   UNL     1      37.476   4.948  13.777  0.00  0.00    +0.000 A 
ATOM      7  C   UNL     1      37.868   3.624  13.811  0.00  0.00    +0.000 A 
ATOM      8  O   UNL     1      37.698   2.772  12.744  0.00  0.00    +0.000 OA
ATOM      9  C   UNL     1      38.451   3.139  14.961  0.00  0.00    +0.000 A 
ATOM     10  C   UNL     1      38.628   4.000  16.055  0.00  0.00    +0.000 A 
ATOM     11  C   UNL     1      38.226   5.316  15.988  0.00  0.00    +0.000 A 
ENDROOT
BRANCH   2  12
ATOM     12  C   UNL     1      38.322   8.409  18.194  0.00  0.00    +0.000 A 
ATOM     13  C   UNL     1      37.469   8.356  19.321  0.00  0.00    +0.000 A 
ATOM     14  C   UNL     1      37.591   9.207  20.389  0.00  0.00    +0.000 A 
ATOM     15  C   UNL     1      38.574  10.180  20.421  0.00  0.00    +0.000 A 
ATOM     16  O   UNL     1      38.689  11.035  21.504  0.00  0.00    +0.000 OA
ATOM     17  C   UNL     1      39.413  10.241  19.327  0.00  0.00    +0.000 A 
ATOM     18  C   UNL     1      39.264   9.372  18.271  0.00  0.00    +0.000 A 
ENDBRANCH   2  12
BRANCH   1  19
ATOM     19  C   UNL     1      38.943   5.516  18.344  0.00  0.00    +0.000 C 
BRANCH  19  23
ATOM     20  C   UNL     1      42.908   6.959  19.250  0.00  0.00    +0.000 A 
ATOM     21  C   UNL     1      41.952   6.789  20.218  0.00  0.00    +0.000 A 
ATOM     22  C   UNL     1      40.721   6.336  19.888  0.00  0.00    +0.000 A 
ATOM     23  C   UNL     1      40.331   6.011  18.563  0.00  0.00    +0.000 A 
ATOM     24  C   UNL     1      41.321   6.201  17.655  0.00  0.00    +0.000 A 
ATOM     25  C   UNL     1      42.592   6.658  17.928  0.00  0.00    +0.000 A 
BRANCH  20  26
ATOM     26  O   UNL     1      44.151   7.423  19.637  0.00  0.00    +0.000 OA
BRANCH  26  27
ATOM     27  C   UNL     1      44.526   7.291  20.996  0.00  0.00    +0.000 C 
BRANCH  27  34
ATOM     28  C   UNL     1      47.492   7.004  20.789  0.00  0.00    +0.000 C 
ATOM     29  N   UNL     1      46.617   6.394  21.803  0.00  0.00    +0.000 NA
ATOM     30  C   UNL     1      46.230   7.359  22.712  0.00  0.00    +0.000 C 
ATOM     31  C   UNL     1      44.924   7.231  23.391  0.00  0.00    +0.000 C 
ATOM     32  C   UNL     1      44.182   5.967  23.106  0.00  0.00    +0.000 C 
ATOM     33  C   UNL     1      44.676   5.090  22.077  0.00  0.00    +0.000 C 
ATOM     34  C   UNL     1      45.433   5.923  20.887  0.00  0.00    +0.000 C 
ENDBRANCH  27  34
ENDBRANCH  26  27
ENDBRANCH  20  26
ENDBRANCH  19  23
ENDBRANCH   1  19
TORSDOF 6
ENDMDL
MODEL 8
REMARK VINA RESULT:      -7.3      2.617      5.039
REMARK  Name = 
REMARK  6 active torsions:
REMARK  status: ('A' for Active; 'I' for Inactive)
REMARK    1  A    between atoms: C_7  and  C_8
REMARK    2  A    between atoms: C_8  and  O_9
REMARK    3  A    between atoms: O_9  and  C_10
REMARK    4  A    between atoms: C_13  and  C_14
REMARK    5  A    between atoms: C_14  and  C_15
REMARK    6  A    between atoms: C_16  and  C_17
REMARK                            x       y       z     vdW  Elec       q    Type
REMARK                         _______ _______ _______ _____ _____    ______ ____
ROOT
ATOM      1  C   UNL     1      38.435  -1.588  14.030  0.00  0.00    +0.000 A 
ATOM      2  C   UNL     1      38.139  -1.948  15.305  0.00  0.00    +0.000 A 
ATOM      3  C   UNL     1      39.184  -2.597  16.005  0.00  0.00    +0.000 A 
ATOM      4  C   UNL     1      40.405  -2.845  15.429  0.00  0.00    +0.000 A 
ATOM      5  C   UNL     1      40.678  -2.473  14.130  0.00  0.00    +0.000 A 
ATOM      6  C   UNL     1      41.887  -2.700  13.511  0.00  0.00    +0.000 A 
ATOM      7  C   UNL     1      42.134  -2.315  12.207  0.00  0.00    +0.000 A 
ATOM      8  O   UNL     1      43.339  -2.539  11.583  0.00  0.00    +0.000 OA
ATOM      9  C   UNL     1      41.131  -1.679  11.508  0.00  0.00    +0.000 A 
ATOM     10  C   UNL     1      39.899  -1.445  12.137  0.00  0.00    +0.000 A 
ATOM     11  C   UNL     1      39.685  -1.844  13.439  0.00  0.00    +0.000 A 
ENDROOT
BRANCH   2  12
ATOM     12  C   UNL     1      36.843  -1.828  15.962  0.00  0.00    +0.000 A 
ATOM     13  C   UNL     1      35.896  -2.842  15.687  0.00  0.00    +0.000 A 
ATOM     14  C   UNL     1      34.633  -2.848  16.223  0.00  0.00    +0.000 A 
ATOM     15  C   UNL     1      34.213  -1.844  17.076  0.00  0.00    +0.000 A 
ATOM     16  O   UNL     1      32.937  -1.858  17.611  0.00  0.00    +0.000 OA
ATOM     17  C   UNL     1      35.130  -0.849  17.352  0.00  0.00    +0.000 A 
ATOM     18  C   UNL     1      36.388  -0.872  16.798  0.00  0.00    +0.000 A 
ENDBRANCH   2  12
BRANCH   1  19
ATOM     19  C   UNL     1      37.456  -0.795  13.254  0.00  0.00    +0.000 C 
BRANCH  19  23
ATOM     20  C   UNL     1      37.262   3.266  14.698  0.00  0.00    +0.000 A 
ATOM     21  C   UNL     1      36.154   2.597  14.247  0.00  0.00    +0.000 A 
ATOM     22  C   UNL     1      36.263   1.325  13.801  0.00  0.00    +0.000 A 
ATOM     23  C   UNL     1      37.484   0.604  13.764  0.00  0.00    +0.000 A 
ATOM     24  C   UNL     1      38.539   1.322  14.224  0.00  0.00    +0.000 A 
ATOM     25  C   UNL     1      38.494   2.618  14.690  0.00  0.00    +0.000 A 
BRANCH  20  26
ATOM     26  O   UNL     1      37.102   4.565  15.144  0.00  0.00    +0.000 OA
BRANCH  26  27
ATOM     27  C   UNL     1      36.167   5.394  14.478  0.00  0.00    +0.000 C 
BRANCH  27  34
ATOM     28  C   UNL     1      36.619   5.138  11.535  0.00  0.00    +0.000 C 
ATOM     29  N   UNL     1      36.249   6.360  12.267  0.00  0.00    +0.000 NA
ATOM     30  C   UNL     1      34.914   6.297  12.615  0.00  0.00    +0.000 C 
ATOM     31  C   UNL     1      34.452   6.990  13.836  0.00  0.00    +0.000 C 
ATOM     32  C   UNL     1      35.487   7.815  14.528  0.00  0.00    +0.000 C 
ATOM     33  C   UNL     1      36.855   7.721  14.091  0.00  0.00    +0.000 C 
ATOM     34  C   UNL     1      37.201   6.229  13.508  0.00  0.00    +0.000 C 
ENDBRANCH  27  34
ENDBRANCH  26  27
ENDBRANCH  20  26
ENDBRANCH  19  23
ENDBRANCH   1  19
TORSDOF 6
ENDMDL
MODEL 9
REMARK VINA RESULT:      -7.3      4.334      7.500
REMARK  Name = 
REMARK  6 active torsions:
REMARK  status: ('A' for Active; 'I' for Inactive)
REMARK    1  A    between atoms: C_7  and  C_8
REMARK    2  A    between atoms: C_8  and  O_9
REMARK    3  A    between atoms: O_9  and  C_10
REMARK    4  A    between atoms: C_13  and  C_14
REMARK    5  A    between atoms: C_14  and  C_15
REMARK    6  A    between atoms: C_16  and  C_17
REMARK                            x       y       z     vdW  Elec       q    Type
REMARK                         _______ _______ _______ _____ _____    ______ ____
ROOT
ATOM      1  C   UNL     1      37.295  -2.668  16.147  0.00  0.00    +0.000 A 
ATOM      2  C   UNL     1      36.358  -2.014  15.416  0.00  0.00    +0.000 A 
ATOM      3  C   UNL     1      35.242  -2.794  15.031  0.00  0.00    +0.000 A 
ATOM      4  C   UNL     1      35.123  -4.118  15.372  0.00  0.00    +0.000 A 
ATOM      5  C   UNL     1      36.092  -4.761  16.112  0.00  0.00    +0.000 A 
ATOM      6  C   UNL     1      36.017  -6.086  16.479  0.00  0.00    +0.000 A 
ATOM      7  C   UNL     1      37.003  -6.705  17.223  0.00  0.00    +0.000 A 
ATOM      8  O   UNL     1      36.934  -8.028  17.592  0.00  0.00    +0.000 OA
ATOM      9  C   UNL     1      38.098  -5.963  17.610  0.00  0.00    +0.000 A 
ATOM     10  C   UNL     1      38.176  -4.612  17.239  0.00  0.00    +0.000 A 
ATOM     11  C   UNL     1      37.175  -4.026  16.496  0.00  0.00    +0.000 A 
ENDROOT
BRANCH   2  12
ATOM     12  C   UNL     1      36.448  -0.648  14.912  0.00  0.00    +0.000 A 
ATOM     13  C   UNL     1      36.857  -0.494  13.568  0.00  0.00    +0.000 A 
ATOM     14  C   UNL     1      37.000   0.732  12.968  0.00  0.00    +0.000 A 
ATOM     15  C   UNL     1      36.747   1.902  13.661  0.00  0.00    +0.000 A 
ATOM     16  O   UNL     1      36.895   3.134  13.048  0.00  0.00    +0.000 OA
ATOM     17  C   UNL     1      36.346   1.762  14.975  0.00  0.00    +0.000 A 
ATOM     18  C   UNL     1      36.213   0.519  15.547  0.00  0.00    +0.000 A 
ENDBRANCH   2  12
BRANCH   1  19
ATOM     19  C   UNL     1      38.440  -1.914  16.704  0.00  0.00    +0.000 C 
BRANCH  19  23
ATOM     20  C   UNL     1      41.458  -1.392  13.664  0.00  0.00    +0.000 A 
ATOM     21  C   UNL     1      40.760  -0.336  14.191  0.00  0.00    +0.000 A 
ATOM     22  C   UNL     1      39.821  -0.547  15.140  0.00  0.00    +0.000 A 
ATOM     23  C   UNL     1      39.492  -1.829  15.652  0.00  0.00    +0.000 A 
ATOM     24  C   UNL     1      40.218  -2.828  15.091  0.00  0.00    +0.000 A 
ATOM     25  C   UNL     1      41.186  -2.678  14.122  0.00  0.00    +0.000 A 
BRANCH  20  26
ATOM     26  O   UNL     1      42.408  -1.127  12.696  0.00  0.00    +0.000 OA
BRANCH  26  27
ATOM     27  C   UNL     1      42.367  -1.870  11.492  0.00  0.00    +0.000 C 
BRANCH  27  34
ATOM     28  C   UNL     1      43.623  -0.695   9.049  0.00  0.00    +0.000 C 
ATOM     29  N   UNL     1      42.301  -1.335   9.139  0.00  0.00    +0.000 NA
ATOM     30  C   UNL     1      42.461  -2.704   9.222  0.00  0.00    +0.000 C 
ATOM     31  C   UNL     1      41.454  -3.508   9.947  0.00  0.00    +0.000 C 
ATOM     32  C   UNL     1      40.263  -2.747  10.430  0.00  0.00    +0.000 C 
ATOM     33  C   UNL     1      40.273  -1.310  10.336  0.00  0.00    +0.000 C 
ATOM     34  C   UNL     1      41.789  -0.707  10.483  0.00  0.00    +0.000 C 
ENDBRANCH  27  34
ENDBRANCH  26  27
ENDBRANCH  20  26
ENDBRANCH  19  23
ENDBRANCH   1  19
TORSDOF 6
ENDMDL
MODEL 10
REMARK VINA RESULT:      -7.2      2.719      3.786
REMARK  Name = 
REMARK  6 active torsions:
REMARK  status: ('A' for Active; 'I' for Inactive)
REMARK    1  A    between atoms: C_7  and  C_8
REMARK    2  A    between atoms: C_8  and  O_9
REMARK    3  A    between atoms: O_9  and  C_10
REMARK    4  A    between atoms: C_13  and  C_14
REMARK    5  A    between atoms: C_14  and  C_15
REMARK    6  A    between atoms: C_16  and  C_17
REMARK                            x       y       z     vdW  Elec       q    Type
REMARK                         _______ _______ _______ _____ _____    ______ ____
ROOT
ATOM      1  C   UNL     1      37.885  -0.945  15.052  0.00  0.00    +0.000 A 
ATOM      2  C   UNL     1      38.947  -1.757  14.821  0.00  0.00    +0.000 A 
ATOM      3  C   UNL     1      39.349  -2.550  15.922  0.00  0.00    +0.000 A 
ATOM      4  C   UNL     1      38.709  -2.493  17.136  0.00  0.00    +0.000 A 
ATOM      5  C   UNL     1      37.636  -1.655  17.345  0.00  0.00    +0.000 A 
ATOM      6  C   UNL     1      36.963  -1.563  18.544  0.00  0.00    +0.000 A 
ATOM      7  C   UNL     1      35.888  -0.714  18.725  0.00  0.00    +0.000 A 
ATOM      8  O   UNL     1      35.212  -0.618  19.919  0.00  0.00    +0.000 OA
ATOM      9  C   UNL     1      35.478   0.065  17.665  0.00  0.00    +0.000 A 
ATOM     10  C   UNL     1      36.161  -0.028  16.443  0.00  0.00    +0.000 A 
ATOM     11  C   UNL     1      37.230  -0.884  16.296  0.00  0.00    +0.000 A 
ENDROOT
BRANCH   2  12
ATOM     12  C   UNL     1      39.755  -1.805  13.609  0.00  0.00    +0.000 A 
ATOM     13  C   UNL     1      40.931  -1.020  13.598  0.00  0.00    +0.000 A 
ATOM     14  C   UNL     1      41.777  -0.957  12.521  0.00  0.00    +0.000 A 
ATOM     15  C   UNL     1      41.518  -1.673  11.365  0.00  0.00    +0.000 A 
ATOM     16  O   UNL     1      42.377  -1.603  10.282  0.00  0.00    +0.000 OA
ATOM     17  C   UNL     1      40.373  -2.444  11.364  0.00  0.00    +0.000 A 
ATOM     18  C   UNL     1      39.546  -2.485  12.462  0.00  0.00    +0.000 A 
ENDBRANCH   2  12
BRANCH   1  19
ATOM     19  C   UNL     1      37.309  -0.167  13.933  0.00  0.00    +0.000 C 
BRANCH  19  23
ATOM     20  C   UNL     1      37.888   4.064  14.553  0.00  0.00    +0.000 A 
ATOM     21  C   UNL     1      36.715   3.551  14.063  0.00  0.00    +0.000 A 
ATOM     22  C   UNL     1      36.579   2.217  13.883  0.00  0.00    +0.000 A 
ATOM     23  C   UNL     1      37.598   1.275  14.174  0.00  0.00    +0.000 A 
ATOM     24  C   UNL     1      38.730   1.847  14.655  0.00  0.00    +0.000 A 
ATOM     25  C   UNL     1      38.930   3.195  14.861  0.00  0.00    +0.000 A 
BRANCH  20  26
ATOM     26  O   UNL     1      37.980   5.433  14.721  0.00  0.00    +0.000 OA
BRANCH  26  27
ATOM     27  C   UNL     1      38.140   5.941  16.033  0.00  0.00    +0.000 C 
BRANCH  27  34
ATOM     28  C   UNL     1      38.261   8.926  16.044  0.00  0.00    +0.000 C 
ATOM     29  N   UNL     1      39.072   8.009  16.860  0.00  0.00    +0.000 NA
ATOM     30  C   UNL     1      38.295   7.497  17.880  0.00  0.00    +0.000 C 
ATOM     31  C   UNL     1      38.593   6.150  18.411  0.00  0.00    +0.000 C 
ATOM     32  C   UNL     1      39.820   5.506  17.854  0.00  0.00    +0.000 C 
ATOM     33  C   UNL     1      40.486   6.129  16.739  0.00  0.00    +0.000 C 
ATOM     34  C   UNL     1      39.429   6.930  15.777  0.00  0.00    +0.000 C 
ENDBRANCH  27  34
ENDBRANCH  26  27
ENDBRANCH  20  26
ENDBRANCH  19  23
ENDBRANCH   1  19
TORSDOF 6
ENDMDL
