MODEL 1
REMARK VINA RESULT:      -7.9      0.000      0.000
REMARK  Name = 
REMARK  6 active torsions:
REMARK  status: ('A' for Active; 'I' for Inactive)
REMARK    1  A    between atoms: C_2  and  N_3
REMARK    2  A    between atoms: C_2  and  C_27
REMARK    3  A    between atoms: C_4  and  C_6
REMARK    4  A    between atoms: C_7  and  N_8
REMARK    5  A    between atoms: C_9  and  C_11
REMARK    6  A    between atoms: C_21  and  C_22
REMARK                            x       y       z     vdW  Elec       q    Type
REMARK                         _______ _______ _______ _____ _____    ______ ____
ROOT
ATOM      1  C   UNL     1      37.990   3.006  15.259  0.00  0.00    +0.000 A 
ATOM      2  C   UNL     1      38.614   4.165  15.615  0.00  0.00    +0.000 A 
ATOM      3  S   UNL     1      39.785   4.358  14.277  0.00  0.00    +0.000 S 
ATOM      4  C   UNL     1      39.413   2.992  13.395  0.00  0.00    +0.000 A 
ATOM      5  C   UNL     1      38.409   2.405  14.115  0.00  0.00    +0.000 A 
ATOM      6  C   UNL     1      37.969   1.109  13.407  0.00  0.00    +0.000 C 
ATOM      7  C   UNL     1      39.168   0.282  13.383  0.00  0.00    +0.000 C 
ATOM      8  C   UNL     1      40.383   0.838  12.548  0.00  0.00    +0.000 C 
ATOM      9  C   UNL     1      39.841   2.270  12.113  0.00  0.00    +0.000 C 
ENDROOT
BRANCH   8  10
ATOM     10  C   UNL     1      40.000   0.097  11.153  0.00  0.00    +0.000 C 
ATOM     11  C   UNL     1      39.476  -1.262  11.548  0.00  0.00    +0.000 C 
ATOM     12  C   UNL     1      41.237   0.041  10.321  0.00  0.00    +0.000 C 
ATOM     13  C   UNL     1      38.966   0.931  10.448  0.00  0.00    +0.000 C 
ENDBRANCH   8  10
BRANCH   1  15
ATOM     14  N   UNL     1      36.845   1.210  16.647  0.00  0.00    +0.000 NA
ATOM     15  C   UNL     1      36.788   2.461  15.995  0.00  0.00    +0.000 C 
ATOM     16  O   UNL     1      35.740   3.078  16.050  0.00  0.00    +0.000 OA
BRANCH  14  18
ATOM     17  C   UNL     1      36.157   0.367  18.727  0.00  0.00    +0.000 C 
ATOM     18  C   UNL     1      35.472   0.891  17.325  0.00  0.00    +0.000 C 
BRANCH  18  19
ATOM     19  C   UNL     1      35.311  -0.566  16.693  0.00  0.00    +0.000 A 
ATOM     20  C   UNL     1      36.094  -1.008  15.717  0.00  0.00    +0.000 A 
ATOM     21  C   UNL     1      35.920  -2.265  15.203  0.00  0.00    +0.000 A 
ATOM     22  C   UNL     1      34.928  -3.049  15.718  0.00  0.00    +0.000 A 
ATOM     23  C   UNL     1      34.115  -2.597  16.729  0.00  0.00    +0.000 A 
ATOM     24  C   UNL     1      34.298  -1.311  17.250  0.00  0.00    +0.000 A 
ENDBRANCH  18  19
ENDBRANCH  14  18
ENDBRANCH   1  15
BRANCH   2  25
ATOM     25  N   UNL     1      38.662   5.036  16.680  0.00  0.00    +0.000 NA
ATOM     26  C   UNL     1      38.691   5.186  18.005  0.00  0.00    +0.000 C 
ATOM     27  O   UNL     1      38.705   4.187  18.739  0.00  0.00    +0.000 OA
BRANCH  26  28
ATOM     28  C   UNL     1      38.711   6.499  18.728  0.00  0.00    +0.000 A 
ATOM     29  C   UNL     1      39.488   6.827  19.791  0.00  0.00    +0.000 A 
ATOM     30  C   UNL     1      39.195   8.116  20.144  0.00  0.00    +0.000 A 
ATOM     31  C   UNL     1      38.230   8.490  19.242  0.00  0.00    +0.000 A 
ATOM     32  O   UNL     1      37.968   7.519  18.423  0.00  0.00    +0.000 OA
ENDBRANCH  26  28
ENDBRANCH   2  25
TORSDOF 6
ENDMDL
MODEL 2
REMARK VINA RESULT:      -7.9      2.045      6.782
REMARK  Name = 
REMARK  6 active torsions:
REMARK  status: ('A' for Active; 'I' for Inactive)
REMARK    1  A    between atoms: C_2  and  N_3
REMARK    2  A    between atoms: C_2  and  C_27
REMARK    3  A    between atoms: C_4  and  C_6
REMARK    4  A    between atoms: C_7  and  N_8
REMARK    5  A    between atoms: C_9  and  C_11
REMARK    6  A    between atoms: C_21  and  C_22
REMARK                            x       y       z     vdW  Elec       q    Type
REMARK                         _______ _______ _______ _____ _____    ______ ____
ROOT
ATOM      1  C   UNL     1      38.007   3.930  15.888  0.00  0.00    +0.000 A 
ATOM      2  C   UNL     1      38.490   3.859  14.615  0.00  0.00    +0.000 A 
ATOM      3  S   UNL     1      39.956   4.874  14.740  0.00  0.00    +0.000 S 
ATOM      4  C   UNL     1      39.848   5.308  16.348  0.00  0.00    +0.000 A 
ATOM      5  C   UNL     1      38.710   4.681  16.775  0.00  0.00    +0.000 A 
ATOM      6  C   UNL     1      38.481   5.007  18.264  0.00  0.00    +0.000 C 
ATOM      7  C   UNL     1      38.344   6.457  18.302  0.00  0.00    +0.000 C 
ATOM      8  C   UNL     1      39.609   7.289  17.868  0.00  0.00    +0.000 C 
ATOM      9  C   UNL     1      40.600   6.138  17.393  0.00  0.00    +0.000 C 
ENDROOT
BRANCH   8  10
ATOM     10  C   UNL     1      40.248   7.439  19.355  0.00  0.00    +0.000 C 
ATOM     11  C   UNL     1      39.074   7.641  20.281  0.00  0.00    +0.000 C 
ATOM     12  C   UNL     1      41.189   8.596  19.324  0.00  0.00    +0.000 C 
ATOM     13  C   UNL     1      41.017   6.184  19.663  0.00  0.00    +0.000 C 
ENDBRANCH   8  10
BRANCH   1  15
ATOM     14  N   UNL     1      36.993   1.756  16.735  0.00  0.00    +0.000 NA
ATOM     15  C   UNL     1      36.831   3.110  16.367  0.00  0.00    +0.000 C 
ATOM     16  O   UNL     1      35.713   3.587  16.450  0.00  0.00    +0.000 OA
BRANCH  14  18
ATOM     17  C   UNL     1      36.232   0.534  18.588  0.00  0.00    +0.000 C 
ATOM     18  C   UNL     1      35.624   1.151  17.189  0.00  0.00    +0.000 C 
BRANCH  18  19
ATOM     19  C   UNL     1      35.763  -0.207  16.363  0.00  0.00    +0.000 A 
ATOM     20  C   UNL     1      36.549  -0.315  15.299  0.00  0.00    +0.000 A 
ATOM     21  C   UNL     1      36.637  -1.500  14.618  0.00  0.00    +0.000 A 
ATOM     22  C   UNL     1      35.900  -2.562  15.059  0.00  0.00    +0.000 A 
ATOM     23  C   UNL     1      35.086  -2.455  16.160  0.00  0.00    +0.000 A 
ATOM     24  C   UNL     1      35.000  -1.242  16.851  0.00  0.00    +0.000 A 
ENDBRANCH  18  19
ENDBRANCH  14  18
ENDBRANCH   1  15
BRANCH   2  25
ATOM     25  N   UNL     1      38.107   3.380  13.383  0.00  0.00    +0.000 NA
ATOM     26  C   UNL     1      38.067   2.342  12.546  0.00  0.00    +0.000 C 
ATOM     27  O   UNL     1      38.522   1.245  12.901  0.00  0.00    +0.000 OA
BRANCH  26  28
ATOM     28  C   UNL     1      37.502   2.369  11.158  0.00  0.00    +0.000 A 
ATOM     29  C   UNL     1      37.173   1.296  10.395  0.00  0.00    +0.000 A 
ATOM     30  C   UNL     1      36.694   1.761   9.201  0.00  0.00    +0.000 A 
ATOM     31  C   UNL     1      36.769   3.125   9.327  0.00  0.00    +0.000 A 
ATOM     32  O   UNL     1      37.247   3.452  10.488  0.00  0.00    +0.000 OA
ENDBRANCH  26  28
ENDBRANCH   2  25
TORSDOF 6
ENDMDL
MODEL 3
REMARK VINA RESULT:      -7.7      3.475      7.835
REMARK  Name = 
REMARK  6 active torsions:
REMARK  status: ('A' for Active; 'I' for Inactive)
REMARK    1  A    between atoms: C_2  and  N_3
REMARK    2  A    between atoms: C_2  and  C_27
REMARK    3  A    between atoms: C_4  and  C_6
REMARK    4  A    between atoms: C_7  and  N_8
REMARK    5  A    between atoms: C_9  and  C_11
REMARK    6  A    between atoms: C_21  and  C_22
REMARK                            x       y       z     vdW  Elec       q    Type
REMARK                         _______ _______ _______ _____ _____    ______ ____
ROOT
ATOM      1  C   UNL     1      37.469   3.798  15.318  0.00  0.00    +0.000 A 
ATOM      2  C   UNL     1      37.598   2.524  14.849  0.00  0.00    +0.000 A 
ATOM      3  S   UNL     1      37.200   2.746  13.120  0.00  0.00    +0.000 S 
ATOM      4  C   UNL     1      36.899   4.387  13.121  0.00  0.00    +0.000 A 
ATOM      5  C   UNL     1      37.105   4.752  14.423  0.00  0.00    +0.000 A 
ATOM      6  C   UNL     1      36.850   6.265  14.571  0.00  0.00    +0.000 C 
ATOM      7  C   UNL     1      35.459   6.440  14.176  0.00  0.00    +0.000 C 
ATOM      8  C   UNL     1      35.108   6.088  12.681  0.00  0.00    +0.000 C 
ATOM      9  C   UNL     1      36.494   5.506  12.157  0.00  0.00    +0.000 C 
ENDROOT
BRANCH   8  10
ATOM     10  C   UNL     1      35.331   7.582  12.083  0.00  0.00    +0.000 C 
ATOM     11  C   UNL     1      35.071   8.521  13.236  0.00  0.00    +0.000 C 
ATOM     12  C   UNL     1      34.383   7.757  10.945  0.00  0.00    +0.000 C 
ATOM     13  C   UNL     1      36.742   7.676  11.571  0.00  0.00    +0.000 C 
ENDBRANCH   8  10
BRANCH   1  15
ATOM     14  N   UNL     1      38.695   5.297  16.966  0.00  0.00    +0.000 NA
ATOM     15  C   UNL     1      37.843   4.195  16.727  0.00  0.00    +0.000 C 
ATOM     16  O   UNL     1      37.427   3.584  17.695  0.00  0.00    +0.000 OA
BRANCH  14  18
ATOM     17  C   UNL     1      38.257   6.993  18.529  0.00  0.00    +0.000 C 
ATOM     18  C   UNL     1      38.916   5.485  18.503  0.00  0.00    +0.000 C 
BRANCH  18  19
ATOM     19  C   UNL     1      40.425   5.993  18.391  0.00  0.00    +0.000 A 
ATOM     20  C   UNL     1      41.157   6.291  19.457  0.00  0.00    +0.000 A 
ATOM     21  C   UNL     1      42.447   6.725  19.316  0.00  0.00    +0.000 A 
ATOM     22  C   UNL     1      42.961   6.842  18.056  0.00  0.00    +0.000 A 
ATOM     23  C   UNL     1      42.209   6.534  16.949  0.00  0.00    +0.000 A 
ATOM     24  C   UNL     1      40.890   6.091  17.101  0.00  0.00    +0.000 A 
ENDBRANCH  18  19
ENDBRANCH  14  18
ENDBRANCH   1  15
BRANCH   2  25
ATOM     25  N   UNL     1      37.795   1.251  15.335  0.00  0.00    +0.000 NA
ATOM     26  C   UNL     1      37.257   0.065  15.620  0.00  0.00    +0.000 C 
ATOM     27  O   UNL     1      36.060  -0.145  15.377  0.00  0.00    +0.000 OA
BRANCH  26  28
ATOM     28  C   UNL     1      37.987  -1.094  16.229  0.00  0.00    +0.000 A 
ATOM     29  C   UNL     1      38.821  -1.954  15.591  0.00  0.00    +0.000 A 
ATOM     30  C   UNL     1      39.273  -2.861  16.510  0.00  0.00    +0.000 A 
ATOM     31  C   UNL     1      38.662  -2.476  17.677  0.00  0.00    +0.000 A 
ATOM     32  O   UNL     1      37.914  -1.435  17.480  0.00  0.00    +0.000 OA
ENDBRANCH  26  28
ENDBRANCH   2  25
TORSDOF 6
ENDMDL
MODEL 4
REMARK VINA RESULT:      -7.7      3.763      5.208
REMARK  Name = 
REMARK  6 active torsions:
REMARK  status: ('A' for Active; 'I' for Inactive)
REMARK    1  A    between atoms: C_2  and  N_3
REMARK    2  A    between atoms: C_2  and  C_27
REMARK    3  A    between atoms: C_4  and  C_6
REMARK    4  A    between atoms: C_7  and  N_8
REMARK    5  A    between atoms: C_9  and  C_11
REMARK    6  A    between atoms: C_21  and  C_22
REMARK                            x       y       z     vdW  Elec       q    Type
REMARK                         _______ _______ _______ _____ _____    ______ ____
ROOT
ATOM      1  C   UNL     1      39.213  -1.564  13.645  0.00  0.00    +0.000 A 
ATOM      2  C   UNL     1      38.468  -0.483  13.277  0.00  0.00    +0.000 A 
ATOM      3  S   UNL     1      39.000  -0.251  11.585  0.00  0.00    +0.000 S 
ATOM      4  C   UNL     1      40.100  -1.500  11.475  0.00  0.00    +0.000 A 
ATOM      5  C   UNL     1      40.055  -2.081  12.713  0.00  0.00    +0.000 A 
ATOM      6  C   UNL     1      41.044  -3.262  12.755  0.00  0.00    +0.000 C 
ATOM      7  C   UNL     1      42.343  -2.657  12.491  0.00  0.00    +0.000 C 
ATOM      8  C   UNL     1      42.529  -1.990  11.076  0.00  0.00    +0.000 C 
ATOM      9  C   UNL     1      41.066  -2.128  10.464  0.00  0.00    +0.000 C 
ENDROOT
BRANCH   8  10
ATOM     10  C   UNL     1      43.132  -3.303  10.332  0.00  0.00    +0.000 C 
ATOM     11  C   UNL     1      41.931  -4.095   9.876  0.00  0.00    +0.000 C 
ATOM     12  C   UNL     1      43.985  -4.026  11.319  0.00  0.00    +0.000 C 
ATOM     13  C   UNL     1      43.986  -2.840   9.185  0.00  0.00    +0.000 C 
ENDBRANCH   8  10
BRANCH   1  15
ATOM     14  N   UNL     1      37.814  -2.904  15.292  0.00  0.00    +0.000 NA
ATOM     15  C   UNL     1      39.035  -2.271  14.968  0.00  0.00    +0.000 C 
ATOM     16  O   UNL     1      39.930  -2.320  15.792  0.00  0.00    +0.000 OA
BRANCH  14  18
ATOM     17  C   UNL     1      36.662  -4.600  16.434  0.00  0.00    +0.000 C 
ATOM     18  C   UNL     1      37.902  -3.554  16.712  0.00  0.00    +0.000 C 
BRANCH  18  19
ATOM     19  C   UNL     1      37.002  -2.461  17.450  0.00  0.00    +0.000 A 
ATOM     20  C   UNL     1      37.415  -1.814  18.533  0.00  0.00    +0.000 A 
ATOM     21  C   UNL     1      36.610  -0.885  19.135  0.00  0.00    +0.000 A 
ATOM     22  C   UNL     1      35.379  -0.641  18.597  0.00  0.00    +0.000 A 
ATOM     23  C   UNL     1      34.948  -1.307  17.476  0.00  0.00    +0.000 A 
ATOM     24  C   UNL     1      35.775  -2.256  16.865  0.00  0.00    +0.000 A 
ENDBRANCH  18  19
ENDBRANCH  14  18
ENDBRANCH   1  15
BRANCH   2  25
ATOM     25  N   UNL     1      37.624   0.442  13.848  0.00  0.00    +0.000 NA
ATOM     26  C   UNL     1      37.186   1.018  14.969  0.00  0.00    +0.000 C 
ATOM     27  O   UNL     1      37.675   0.696  16.061  0.00  0.00    +0.000 OA
BRANCH  26  28
ATOM     28  C   UNL     1      36.116   2.065  15.043  0.00  0.00    +0.000 A 
ATOM     29  C   UNL     1      34.998   2.029  15.811  0.00  0.00    +0.000 A 
ATOM     30  C   UNL     1      34.292   3.178  15.580  0.00  0.00    +0.000 A 
ATOM     31  C   UNL     1      35.054   3.851  14.659  0.00  0.00    +0.000 A 
ATOM     32  O   UNL     1      36.120   3.172  14.364  0.00  0.00    +0.000 OA
ENDBRANCH  26  28
ENDBRANCH   2  25
TORSDOF 6
ENDMDL
MODEL 5
REMARK VINA RESULT:      -7.3      3.400      4.263
REMARK  Name = 
REMARK  6 active torsions:
REMARK  status: ('A' for Active; 'I' for Inactive)
REMARK    1  A    between atoms: C_2  and  N_3
REMARK    2  A    between atoms: C_2  and  C_27
REMARK    3  A    between atoms: C_4  and  C_6
REMARK    4  A    between atoms: C_7  and  N_8
REMARK    5  A    between atoms: C_9  and  C_11
REMARK    6  A    between atoms: C_21  and  C_22
REMARK                            x       y       z     vdW  Elec       q    Type
REMARK                         _______ _______ _______ _____ _____    ______ ____
ROOT
ATOM      1  C   UNL     1      38.118   1.362  13.762  0.00  0.00    +0.000 A 
ATOM      2  C   UNL     1      37.866   2.576  13.197  0.00  0.00    +0.000 A 
ATOM      3  S   UNL     1      39.333   2.812  12.202  0.00  0.00    +0.000 S 
ATOM      4  C   UNL     1      40.138   1.397  12.571  0.00  0.00    +0.000 A 
ATOM      5  C   UNL     1      39.292   0.761  13.438  0.00  0.00    +0.000 A 
ATOM      6  C   UNL     1      39.924  -0.576  13.872  0.00  0.00    +0.000 C 
ATOM      7  C   UNL     1      41.172  -0.194  14.520  0.00  0.00    +0.000 C 
ATOM      8  C   UNL     1      42.245   0.513  13.608  0.00  0.00    +0.000 C 
ATOM      9  C   UNL     1      41.446   0.671  12.241  0.00  0.00    +0.000 C 
ENDROOT
BRANCH   8  10
ATOM     10  C   UNL     1      43.034  -0.839  13.171  0.00  0.00    +0.000 C 
ATOM     11  C   UNL     1      42.983  -1.744  14.378  0.00  0.00    +0.000 C 
ATOM     12  C   UNL     1      44.418  -0.444  12.779  0.00  0.00    +0.000 C 
ATOM     13  C   UNL     1      42.331  -1.427  11.979  0.00  0.00    +0.000 C 
ENDBRANCH   8  10
BRANCH   1  15
ATOM     14  N   UNL     1      37.243   0.533  16.002  0.00  0.00    +0.000 NA
ATOM     15  C   UNL     1      37.102   0.619  14.599  0.00  0.00    +0.000 C 
ATOM     16  O   UNL     1      36.136   0.075  14.095  0.00  0.00    +0.000 OA
BRANCH  14  18
ATOM     17  C   UNL     1      35.765   0.813  17.803  0.00  0.00    +0.000 C 
ATOM     18  C   UNL     1      36.061  -0.287  16.615  0.00  0.00    +0.000 C 
BRANCH  18  19
ATOM     19  C   UNL     1      36.970  -1.234  17.522  0.00  0.00    +0.000 A 
ATOM     20  C   UNL     1      36.804  -1.334  18.835  0.00  0.00    +0.000 A 
ATOM     21  C   UNL     1      37.608  -2.158  19.576  0.00  0.00    +0.000 A 
ATOM     22  C   UNL     1      38.579  -2.871  18.934  0.00  0.00    +0.000 A 
ATOM     23  C   UNL     1      38.756  -2.771  17.575  0.00  0.00    +0.000 A 
ATOM     24  C   UNL     1      37.931  -1.927  16.824  0.00  0.00    +0.000 A 
ENDBRANCH  18  19
ENDBRANCH  14  18
ENDBRANCH   1  15
BRANCH   2  25
ATOM     25  N   UNL     1      36.950   3.600  13.296  0.00  0.00    +0.000 NA
ATOM     26  C   UNL     1      36.072   4.247  14.062  0.00  0.00    +0.000 C 
ATOM     27  O   UNL     1      35.908   3.903  15.241  0.00  0.00    +0.000 OA
BRANCH  26  28
ATOM     28  C   UNL     1      35.225   5.404  13.621  0.00  0.00    +0.000 A 
ATOM     29  C   UNL     1      35.344   6.102  12.464  0.00  0.00    +0.000 A 
ATOM     30  C   UNL     1      34.379   7.072  12.457  0.00  0.00    +0.000 A 
ATOM     31  C   UNL     1      33.722   6.888  13.648  0.00  0.00    +0.000 A 
ATOM     32  O   UNL     1      34.242   5.900  14.309  0.00  0.00    +0.000 OA
ENDBRANCH  26  28
ENDBRANCH   2  25
TORSDOF 6
ENDMDL
MODEL 6
REMARK VINA RESULT:      -7.2      3.331      6.400
REMARK  Name = 
REMARK  6 active torsions:
REMARK  status: ('A' for Active; 'I' for Inactive)
REMARK    1  A    between atoms: C_2  and  N_3
REMARK    2  A    between atoms: C_2  and  C_27
REMARK    3  A    between atoms: C_4  and  C_6
REMARK    4  A    between atoms: C_7  and  N_8
REMARK    5  A    between atoms: C_9  and  C_11
REMARK    6  A    between atoms: C_21  and  C_22
REMARK                            x       y       z     vdW  Elec       q    Type
REMARK                         _______ _______ _______ _____ _____    ______ ____
ROOT
ATOM      1  C   UNL     1      39.871  -0.269  14.399  0.00  0.00    +0.000 A 
ATOM      2  C   UNL     1      39.212  -1.182  15.166  0.00  0.00    +0.000 A 
ATOM      3  S   UNL     1      40.426  -2.491  15.274  0.00  0.00    +0.000 S 
ATOM      4  C   UNL     1      41.642  -1.805  14.360  0.00  0.00    +0.000 A 
ATOM      5  C   UNL     1      41.122  -0.597  13.984  0.00  0.00    +0.000 A 
ATOM      6  C   UNL     1      42.152   0.149  13.114  0.00  0.00    +0.000 C 
ATOM      7  C   UNL     1      42.363  -0.726  11.969  0.00  0.00    +0.000 C 
ATOM      8  C   UNL     1      42.997  -2.135  12.273  0.00  0.00    +0.000 C 
ATOM      9  C   UNL     1      43.057  -2.120  13.864  0.00  0.00    +0.000 C 
ENDROOT
BRANCH   8  10
ATOM     10  C   UNL     1      44.545  -1.691  12.056  0.00  0.00    +0.000 C 
ATOM     11  C   UNL     1      45.053  -1.316  13.426  0.00  0.00    +0.000 C 
ATOM     12  C   UNL     1      44.555  -0.559  11.085  0.00  0.00    +0.000 C 
ATOM     13  C   UNL     1      45.288  -2.857  11.465  0.00  0.00    +0.000 C 
ENDBRANCH   8  10
BRANCH   1  15
ATOM     14  N   UNL     1      39.076   2.017  15.180  0.00  0.00    +0.000 NA
ATOM     15  C   UNL     1      39.330   1.115  14.123  0.00  0.00    +0.000 C 
ATOM     16  O   UNL     1      39.096   1.495  12.990  0.00  0.00    +0.000 OA
BRANCH  14  18
ATOM     17  C   UNL     1      38.983   4.237  15.937  0.00  0.00    +0.000 C 
ATOM     18  C   UNL     1      38.524   3.368  14.617  0.00  0.00    +0.000 C 
BRANCH  18  19
ATOM     19  C   UNL     1      37.021   3.149  15.108  0.00  0.00    +0.000 A 
ATOM     20  C   UNL     1      36.716   2.375  16.143  0.00  0.00    +0.000 A 
ATOM     21  C   UNL     1      35.413   2.214  16.530  0.00  0.00    +0.000 A 
ATOM     22  C   UNL     1      34.440   2.866  15.829  0.00  0.00    +0.000 A 
ATOM     23  C   UNL     1      34.749   3.668  14.758  0.00  0.00    +0.000 A 
ATOM     24  C   UNL     1      36.083   3.829  14.367  0.00  0.00    +0.000 A 
ENDBRANCH  18  19
ENDBRANCH  14  18
ENDBRANCH   1  15
BRANCH   2  25
ATOM     25  N   UNL     1      37.956  -1.387  15.692  0.00  0.00    +0.000 NA
ATOM     26  C   UNL     1      37.165  -1.319  16.764  0.00  0.00    +0.000 C 
ATOM     27  O   UNL     1      37.610  -0.878  17.833  0.00  0.00    +0.000 OA
BRANCH  26  28
ATOM     28  C   UNL     1      35.727  -1.739  16.807  0.00  0.00    +0.000 A 
ATOM     29  C   UNL     1      34.738  -1.173  17.545  0.00  0.00    +0.000 A 
ATOM     30  C   UNL     1      33.581  -1.858  17.293  0.00  0.00    +0.000 A 
ATOM     31  C   UNL     1      33.961  -2.822  16.393  0.00  0.00    +0.000 A 
ATOM     32  O   UNL     1      35.227  -2.725  16.126  0.00  0.00    +0.000 OA
ENDBRANCH  26  28
ENDBRANCH   2  25
TORSDOF 6
ENDMDL
MODEL 7
REMARK VINA RESULT:      -7.1      4.221      8.172
REMARK  Name = 
REMARK  6 active torsions:
REMARK  status: ('A' for Active; 'I' for Inactive)
REMARK    1  A    between atoms: C_2  and  N_3
REMARK    2  A    between atoms: C_2  and  C_27
REMARK    3  A    between atoms: C_4  and  C_6
REMARK    4  A    between atoms: C_7  and  N_8
REMARK    5  A    between atoms: C_9  and  C_11
REMARK    6  A    between atoms: C_21  and  C_22
REMARK                            x       y       z     vdW  Elec       q    Type
REMARK                         _______ _______ _______ _____ _____    ______ ____
ROOT
ATOM      1  C   UNL     1      38.948  -1.144  13.901  0.00  0.00    +0.000 A 
ATOM      2  C   UNL     1      39.612  -1.147  12.711  0.00  0.00    +0.000 A 
ATOM      3  S   UNL     1      39.335   0.529  12.152  0.00  0.00    +0.000 S 
ATOM      4  C   UNL     1      38.419   1.091  13.428  0.00  0.00    +0.000 A 
ATOM      5  C   UNL     1      38.333   0.011  14.263  0.00  0.00    +0.000 A 
ATOM      6  C   UNL     1      37.494   0.393  15.499  0.00  0.00    +0.000 C 
ATOM      7  C   UNL     1      36.192   0.759  14.955  0.00  0.00    +0.000 C 
ATOM      8  C   UNL     1      36.160   2.016  14.007  0.00  0.00    +0.000 C 
ATOM      9  C   UNL     1      37.708   2.367  13.890  0.00  0.00    +0.000 C 
ENDROOT
BRANCH   8  10
ATOM     10  C   UNL     1      35.840   3.111  15.165  0.00  0.00    +0.000 C 
ATOM     11  C   UNL     1      35.183   4.269  14.455  0.00  0.00    +0.000 C 
ATOM     12  C   UNL     1      37.135   3.467  15.815  0.00  0.00    +0.000 C 
ATOM     13  C   UNL     1      34.937   2.469  16.181  0.00  0.00    +0.000 C 
ENDBRANCH   8  10
BRANCH   1  15
ATOM     14  N   UNL     1      37.822  -3.023  15.193  0.00  0.00    +0.000 NA
ATOM     15  C   UNL     1      38.993  -2.304  14.869  0.00  0.00    +0.000 C 
ATOM     16  O   UNL     1      40.034  -2.654  15.397  0.00  0.00    +0.000 OA
BRANCH  14  18
ATOM     17  C   UNL     1      36.663  -4.855  16.091  0.00  0.00    +0.000 C 
ATOM     18  C   UNL     1      38.151  -4.164  16.211  0.00  0.00    +0.000 C 
BRANCH  18  19
ATOM     19  C   UNL     1      37.810  -3.319  17.522  0.00  0.00    +0.000 A 
ATOM     20  C   UNL     1      38.568  -3.358  18.610  0.00  0.00    +0.000 A 
ATOM     21  C   UNL     1      38.238  -2.618  19.714  0.00  0.00    +0.000 A 
ATOM     22  C   UNL     1      37.115  -1.843  19.666  0.00  0.00    +0.000 A 
ATOM     23  C   UNL     1      36.327  -1.798  18.542  0.00  0.00    +0.000 A 
ATOM     24  C   UNL     1      36.671  -2.557  17.418  0.00  0.00    +0.000 A 
ENDBRANCH  18  19
ENDBRANCH  14  18
ENDBRANCH   1  15
BRANCH   2  25
ATOM     25  N   UNL     1      40.240  -2.040  11.872  0.00  0.00    +0.000 NA
ATOM     26  C   UNL     1      41.142  -3.013  11.745  0.00  0.00    +0.000 C 
ATOM     27  O   UNL     1      41.760  -3.417  12.740  0.00  0.00    +0.000 OA
BRANCH  26  28
ATOM     28  C   UNL     1      41.500  -3.701  10.461  0.00  0.00    +0.000 A 
ATOM     29  C   UNL     1      40.910  -3.520   9.253  0.00  0.00    +0.000 A 
ATOM     30  C   UNL     1      41.537  -4.339   8.353  0.00  0.00    +0.000 A 
ATOM     31  C   UNL     1      42.491  -4.979   9.103  0.00  0.00    +0.000 A 
ATOM     32  O   UNL     1      42.445  -4.583  10.337  0.00  0.00    +0.000 OA
ENDBRANCH  26  28
ENDBRANCH   2  25
TORSDOF 6
ENDMDL
MODEL 8
REMARK VINA RESULT:      -7.1      1.693      2.368
REMARK  Name = 
REMARK  6 active torsions:
REMARK  status: ('A' for Active; 'I' for Inactive)
REMARK    1  A    between atoms: C_2  and  N_3
REMARK    2  A    between atoms: C_2  and  C_27
REMARK    3  A    between atoms: C_4  and  C_6
REMARK    4  A    between atoms: C_7  and  N_8
REMARK    5  A    between atoms: C_9  and  C_11
REMARK    6  A    between atoms: C_21  and  C_22
REMARK                            x       y       z     vdW  Elec       q    Type
REMARK                         _______ _______ _______ _____ _____    ______ ____
ROOT
ATOM      1  C   UNL     1      38.540   1.295  14.562  0.00  0.00    +0.000 A 
ATOM      2  C   UNL     1      38.931   2.595  14.687  0.00  0.00    +0.000 A 
ATOM      3  S   UNL     1      39.985   2.783  13.254  0.00  0.00    +0.000 S 
ATOM      4  C   UNL     1      39.862   1.242  12.626  0.00  0.00    +0.000 A 
ATOM      5  C   UNL     1      39.026   0.602  13.499  0.00  0.00    +0.000 A 
ATOM      6  C   UNL     1      38.829  -0.854  13.036  0.00  0.00    +0.000 C 
ATOM      7  C   UNL     1      40.168  -1.427  13.056  0.00  0.00    +0.000 C 
ATOM      8  C   UNL     1      41.212  -0.796  12.059  0.00  0.00    +0.000 C 
ATOM      9  C   UNL     1      40.377   0.412  11.445  0.00  0.00    +0.000 C 
ENDROOT
BRANCH   8  10
ATOM     10  C   UNL     1      40.932  -1.819  10.829  0.00  0.00    +0.000 C 
ATOM     11  C   UNL     1      40.275  -0.988   9.754  0.00  0.00    +0.000 C 
ATOM     12  C   UNL     1      40.066  -2.918  11.346  0.00  0.00    +0.000 C 
ATOM     13  C   UNL     1      42.250  -2.394  10.388  0.00  0.00    +0.000 C 
ENDBRANCH   8  10
BRANCH   1  15
ATOM     14  N   UNL     1      37.835  -0.432  16.290  0.00  0.00    +0.000 NA
ATOM     15  C   UNL     1      37.502   0.660  15.458  0.00  0.00    +0.000 C 
ATOM     16  O   UNL     1      36.355   1.067  15.494  0.00  0.00    +0.000 OA
BRANCH  14  18
ATOM     17  C   UNL     1      37.468  -1.389  18.401  0.00  0.00    +0.000 C 
ATOM     18  C   UNL     1      36.582  -0.891  17.107  0.00  0.00    +0.000 C 
BRANCH  18  19
ATOM     19  C   UNL     1      36.474  -2.338  16.443  0.00  0.00    +0.000 A 
ATOM     20  C   UNL     1      37.206  -3.366  16.854  0.00  0.00    +0.000 A 
ATOM     21  C   UNL     1      37.083  -4.591  16.256  0.00  0.00    +0.000 A 
ATOM     22  C   UNL     1      36.191  -4.728  15.231  0.00  0.00    +0.000 A 
ATOM     23  C   UNL     1      35.430  -3.669  14.802  0.00  0.00    +0.000 A 
ATOM     24  C   UNL     1      35.561  -2.419  15.418  0.00  0.00    +0.000 A 
ENDBRANCH  18  19
ENDBRANCH  14  18
ENDBRANCH   1  15
BRANCH   2  25
ATOM     25  N   UNL     1      38.844   3.625  15.596  0.00  0.00    +0.000 NA
ATOM     26  C   UNL     1      38.578   4.914  15.807  0.00  0.00    +0.000 C 
ATOM     27  O   UNL     1      38.217   5.633  14.863  0.00  0.00    +0.000 OA
BRANCH  26  28
ATOM     28  C   UNL     1      38.674   5.614  17.129  0.00  0.00    +0.000 A 
ATOM     29  C   UNL     1      39.352   5.189  18.224  0.00  0.00    +0.000 A 
ATOM     30  C   UNL     1      39.181   6.120  19.212  0.00  0.00    +0.000 A 
ATOM     31  C   UNL     1      38.385   7.073  18.629  0.00  0.00    +0.000 A 
ATOM     32  O   UNL     1      38.104   6.748  17.405  0.00  0.00    +0.000 OA
ENDBRANCH  26  28
ENDBRANCH   2  25
TORSDOF 6
ENDMDL
MODEL 9
REMARK VINA RESULT:      -7.0      2.718      6.982
REMARK  Name = 
REMARK  6 active torsions:
REMARK  status: ('A' for Active; 'I' for Inactive)
REMARK    1  A    between atoms: C_2  and  N_3
REMARK    2  A    between atoms: C_2  and  C_27
REMARK    3  A    between atoms: C_4  and  C_6
REMARK    4  A    between atoms: C_7  and  N_8
REMARK    5  A    between atoms: C_9  and  C_11
REMARK    6  A    between atoms: C_21  and  C_22
REMARK                            x       y       z     vdW  Elec       q    Type
REMARK                         _______ _______ _______ _____ _____    ______ ____
ROOT
ATOM      1  C   UNL     1      37.985   3.442  14.501  0.00  0.00    +0.000 A 
ATOM      2  C   UNL     1      38.305   3.628  13.189  0.00  0.00    +0.000 A 
ATOM      3  S   UNL     1      39.596   4.859  13.315  0.00  0.00    +0.000 S 
ATOM      4  C   UNL     1      39.628   5.047  14.972  0.00  0.00    +0.000 A 
ATOM      5  C   UNL     1      38.668   4.179  15.415  0.00  0.00    +0.000 A 
ATOM      6  C   UNL     1      38.584   4.256  16.952  0.00  0.00    +0.000 C 
ATOM      7  C   UNL     1      38.226   5.642  17.226  0.00  0.00    +0.000 C 
ATOM      8  C   UNL     1      39.277   6.733  16.797  0.00  0.00    +0.000 C 
ATOM      9  C   UNL     1      40.368   5.848  16.049  0.00  0.00    +0.000 C 
ENDROOT
BRANCH   8  10
ATOM     10  C   UNL     1      40.070   6.792  18.214  0.00  0.00    +0.000 C 
ATOM     11  C   UNL     1      41.472   6.324  17.910  0.00  0.00    +0.000 C 
ATOM     12  C   UNL     1      39.341   5.912  19.173  0.00  0.00    +0.000 C 
ATOM     13  C   UNL     1      40.031   8.209  18.715  0.00  0.00    +0.000 C 
ENDBRANCH   8  10
BRANCH   1  15
ATOM     14  N   UNL     1      37.460   1.324  15.807  0.00  0.00    +0.000 NA
ATOM     15  C   UNL     1      37.024   2.373  14.967  0.00  0.00    +0.000 C 
ATOM     16  O   UNL     1      35.852   2.380  14.637  0.00  0.00    +0.000 OA
BRANCH  14  18
ATOM     17  C   UNL     1      36.000   1.021  17.620  0.00  0.00    +0.000 C 
ATOM     18  C   UNL     1      36.270   0.364  16.135  0.00  0.00    +0.000 C 
BRANCH  18  19
ATOM     19  C   UNL     1      37.172  -0.838  16.674  0.00  0.00    +0.000 A 
ATOM     20  C   UNL     1      37.004  -1.368  17.879  0.00  0.00    +0.000 A 
ATOM     21  C   UNL     1      37.801  -2.398  18.303  0.00  0.00    +0.000 A 
ATOM     22  C   UNL     1      38.768  -2.863  17.458  0.00  0.00    +0.000 A 
ATOM     23  C   UNL     1      38.946  -2.318  16.210  0.00  0.00    +0.000 A 
ATOM     24  C   UNL     1      38.128  -1.266  15.783  0.00  0.00    +0.000 A 
ENDBRANCH  18  19
ENDBRANCH  14  18
ENDBRANCH   1  15
BRANCH   2  25
ATOM     25  N   UNL     1      37.848   3.260  11.944  0.00  0.00    +0.000 NA
ATOM     26  C   UNL     1      37.496   2.266  11.128  0.00  0.00    +0.000 C 
ATOM     27  O   UNL     1      37.523   1.095  11.533  0.00  0.00    +0.000 OA
BRANCH  26  28
ATOM     28  C   UNL     1      37.051   2.428   9.706  0.00  0.00    +0.000 A 
ATOM     29  C   UNL     1      37.305   1.583   8.674  0.00  0.00    +0.000 A 
ATOM     30  C   UNL     1      36.719   2.102   7.552  0.00  0.00    +0.000 A 
ATOM     31  C   UNL     1      36.134   3.262   7.995  0.00  0.00    +0.000 A 
ATOM     32  O   UNL     1      36.345   3.425   9.265  0.00  0.00    +0.000 OA
ENDBRANCH  26  28
ENDBRANCH   2  25
TORSDOF 6
ENDMDL
MODEL 10
REMARK VINA RESULT:      -7.0      5.444     10.432
REMARK  Name = 
REMARK  6 active torsions:
REMARK  status: ('A' for Active; 'I' for Inactive)
REMARK    1  A    between atoms: C_2  and  N_3
REMARK    2  A    between atoms: C_2  and  C_27
REMARK    3  A    between atoms: C_4  and  C_6
REMARK    4  A    between atoms: C_7  and  N_8
REMARK    5  A    between atoms: C_9  and  C_11
REMARK    6  A    between atoms: C_21  and  C_22
REMARK                            x       y       z     vdW  Elec       q    Type
REMARK                         _______ _______ _______ _____ _____    ______ ____
ROOT
ATOM      1  C   UNL     1      35.163   9.843  15.610  0.00  0.00    +0.000 A 
ATOM      2  C   UNL     1      35.191   8.899  14.627  0.00  0.00    +0.000 A 
ATOM      3  S   UNL     1      34.988   9.909  13.166  0.00  0.00    +0.000 S 
ATOM      4  C   UNL     1      34.878  11.409  13.888  0.00  0.00    +0.000 A 
ATOM      5  C   UNL     1      34.998  11.134  15.222  0.00  0.00    +0.000 A 
ATOM      6  C   UNL     1      34.905  12.450  16.020  0.00  0.00    +0.000 C 
ATOM      7  C   UNL     1      33.587  12.979  15.695  0.00  0.00    +0.000 C 
ATOM      8  C   UNL     1      33.343  13.371  14.189  0.00  0.00    +0.000 C 
ATOM      9  C   UNL     1      34.697  12.883  13.510  0.00  0.00    +0.000 C 
ENDROOT
BRANCH   8  10
ATOM     10  C   UNL     1      33.792  14.926  14.329  0.00  0.00    +0.000 C 
ATOM     11  C   UNL     1      35.238  14.969  13.900  0.00  0.00    +0.000 C 
ATOM     12  C   UNL     1      33.579  15.329  15.750  0.00  0.00    +0.000 C 
ATOM     13  C   UNL     1      32.903  15.752  13.442  0.00  0.00    +0.000 C 
ENDBRANCH   8  10
BRANCH   1  15
ATOM     14  N   UNL     1      36.751   9.209  17.493  0.00  0.00    +0.000 NA
ATOM     15  C   UNL     1      35.444   9.527  17.061  0.00  0.00    +0.000 C 
ATOM     16  O   UNL     1      34.560   9.535  17.899  0.00  0.00    +0.000 OA
BRANCH  14  18
ATOM     17  C   UNL     1      37.728  10.210  19.378  0.00  0.00    +0.000 C 
ATOM     18  C   UNL     1      36.758   8.926  19.031  0.00  0.00    +0.000 C 
BRANCH  18  19
ATOM     19  C   UNL     1      37.943   7.858  18.997  0.00  0.00    +0.000 A 
ATOM     20  C   UNL     1      38.114   7.018  17.984  0.00  0.00    +0.000 A 
ATOM     21  C   UNL     1      39.145   6.116  17.996  0.00  0.00    +0.000 A 
ATOM     22  C   UNL     1      39.987   6.104  19.070  0.00  0.00    +0.000 A 
ATOM     23  C   UNL     1      39.815   6.971  20.121  0.00  0.00    +0.000 A 
ATOM     24  C   UNL     1      38.760   7.890  20.102  0.00  0.00    +0.000 A 
ENDBRANCH  18  19
ENDBRANCH  14  18
ENDBRANCH   1  15
BRANCH   2  25
ATOM     25  N   UNL     1      35.194   7.528  14.502  0.00  0.00    +0.000 NA
ATOM     26  C   UNL     1      34.649   6.454  13.929  0.00  0.00    +0.000 C 
ATOM     27  O   UNL     1      33.733   6.591  13.105  0.00  0.00    +0.000 OA
BRANCH  26  28
ATOM     28  C   UNL     1      35.051   5.034  14.191  0.00  0.00    +0.000 A 
ATOM     29  C   UNL     1      36.157   4.404  13.721  0.00  0.00    +0.000 A 
ATOM     30  C   UNL     1      36.144   3.121  14.196  0.00  0.00    +0.000 A 
ATOM     31  C   UNL     1      34.994   3.060  14.942  0.00  0.00    +0.000 A 
ATOM     32  O   UNL     1      34.374   4.200  14.921  0.00  0.00    +0.000 OA
ENDBRANCH  26  28
ENDBRANCH   2  25
TORSDOF 6
ENDMDL
