MODEL 1
REMARK VINA RESULT:      -6.8      0.000      0.000
REMARK  Name = 
REMARK  3 active torsions:
REMARK  status: ('A' for Active; 'I' for Inactive)
REMARK    1  A    between atoms: C_8  and  O_9
REMARK    2  A    between atoms: O_9  and  C_10
REMARK    3  A    between atoms: C_15  and  N_16
REMARK                            x       y       z     vdW  Elec       q    Type
REMARK                         _______ _______ _______ _____ _____    ______ ____
ROOT
ATOM      1  O   UNL     1      27.272  22.494  26.015  0.00  0.00    +0.000 OA
ENDROOT
BRANCH   1   9
ATOM      2  C   UNL     1      23.866  26.002  26.790  0.00  0.00    +0.000 C 
ATOM      3  C   UNL     1      24.884  25.037  27.247  0.00  0.00    +0.000 A 
ATOM      4  C   UNL     1      25.144  24.937  28.598  0.00  0.00    +0.000 A 
ATOM      5  C   UNL     1      26.082  24.051  29.057  0.00  0.00    +0.000 A 
ATOM      6  C   UNL     1      26.301  24.008  30.535  0.00  0.00    +0.000 C 
ATOM      7  C   UNL     1      26.774  23.253  28.191  0.00  0.00    +0.000 A 
ATOM      8  C   UNL     1      27.774  22.320  28.779  0.00  0.00    +0.000 C 
ATOM      9  C   UNL     1      26.541  23.326  26.838  0.00  0.00    +0.000 A 
ATOM     10  C   UNL     1      25.596  24.220  26.391  0.00  0.00    +0.000 A 
ENDBRANCH   1   9
BRANCH   1  11
ATOM     11  C   UNL     1      28.274  22.983  25.164  0.00  0.00    +0.000 A 
ATOM     12  C   UNL     1      29.576  23.025  25.603  0.00  0.00    +0.000 A 
ATOM     13  C   UNL     1      30.611  23.493  24.822  0.00  0.00    +0.000 A 
ATOM     14  N   UNL     1      31.965  23.549  25.247  0.00  0.00    +0.000 NA
ATOM     15  C   UNL     1      30.278  23.926  23.556  0.00  0.00    +0.000 A 
ATOM     16  C   UNL     1      28.987  23.906  23.067  0.00  0.00    +0.000 A 
ATOM     17  C   UNL     1      28.005  23.428  23.894  0.00  0.00    +0.000 A 
BRANCH  16  18
ATOM     18  N   UNL     1      28.720  24.369  21.751  0.00  0.00    +0.000 N 
ATOM     19  O   UNL     1      27.566  24.718  21.466  0.00  0.00    +0.000 OA
ATOM     20  O   UNL     1      29.675  24.448  20.777  0.00  0.00    +0.000 OA
ENDBRANCH  16  18
ENDBRANCH   1  11
TORSDOF 3
ENDMDL
MODEL 2
REMARK VINA RESULT:      -6.7      2.026      3.690
REMARK  Name = 
REMARK  3 active torsions:
REMARK  status: ('A' for Active; 'I' for Inactive)
REMARK    1  A    between atoms: C_8  and  O_9
REMARK    2  A    between atoms: O_9  and  C_10
REMARK    3  A    between atoms: C_15  and  N_16
REMARK                            x       y       z     vdW  Elec       q    Type
REMARK                         _______ _______ _______ _____ _____    ______ ____
ROOT
ATOM      1  O   UNL     1      27.440  25.137  25.980  0.00  0.00    +0.000 OA
ENDROOT
BRANCH   1   9
ATOM      2  C   UNL     1      30.941  22.350  28.097  0.00  0.00    +0.000 C 
ATOM      3  C   UNL     1      29.574  22.897  28.009  0.00  0.00    +0.000 A 
ATOM      4  C   UNL     1      28.649  22.527  28.962  0.00  0.00    +0.000 A 
ATOM      5  C   UNL     1      27.370  23.016  28.912  0.00  0.00    +0.000 A 
ATOM      6  C   UNL     1      26.434  22.563  29.985  0.00  0.00    +0.000 C 
ATOM      7  C   UNL     1      26.989  23.876  27.922  0.00  0.00    +0.000 A 
ATOM      8  C   UNL     1      25.581  24.357  27.945  0.00  0.00    +0.000 C 
ATOM      9  C   UNL     1      27.885  24.267  26.955  0.00  0.00    +0.000 A 
ATOM     10  C   UNL     1      29.166  23.767  27.018  0.00  0.00    +0.000 A 
ENDBRANCH   1   9
BRANCH   1  11
ATOM     11  C   UNL     1      27.372  24.769  24.629  0.00  0.00    +0.000 A 
ATOM     12  C   UNL     1      26.361  23.941  24.200  0.00  0.00    +0.000 A 
ATOM     13  C   UNL     1      26.234  23.538  22.889  0.00  0.00    +0.000 A 
ATOM     14  N   UNL     1      25.201  22.685  22.416  0.00  0.00    +0.000 NA
ATOM     15  C   UNL     1      27.181  24.011  22.006  0.00  0.00    +0.000 A 
ATOM     16  C   UNL     1      28.216  24.843  22.384  0.00  0.00    +0.000 A 
ATOM     17  C   UNL     1      28.286  25.207  23.703  0.00  0.00    +0.000 A 
BRANCH  16  18
ATOM     18  N   UNL     1      29.156  25.291  21.417  0.00  0.00    +0.000 N 
ATOM     19  O   UNL     1      29.742  24.448  20.723  0.00  0.00    +0.000 OA
ATOM     20  O   UNL     1      29.449  26.609  21.213  0.00  0.00    +0.000 OA
ENDBRANCH  16  18
ENDBRANCH   1  11
TORSDOF 3
ENDMDL
MODEL 3
REMARK VINA RESULT:      -6.6     18.261     20.058
REMARK  Name = 
REMARK  3 active torsions:
REMARK  status: ('A' for Active; 'I' for Inactive)
REMARK    1  A    between atoms: C_8  and  O_9
REMARK    2  A    between atoms: O_9  and  C_10
REMARK    3  A    between atoms: C_15  and  N_16
REMARK                            x       y       z     vdW  Elec       q    Type
REMARK                         _______ _______ _______ _____ _____    ______ ____
ROOT
ATOM      1  O   UNL     1      17.827   9.195  36.770  0.00  0.00    +0.000 OA
ENDROOT
BRANCH   1   9
ATOM      2  C   UNL     1      22.637  10.200  36.171  0.00  0.00    +0.000 C 
ATOM      3  C   UNL     1      21.412  10.082  36.984  0.00  0.00    +0.000 A 
ATOM      4  C   UNL     1      21.478  10.379  38.330  0.00  0.00    +0.000 A 
ATOM      5  C   UNL     1      20.360  10.280  39.115  0.00  0.00    +0.000 A 
ATOM      6  C   UNL     1      20.522  10.621  40.561  0.00  0.00    +0.000 C 
ATOM      7  C   UNL     1      19.165   9.888  38.584  0.00  0.00    +0.000 A 
ATOM      8  C   UNL     1      18.003   9.809  39.511  0.00  0.00    +0.000 C 
ATOM      9  C   UNL     1      19.062   9.585  37.247  0.00  0.00    +0.000 A 
ATOM     10  C   UNL     1      20.193   9.688  36.470  0.00  0.00    +0.000 A 
ENDBRANCH   1   9
BRANCH   1  11
ATOM     11  C   UNL     1      16.995  10.070  36.056  0.00  0.00    +0.000 A 
ATOM     12  C   UNL     1      16.083  10.844  36.734  0.00  0.00    +0.000 A 
ATOM     13  C   UNL     1      15.235  11.725  36.098  0.00  0.00    +0.000 A 
ATOM     14  N   UNL     1      14.284  12.538  36.769  0.00  0.00    +0.000 NA
ATOM     15  C   UNL     1      15.342  11.799  34.725  0.00  0.00    +0.000 A 
ATOM     16  C   UNL     1      16.240  11.043  33.997  0.00  0.00    +0.000 A 
ATOM     17  C   UNL     1      17.055  10.187  34.690  0.00  0.00    +0.000 A 
BRANCH  16  18
ATOM     18  N   UNL     1      16.294  11.173  32.583  0.00  0.00    +0.000 N 
ATOM     19  O   UNL     1      15.965  12.252  32.072  0.00  0.00    +0.000 OA
ATOM     20  O   UNL     1      16.691  10.162  31.754  0.00  0.00    +0.000 OA
ENDBRANCH  16  18
ENDBRANCH   1  11
TORSDOF 3
ENDMDL
MODEL 4
REMARK VINA RESULT:      -6.5     17.971     19.514
REMARK  Name = 
REMARK  3 active torsions:
REMARK  status: ('A' for Active; 'I' for Inactive)
REMARK    1  A    between atoms: C_8  and  O_9
REMARK    2  A    between atoms: O_9  and  C_10
REMARK    3  A    between atoms: C_15  and  N_16
REMARK                            x       y       z     vdW  Elec       q    Type
REMARK                         _______ _______ _______ _____ _____    ______ ____
ROOT
ATOM      1  O   UNL     1      18.974   9.579  37.415  0.00  0.00    +0.000 OA
ENDROOT
BRANCH   1   9
ATOM      2  C   UNL     1      16.320  11.529  33.720  0.00  0.00    +0.000 C 
ATOM      3  C   UNL     1      16.515  11.127  35.125  0.00  0.00    +0.000 A 
ATOM      4  C   UNL     1      15.494  11.346  36.026  0.00  0.00    +0.000 A 
ATOM      5  C   UNL     1      15.641  10.986  37.339  0.00  0.00    +0.000 A 
ATOM      6  C   UNL     1      14.484  11.260  38.246  0.00  0.00    +0.000 C 
ATOM      7  C   UNL     1      16.795  10.404  37.780  0.00  0.00    +0.000 A 
ATOM      8  C   UNL     1      16.867  10.045  39.222  0.00  0.00    +0.000 C 
ATOM      9  C   UNL     1      17.834  10.170  36.910  0.00  0.00    +0.000 A 
ATOM     10  C   UNL     1      17.672  10.538  35.594  0.00  0.00    +0.000 A 
ENDBRANCH   1   9
BRANCH   1  11
ATOM     11  C   UNL     1      20.194  10.267  37.497  0.00  0.00    +0.000 A 
ATOM     12  C   UNL     1      20.264  11.442  38.208  0.00  0.00    +0.000 A 
ATOM     13  C   UNL     1      21.427  12.171  38.330  0.00  0.00    +0.000 A 
ATOM     14  N   UNL     1      21.531  13.386  39.057  0.00  0.00    +0.000 NA
ATOM     15  C   UNL     1      22.541  11.660  37.699  0.00  0.00    +0.000 A 
ATOM     16  C   UNL     1      22.525  10.486  36.972  0.00  0.00    +0.000 A 
ATOM     17  C   UNL     1      21.336   9.810  36.890  0.00  0.00    +0.000 A 
BRANCH  16  18
ATOM     18  N   UNL     1      23.713  10.021  36.347  0.00  0.00    +0.000 N 
ATOM     19  O   UNL     1      23.843   8.806  36.146  0.00  0.00    +0.000 OA
ATOM     20  O   UNL     1      24.725  10.851  35.955  0.00  0.00    +0.000 OA
ENDBRANCH  16  18
ENDBRANCH   1  11
TORSDOF 3
ENDMDL
MODEL 5
REMARK VINA RESULT:      -6.5      3.010      6.815
REMARK  Name = 
REMARK  3 active torsions:
REMARK  status: ('A' for Active; 'I' for Inactive)
REMARK    1  A    between atoms: C_8  and  O_9
REMARK    2  A    between atoms: O_9  and  C_10
REMARK    3  A    between atoms: C_15  and  N_16
REMARK                            x       y       z     vdW  Elec       q    Type
REMARK                         _______ _______ _______ _____ _____    ______ ____
ROOT
ATOM      1  O   UNL     1      26.859  22.741  25.660  0.00  0.00    +0.000 OA
ENDROOT
BRANCH   1   9
ATOM      2  C   UNL     1      31.760  23.406  25.446  0.00  0.00    +0.000 C 
ATOM      3  C   UNL     1      30.403  23.449  24.869  0.00  0.00    +0.000 A 
ATOM      4  C   UNL     1      30.247  23.892  23.572  0.00  0.00    +0.000 A 
ATOM      5  C   UNL     1      29.002  23.945  23.004  0.00  0.00    +0.000 A 
ATOM      6  C   UNL     1      28.926  24.438  21.595  0.00  0.00    +0.000 C 
ATOM      7  C   UNL     1      27.896  23.561  23.707  0.00  0.00    +0.000 A 
ATOM      8  C   UNL     1      26.584  23.652  23.010  0.00  0.00    +0.000 C 
ATOM      9  C   UNL     1      28.013  23.114  25.002  0.00  0.00    +0.000 A 
ATOM     10  C   UNL     1      29.270  23.067  25.559  0.00  0.00    +0.000 A 
ENDBRANCH   1   9
BRANCH   1  11
ATOM     11  C   UNL     1      26.331  23.493  26.719  0.00  0.00    +0.000 A 
ATOM     12  C   UNL     1      25.680  24.675  26.455  0.00  0.00    +0.000 A 
ATOM     13  C   UNL     1      25.137  25.464  27.445  0.00  0.00    +0.000 A 
ATOM     14  N   UNL     1      24.459  26.688  27.204  0.00  0.00    +0.000 NA
ATOM     15  C   UNL     1      25.276  25.009  28.739  0.00  0.00    +0.000 A 
ATOM     16  C   UNL     1      25.920  23.830  29.059  0.00  0.00    +0.000 A 
ATOM     17  C   UNL     1      26.438  23.092  28.027  0.00  0.00    +0.000 A 
BRANCH  16  18
ATOM     18  N   UNL     1      26.026  23.425  30.417  0.00  0.00    +0.000 N 
ATOM     19  O   UNL     1      26.132  24.296  31.291  0.00  0.00    +0.000 OA
ATOM     20  O   UNL     1      26.017  22.117  30.809  0.00  0.00    +0.000 OA
ENDBRANCH  16  18
ENDBRANCH   1  11
TORSDOF 3
ENDMDL
MODEL 6
REMARK VINA RESULT:      -6.5      1.912      2.594
REMARK  Name = 
REMARK  3 active torsions:
REMARK  status: ('A' for Active; 'I' for Inactive)
REMARK    1  A    between atoms: C_8  and  O_9
REMARK    2  A    between atoms: O_9  and  C_10
REMARK    3  A    between atoms: C_15  and  N_16
REMARK                            x       y       z     vdW  Elec       q    Type
REMARK                         _______ _______ _______ _____ _____    ______ ____
ROOT
ATOM      1  O   UNL     1      28.230  24.120  25.950  0.00  0.00    +0.000 OA
ENDROOT
BRANCH   1   9
ATOM      2  C   UNL     1      24.719  26.542  28.463  0.00  0.00    +0.000 C 
ATOM      3  C   UNL     1      25.636  25.406  28.254  0.00  0.00    +0.000 A 
ATOM      4  C   UNL     1      25.634  24.375  29.170  0.00  0.00    +0.000 A 
ATOM      5  C   UNL     1      26.473  23.304  29.007  0.00  0.00    +0.000 A 
ATOM      6  C   UNL     1      26.405  22.232  30.046  0.00  0.00    +0.000 C 
ATOM      7  C   UNL     1      27.321  23.236  27.939  0.00  0.00    +0.000 A 
ATOM      8  C   UNL     1      28.196  22.035  27.842  0.00  0.00    +0.000 C 
ATOM      9  C   UNL     1      27.350  24.245  27.006  0.00  0.00    +0.000 A 
ATOM     10  C   UNL     1      26.503  25.315  27.183  0.00  0.00    +0.000 A 
ENDBRANCH   1   9
BRANCH   1  11
ATOM     11  C   UNL     1      27.791  24.072  24.619  0.00  0.00    +0.000 A 
ATOM     12  C   UNL     1      26.638  23.390  24.308  0.00  0.00    +0.000 A 
ATOM     13  C   UNL     1      26.149  23.301  23.023  0.00  0.00    +0.000 A 
ATOM     14  N   UNL     1      24.962  22.605  22.671  0.00  0.00    +0.000 NA
ATOM     15  C   UNL     1      26.878  23.939  22.042  0.00  0.00    +0.000 A 
ATOM     16  C   UNL     1      28.041  24.636  22.301  0.00  0.00    +0.000 A 
ATOM     17  C   UNL     1      28.474  24.687  23.600  0.00  0.00    +0.000 A 
BRANCH  16  18
ATOM     18  N   UNL     1      28.740  25.269  21.237  0.00  0.00    +0.000 N 
ATOM     19  O   UNL     1      28.423  26.424  20.920  0.00  0.00    +0.000 OA
ATOM     20  O   UNL     1      29.750  24.666  20.543  0.00  0.00    +0.000 OA
ENDBRANCH  16  18
ENDBRANCH   1  11
TORSDOF 3
ENDMDL
MODEL 7
REMARK VINA RESULT:      -6.5      2.997      6.453
REMARK  Name = 
REMARK  3 active torsions:
REMARK  status: ('A' for Active; 'I' for Inactive)
REMARK    1  A    between atoms: C_8  and  O_9
REMARK    2  A    between atoms: O_9  and  C_10
REMARK    3  A    between atoms: C_15  and  N_16
REMARK                            x       y       z     vdW  Elec       q    Type
REMARK                         _______ _______ _______ _____ _____    ______ ____
ROOT
ATOM      1  O   UNL     1      26.986  22.657  25.716  0.00  0.00    +0.000 OA
ENDROOT
BRANCH   1   9
ATOM      2  C   UNL     1      28.259  24.959  21.523  0.00  0.00    +0.000 C 
ATOM      3  C   UNL     1      28.572  24.257  22.781  0.00  0.00    +0.000 A 
ATOM      4  C   UNL     1      29.894  24.051  23.115  0.00  0.00    +0.000 A 
ATOM      5  C   UNL     1      30.222  23.402  24.276  0.00  0.00    +0.000 A 
ATOM      6  C   UNL     1      31.678  23.222  24.558  0.00  0.00    +0.000 C 
ATOM      7  C   UNL     1      29.250  22.950  25.122  0.00  0.00    +0.000 A 
ATOM      8  C   UNL     1      29.697  22.256  26.361  0.00  0.00    +0.000 C 
ATOM      9  C   UNL     1      27.921  23.138  24.822  0.00  0.00    +0.000 A 
ATOM     10  C   UNL     1      27.607  23.790  23.652  0.00  0.00    +0.000 A 
ENDBRANCH   1   9
BRANCH   1  11
ATOM     11  C   UNL     1      26.315  23.500  26.614  0.00  0.00    +0.000 A 
ATOM     12  C   UNL     1      25.464  24.467  26.131  0.00  0.00    +0.000 A 
ATOM     13  C   UNL     1      24.772  25.329  26.953  0.00  0.00    +0.000 A 
ATOM     14  N   UNL     1      23.887  26.336  26.485  0.00  0.00    +0.000 NA
ATOM     15  C   UNL     1      24.972  25.178  28.309  0.00  0.00    +0.000 A 
ATOM     16  C   UNL     1      25.814  24.225  28.845  0.00  0.00    +0.000 A 
ATOM     17  C   UNL     1      26.472  23.398  27.973  0.00  0.00    +0.000 A 
BRANCH  16  18
ATOM     18  N   UNL     1      25.970  24.128  30.255  0.00  0.00    +0.000 N 
ATOM     19  O   UNL     1      26.013  23.004  30.773  0.00  0.00    +0.000 OA
ATOM     20  O   UNL     1      26.076  25.218  31.071  0.00  0.00    +0.000 OA
ENDBRANCH  16  18
ENDBRANCH   1  11
TORSDOF 3
ENDMDL
MODEL 8
REMARK VINA RESULT:      -6.5      1.061      2.493
REMARK  Name = 
REMARK  3 active torsions:
REMARK  status: ('A' for Active; 'I' for Inactive)
REMARK    1  A    between atoms: C_8  and  O_9
REMARK    2  A    between atoms: O_9  and  C_10
REMARK    3  A    between atoms: C_15  and  N_16
REMARK                            x       y       z     vdW  Elec       q    Type
REMARK                         _______ _______ _______ _____ _____    ______ ____
ROOT
ATOM      1  O   UNL     1      25.792  23.419  25.632  0.00  0.00    +0.000 OA
ENDROOT
BRANCH   1   9
ATOM      2  C   UNL     1      26.402  23.811  30.529  0.00  0.00    +0.000 C 
ATOM      3  C   UNL     1      25.895  24.285  29.228  0.00  0.00    +0.000 A 
ATOM      4  C   UNL     1      25.184  25.467  29.183  0.00  0.00    +0.000 A 
ATOM      5  C   UNL     1      24.699  25.937  27.991  0.00  0.00    +0.000 A 
ATOM      6  C   UNL     1      23.941  27.224  28.034  0.00  0.00    +0.000 C 
ATOM      7  C   UNL     1      24.910  25.249  26.830  0.00  0.00    +0.000 A 
ATOM      8  C   UNL     1      24.347  25.834  25.583  0.00  0.00    +0.000 C 
ATOM      9  C   UNL     1      25.614  24.068  26.837  0.00  0.00    +0.000 A 
ATOM     10  C   UNL     1      26.095  23.607  28.042  0.00  0.00    +0.000 A 
ENDBRANCH   1   9
BRANCH   1  11
ATOM     11  C   UNL     1      27.025  23.421  24.963  0.00  0.00    +0.000 A 
ATOM     12  C   UNL     1      28.127  22.861  25.567  0.00  0.00    +0.000 A 
ATOM     13  C   UNL     1      29.367  22.828  24.969  0.00  0.00    +0.000 A 
ATOM     14  N   UNL     1      30.523  22.258  25.566  0.00  0.00    +0.000 NA
ATOM     15  C   UNL     1      29.460  23.389  23.713  0.00  0.00    +0.000 A 
ATOM     16  C   UNL     1      28.385  23.964  23.063  0.00  0.00    +0.000 A 
ATOM     17  C   UNL     1      27.179  23.964  23.712  0.00  0.00    +0.000 A 
BRANCH  16  18
ATOM     18  N   UNL     1      28.556  24.524  21.768  0.00  0.00    +0.000 N 
ATOM     19  O   UNL     1      27.695  25.304  21.339  0.00  0.00    +0.000 OA
ATOM     20  O   UNL     1      29.628  24.245  20.968  0.00  0.00    +0.000 OA
ENDBRANCH  16  18
ENDBRANCH   1  11
TORSDOF 3
ENDMDL
MODEL 9
REMARK VINA RESULT:      -6.4      3.735      5.425
REMARK  Name = 
REMARK  3 active torsions:
REMARK  status: ('A' for Active; 'I' for Inactive)
REMARK    1  A    between atoms: C_8  and  O_9
REMARK    2  A    between atoms: O_9  and  C_10
REMARK    3  A    between atoms: C_15  and  N_16
REMARK                            x       y       z     vdW  Elec       q    Type
REMARK                         _______ _______ _______ _____ _____    ______ ____
ROOT
ATOM      1  O   UNL     1      30.708  22.785  24.027  0.00  0.00    +0.000 OA
ENDROOT
BRANCH   1   9
ATOM      2  C   UNL     1      34.422  25.779  25.348  0.00  0.00    +0.000 C 
ATOM      3  C   UNL     1      33.330  24.834  25.645  0.00  0.00    +0.000 A 
ATOM      4  C   UNL     1      33.078  24.502  26.960  0.00  0.00    +0.000 A 
ATOM      5  C   UNL     1      32.070  23.628  27.272  0.00  0.00    +0.000 A 
ATOM      6  C   UNL     1      31.868  23.325  28.721  0.00  0.00    +0.000 C 
ATOM      7  C   UNL     1      31.299  23.072  26.292  0.00  0.00    +0.000 A 
ATOM      8  C   UNL     1      30.227  22.133  26.723  0.00  0.00    +0.000 C 
ATOM      9  C   UNL     1      31.521  23.380  24.971  0.00  0.00    +0.000 A 
ATOM     10  C   UNL     1      32.536  24.259  24.672  0.00  0.00    +0.000 A 
ENDBRANCH   1   9
BRANCH   1  11
ATOM     11  C   UNL     1      29.596  23.444  23.482  0.00  0.00    +0.000 A 
ATOM     12  C   UNL     1      29.779  24.593  22.750  0.00  0.00    +0.000 A 
ATOM     13  C   UNL     1      28.734  25.292  22.186  0.00  0.00    +0.000 A 
ATOM     14  N   UNL     1      28.891  26.481  21.426  0.00  0.00    +0.000 NA
ATOM     15  C   UNL     1      27.471  24.779  22.390  0.00  0.00    +0.000 A 
ATOM     16  C   UNL     1      27.232  23.629  23.117  0.00  0.00    +0.000 A 
ATOM     17  C   UNL     1      28.315  22.981  23.651  0.00  0.00    +0.000 A 
BRANCH  16  18
ATOM     18  N   UNL     1      25.901  23.159  23.285  0.00  0.00    +0.000 N 
ATOM     19  O   UNL     1      25.269  22.793  22.285  0.00  0.00    +0.000 OA
ATOM     20  O   UNL     1      25.281  23.091  24.501  0.00  0.00    +0.000 OA
ENDBRANCH  16  18
ENDBRANCH   1  11
TORSDOF 3
ENDMDL
MODEL 10
REMARK VINA RESULT:      -6.4      3.136      5.821
REMARK  Name = 
REMARK  3 active torsions:
REMARK  status: ('A' for Active; 'I' for Inactive)
REMARK    1  A    between atoms: C_8  and  O_9
REMARK    2  A    between atoms: O_9  and  C_10
REMARK    3  A    between atoms: C_15  and  N_16
REMARK                            x       y       z     vdW  Elec       q    Type
REMARK                         _______ _______ _______ _____ _____    ______ ____
ROOT
ATOM      1  O   UNL     1      27.300  22.376  26.376  0.00  0.00    +0.000 OA
ENDROOT
BRANCH   1   9
ATOM      2  C   UNL     1      27.825  24.384  21.882  0.00  0.00    +0.000 C 
ATOM      3  C   UNL     1      28.356  23.821  23.138  0.00  0.00    +0.000 A 
ATOM      4  C   UNL     1      29.722  23.744  23.306  0.00  0.00    +0.000 A 
ATOM      5  C   UNL     1      30.249  23.228  24.460  0.00  0.00    +0.000 A 
ATOM      6  C   UNL     1      31.740  23.182  24.557  0.00  0.00    +0.000 C 
ATOM      7  C   UNL     1      29.436  22.781  25.462  0.00  0.00    +0.000 A 
ATOM      8  C   UNL     1      30.096  22.236  26.680  0.00  0.00    +0.000 C 
ATOM      9  C   UNL     1      28.069  22.843  25.329  0.00  0.00    +0.000 A 
ATOM     10  C   UNL     1      27.553  23.364  24.165  0.00  0.00    +0.000 A 
ENDBRANCH   1   9
BRANCH   1  11
ATOM     11  C   UNL     1      26.576  23.240  27.211  0.00  0.00    +0.000 A 
ATOM     12  C   UNL     1      26.703  23.130  28.576  0.00  0.00    +0.000 A 
ATOM     13  C   UNL     1      26.023  23.944  29.455  0.00  0.00    +0.000 A 
ATOM     14  N   UNL     1      26.132  23.855  30.868  0.00  0.00    +0.000 NA
ATOM     15  C   UNL     1      25.194  24.894  28.897  0.00  0.00    +0.000 A 
ATOM     16  C   UNL     1      25.031  25.046  27.535  0.00  0.00    +0.000 A 
ATOM     17  C   UNL     1      25.736  24.205  26.715  0.00  0.00    +0.000 A 
BRANCH  16  18
ATOM     18  N   UNL     1      24.158  26.049  27.032  0.00  0.00    +0.000 N 
ATOM     19  O   UNL     1      22.941  25.930  27.228  0.00  0.00    +0.000 OA
ATOM     20  O   UNL     1      24.595  27.142  26.339  0.00  0.00    +0.000 OA
ENDBRANCH  16  18
ENDBRANCH   1  11
TORSDOF 3
ENDMDL
