MODEL 1
REMARK VINA RESULT:      -8.6      0.000      0.000
REMARK  Name = 
REMARK  6 active torsions:
REMARK  status: ('A' for Active; 'I' for Inactive)
REMARK    1  A    between atoms: C_2  and  C_18
REMARK    2  A    between atoms: N_3  and  N_4
REMARK    3  A    between atoms: C_5  and  C_7
REMARK    4  A    between atoms: C_7  and  C_8
REMARK    5  A    between atoms: C_21  and  N_22
REMARK    6  A    between atoms: C_23  and  C_25
REMARK                            x       y       z     vdW  Elec       q    Type
REMARK                         _______ _______ _______ _____ _____    ______ ____
ROOT
ATOM      1  C   UNL     1      35.053   6.133  12.854  0.00  0.00    +0.000 C 
ATOM      2  C   UNL     1      35.940   5.512  13.880  0.00  0.00    +0.000 C 
ATOM      3  N   UNL     1      36.731   6.260  14.567  0.00  0.00    +0.000 NA
ENDROOT
BRANCH   2   4
ATOM      4  C   UNL     1      35.937   4.093  14.129  0.00  0.00    +0.000 A 
ATOM      5  C   UNL     1      36.808   3.308  13.367  0.00  0.00    +0.000 A 
ATOM      6  C   UNL     1      36.887   1.937  13.522  0.00  0.00    +0.000 A 
ATOM      7  C   UNL     1      36.090   1.309  14.452  0.00  0.00    +0.000 A 
ATOM      8  C   UNL     1      35.245   2.081  15.190  0.00  0.00    +0.000 A 
ATOM      9  C   UNL     1      35.155   3.460  15.044  0.00  0.00    +0.000 A 
BRANCH   7  10
ATOM     10  N   UNL     1      36.127  -0.091  14.656  0.00  0.00    +0.000 NA
ATOM     11  C   UNL     1      37.033  -0.727  15.541  0.00  0.00    +0.000 C 
ATOM     12  O   UNL     1      37.843   0.013  16.174  0.00  0.00    +0.000 OA
BRANCH  11  13
ATOM     13  C   UNL     1      37.059  -2.198  15.745  0.00  0.00    +0.000 C 
ATOM     14  C   UNL     1      38.372  -2.658  16.369  0.00  0.00    +0.000 C 
ATOM     15  C   UNL     1      39.508  -2.099  15.540  0.00  0.00    +0.000 C 
ATOM     16  C   UNL     1      39.411  -2.564  14.118  0.00  0.00    +0.000 C 
ATOM     17  C   UNL     1      38.079  -2.258  13.509  0.00  0.00    +0.000 C 
ATOM     18  C   UNL     1      36.992  -2.858  14.375  0.00  0.00    +0.000 C 
ENDBRANCH  11  13
ENDBRANCH   7  10
ENDBRANCH   2   4
BRANCH   3  19
ATOM     19  N   UNL     1      37.554   5.649  15.524  0.00  0.00    +0.000 NA
ATOM     20  C   UNL     1      38.119   6.356  16.609  0.00  0.00    +0.000 C 
ATOM     21  O   UNL     1      37.837   7.599  16.673  0.00  0.00    +0.000 OA
BRANCH  20  22
ATOM     22  C   UNL     1      38.999   5.743  17.646  0.00  0.00    +0.000 C 
BRANCH  22  23
ATOM     23  C   UNL     1      40.429   6.096  17.366  0.00  0.00    +0.000 A 
ATOM     24  C   UNL     1      40.875   6.181  16.063  0.00  0.00    +0.000 A 
ATOM     25  C   UNL     1      42.173   6.505  15.738  0.00  0.00    +0.000 A 
ATOM     26  C   UNL     1      43.056   6.752  16.766  0.00  0.00    +0.000 A 
ATOM     27  C   UNL     1      42.669   6.681  18.076  0.00  0.00    +0.000 A 
ATOM     28  C   UNL     1      43.558   6.929  19.116  0.00  0.00    +0.000 A 
ATOM     29  C   UNL     1      43.094   6.837  20.403  0.00  0.00    +0.000 A 
ATOM     30  C   UNL     1      41.782   6.509  20.675  0.00  0.00    +0.000 A 
ATOM     31  C   UNL     1      40.898   6.264  19.658  0.00  0.00    +0.000 A 
ATOM     32  C   UNL     1      41.347   6.351  18.365  0.00  0.00    +0.000 A 
ENDBRANCH  22  23
ENDBRANCH  20  22
ENDBRANCH   3  19
TORSDOF 6
ENDMDL
MODEL 2
REMARK VINA RESULT:      -8.4      4.656      7.255
REMARK  Name = 
REMARK  6 active torsions:
REMARK  status: ('A' for Active; 'I' for Inactive)
REMARK    1  A    between atoms: C_2  and  C_18
REMARK    2  A    between atoms: N_3  and  N_4
REMARK    3  A    between atoms: C_5  and  C_7
REMARK    4  A    between atoms: C_7  and  C_8
REMARK    5  A    between atoms: C_21  and  N_22
REMARK    6  A    between atoms: C_23  and  C_25
REMARK                            x       y       z     vdW  Elec       q    Type
REMARK                         _______ _______ _______ _____ _____    ______ ____
ROOT
ATOM      1  C   UNL     1      38.211  11.787  20.298  0.00  0.00    +0.000 C 
ATOM      2  C   UNL     1      38.503  10.352  20.016  0.00  0.00    +0.000 C 
ATOM      3  N   UNL     1      38.991   9.611  20.949  0.00  0.00    +0.000 NA
ENDROOT
BRANCH   2   4
ATOM      4  C   UNL     1      38.253   9.765  18.724  0.00  0.00    +0.000 A 
ATOM      5  C   UNL     1      37.029   9.111  18.545  0.00  0.00    +0.000 A 
ATOM      6  C   UNL     1      36.685   8.512  17.348  0.00  0.00    +0.000 A 
ATOM      7  C   UNL     1      37.563   8.552  16.289  0.00  0.00    +0.000 A 
ATOM      8  C   UNL     1      38.752   9.191  16.472  0.00  0.00    +0.000 A 
ATOM      9  C   UNL     1      39.111   9.796  17.670  0.00  0.00    +0.000 A 
BRANCH   7  10
ATOM     10  N   UNL     1      37.267   7.957  15.040  0.00  0.00    +0.000 NA
ATOM     11  C   UNL     1      36.292   8.466  14.145  0.00  0.00    +0.000 C 
ATOM     12  O   UNL     1      35.665   9.508  14.500  0.00  0.00    +0.000 OA
BRANCH  11  13
ATOM     13  C   UNL     1      35.991   7.831  12.837  0.00  0.00    +0.000 C 
ATOM     14  C   UNL     1      34.490   7.710  12.599  0.00  0.00    +0.000 C 
ATOM     15  C   UNL     1      33.876   7.032  13.803  0.00  0.00    +0.000 C 
ATOM     16  C   UNL     1      34.483   5.679  14.022  0.00  0.00    +0.000 C 
ATOM     17  C   UNL     1      35.976   5.733  14.118  0.00  0.00    +0.000 C 
ATOM     18  C   UNL     1      36.525   6.406  12.878  0.00  0.00    +0.000 C 
ENDBRANCH  11  13
ENDBRANCH   7  10
ENDBRANCH   2   4
BRANCH   3  19
ATOM     19  N   UNL     1      39.257   8.266  20.654  0.00  0.00    +0.000 NA
ATOM     20  C   UNL     1      40.553   7.792  20.354  0.00  0.00    +0.000 C 
ATOM     21  O   UNL     1      41.484   8.664  20.365  0.00  0.00    +0.000 OA
BRANCH  20  22
ATOM     22  C   UNL     1      40.876   6.370  20.036  0.00  0.00    +0.000 C 
BRANCH  22  23
ATOM     23  C   UNL     1      40.256   5.996  18.722  0.00  0.00    +0.000 A 
ATOM     24  C   UNL     1      38.975   5.486  18.685  0.00  0.00    +0.000 A 
ATOM     25  C   UNL     1      38.347   5.127  17.513  0.00  0.00    +0.000 A 
ATOM     26  C   UNL     1      39.038   5.288  16.333  0.00  0.00    +0.000 A 
ATOM     27  C   UNL     1      40.311   5.788  16.310  0.00  0.00    +0.000 A 
ATOM     28  C   UNL     1      41.013   5.951  15.120  0.00  0.00    +0.000 A 
ATOM     29  C   UNL     1      42.285   6.458  15.180  0.00  0.00    +0.000 A 
ATOM     30  C   UNL     1      42.868   6.802  16.381  0.00  0.00    +0.000 A 
ATOM     31  C   UNL     1      42.187   6.646  17.559  0.00  0.00    +0.000 A 
ATOM     32  C   UNL     1      40.913   6.140  17.516  0.00  0.00    +0.000 A 
ENDBRANCH  22  23
ENDBRANCH  20  22
ENDBRANCH   3  19
TORSDOF 6
ENDMDL
MODEL 3
REMARK VINA RESULT:      -8.2      1.295      2.353
REMARK  Name = 
REMARK  6 active torsions:
REMARK  status: ('A' for Active; 'I' for Inactive)
REMARK    1  A    between atoms: C_2  and  C_18
REMARK    2  A    between atoms: N_3  and  N_4
REMARK    3  A    between atoms: C_5  and  C_7
REMARK    4  A    between atoms: C_7  and  C_8
REMARK    5  A    between atoms: C_21  and  N_22
REMARK    6  A    between atoms: C_23  and  C_25
REMARK                            x       y       z     vdW  Elec       q    Type
REMARK                         _______ _______ _______ _____ _____    ______ ____
ROOT
ATOM      1  C   UNL     1      35.439   5.351  13.065  0.00  0.00    +0.000 C 
ATOM      2  C   UNL     1      36.238   4.787  14.192  0.00  0.00    +0.000 C 
ATOM      3  N   UNL     1      37.096   5.535  14.793  0.00  0.00    +0.000 NA
ENDROOT
BRANCH   2   4
ATOM      4  C   UNL     1      36.077   3.425  14.631  0.00  0.00    +0.000 A 
ATOM      5  C   UNL     1      35.127   3.183  15.629  0.00  0.00    +0.000 A 
ATOM      6  C   UNL     1      34.890   1.915  16.125  0.00  0.00    +0.000 A 
ATOM      7  C   UNL     1      35.603   0.846  15.632  0.00  0.00    +0.000 A 
ATOM      8  C   UNL     1      36.526   1.091  14.661  0.00  0.00    +0.000 A 
ATOM      9  C   UNL     1      36.774   2.360  14.153  0.00  0.00    +0.000 A 
BRANCH   7  10
ATOM     10  N   UNL     1      35.406  -0.474  16.101  0.00  0.00    +0.000 NA
ATOM     11  C   UNL     1      36.400  -1.215  16.790  0.00  0.00    +0.000 C 
ATOM     12  O   UNL     1      37.515  -0.647  16.986  0.00  0.00    +0.000 OA
BRANCH  11  13
ATOM     13  C   UNL     1      36.178  -2.600  17.277  0.00  0.00    +0.000 C 
ATOM     14  C   UNL     1      37.456  -3.429  17.222  0.00  0.00    +0.000 C 
ATOM     15  C   UNL     1      38.029  -3.318  15.827  0.00  0.00    +0.000 C 
ATOM     16  C   UNL     1      37.045  -3.802  14.805  0.00  0.00    +0.000 C 
ATOM     17  C   UNL     1      35.722  -3.111  14.916  0.00  0.00    +0.000 C 
ATOM     18  C   UNL     1      35.199  -3.275  16.328  0.00  0.00    +0.000 C 
ENDBRANCH  11  13
ENDBRANCH   7  10
ENDBRANCH   2   4
BRANCH   3  19
ATOM     19  N   UNL     1      37.833   4.978  15.848  0.00  0.00    +0.000 NA
ATOM     20  C   UNL     1      38.337   5.750  16.919  0.00  0.00    +0.000 C 
ATOM     21  O   UNL     1      38.082   7.000  16.875  0.00  0.00    +0.000 OA
BRANCH  20  22
ATOM     22  C   UNL     1      39.125   5.196  18.058  0.00  0.00    +0.000 C 
BRANCH  22  23
ATOM     23  C   UNL     1      39.837   6.310  18.767  0.00  0.00    +0.000 A 
ATOM     24  C   UNL     1      39.259   6.906  19.869  0.00  0.00    +0.000 A 
ATOM     25  C   UNL     1      39.861   7.930  20.566  0.00  0.00    +0.000 A 
ATOM     26  C   UNL     1      41.092   8.371  20.134  0.00  0.00    +0.000 A 
ATOM     27  C   UNL     1      41.711   7.817  19.047  0.00  0.00    +0.000 A 
ATOM     28  C   UNL     1      42.955   8.261  18.608  0.00  0.00    +0.000 A 
ATOM     29  C   UNL     1      43.509   7.656  17.510  0.00  0.00    +0.000 A 
ATOM     30  C   UNL     1      42.864   6.633  16.848  0.00  0.00    +0.000 A 
ATOM     31  C   UNL     1      41.640   6.188  17.271  0.00  0.00    +0.000 A 
ATOM     32  C   UNL     1      41.072   6.783  18.368  0.00  0.00    +0.000 A 
ENDBRANCH  22  23
ENDBRANCH  20  22
ENDBRANCH   3  19
TORSDOF 6
ENDMDL
MODEL 4
REMARK VINA RESULT:      -8.2      3.901      8.396
REMARK  Name = 
REMARK  6 active torsions:
REMARK  status: ('A' for Active; 'I' for Inactive)
REMARK    1  A    between atoms: C_2  and  C_18
REMARK    2  A    between atoms: N_3  and  N_4
REMARK    3  A    between atoms: C_5  and  C_7
REMARK    4  A    between atoms: C_7  and  C_8
REMARK    5  A    between atoms: C_21  and  N_22
REMARK    6  A    between atoms: C_23  and  C_25
REMARK                            x       y       z     vdW  Elec       q    Type
REMARK                         _______ _______ _______ _____ _____    ______ ____
ROOT
ATOM      1  C   UNL     1      42.448  -1.775  13.693  0.00  0.00    +0.000 C 
ATOM      2  C   UNL     1      40.999  -1.796  14.047  0.00  0.00    +0.000 C 
ATOM      3  N   UNL     1      40.490  -2.861  14.561  0.00  0.00    +0.000 NA
ENDROOT
BRANCH   2   4
ATOM      4  C   UNL     1      40.147  -0.655  13.832  0.00  0.00    +0.000 A 
ATOM      5  C   UNL     1      39.501  -0.563  12.594  0.00  0.00    +0.000 A 
ATOM      6  C   UNL     1      38.662   0.489  12.280  0.00  0.00    +0.000 A 
ATOM      7  C   UNL     1      38.444   1.486  13.203  0.00  0.00    +0.000 A 
ATOM      8  C   UNL     1      39.077   1.389  14.405  0.00  0.00    +0.000 A 
ATOM      9  C   UNL     1      39.923   0.337  14.734  0.00  0.00    +0.000 A 
BRANCH   7  10
ATOM     10  N   UNL     1      37.597   2.588  12.939  0.00  0.00    +0.000 NA
ATOM     11  C   UNL     1      38.073   3.853  12.510  0.00  0.00    +0.000 C 
ATOM     12  O   UNL     1      39.325   3.983  12.362  0.00  0.00    +0.000 OA
BRANCH  11  13
ATOM     13  C   UNL     1      37.172   5.001  12.236  0.00  0.00    +0.000 C 
ATOM     14  C   UNL     1      37.859   6.335  12.503  0.00  0.00    +0.000 C 
ATOM     15  C   UNL     1      38.445   6.292  13.897  0.00  0.00    +0.000 C 
ATOM     16  C   UNL     1      37.378   6.038  14.918  0.00  0.00    +0.000 C 
ATOM     17  C   UNL     1      36.580   4.808  14.614  0.00  0.00    +0.000 C 
ATOM     18  C   UNL     1      36.010   4.924  13.216  0.00  0.00    +0.000 C 
ENDBRANCH  11  13
ENDBRANCH   7  10
ENDBRANCH   2   4
BRANCH   3  19
ATOM     19  N   UNL     1      39.126  -2.852  14.884  0.00  0.00    +0.000 NA
ATOM     20  C   UNL     1      38.630  -3.324  16.120  0.00  0.00    +0.000 C 
ATOM     21  O   UNL     1      39.502  -3.765  16.940  0.00  0.00    +0.000 OA
BRANCH  20  22
ATOM     22  C   UNL     1      37.186  -3.332  16.500  0.00  0.00    +0.000 C 
BRANCH  22  23
ATOM     23  C   UNL     1      36.882  -2.130  17.344  0.00  0.00    +0.000 A 
ATOM     24  C   UNL     1      37.085  -2.176  18.707  0.00  0.00    +0.000 A 
ATOM     25  C   UNL     1      36.829  -1.107  19.537  0.00  0.00    +0.000 A 
ATOM     26  C   UNL     1      36.350   0.052  18.970  0.00  0.00    +0.000 A 
ATOM     27  C   UNL     1      36.129   0.154  17.624  0.00  0.00    +0.000 A 
ATOM     28  C   UNL     1      35.645   1.324  17.048  0.00  0.00    +0.000 A 
ATOM     29  C   UNL     1      35.449   1.347  15.691  0.00  0.00    +0.000 A 
ATOM     30  C   UNL     1      35.721   0.248  14.904  0.00  0.00    +0.000 A 
ATOM     31  C   UNL     1      36.199  -0.908  15.461  0.00  0.00    +0.000 A 
ATOM     32  C   UNL     1      36.400  -0.948  16.817  0.00  0.00    +0.000 A 
ENDBRANCH  22  23
ENDBRANCH  20  22
ENDBRANCH   3  19
TORSDOF 6
ENDMDL
MODEL 5
REMARK VINA RESULT:      -8.1      2.304      8.143
REMARK  Name = 
REMARK  6 active torsions:
REMARK  status: ('A' for Active; 'I' for Inactive)
REMARK    1  A    between atoms: C_2  and  C_18
REMARK    2  A    between atoms: N_3  and  N_4
REMARK    3  A    between atoms: C_5  and  C_7
REMARK    4  A    between atoms: C_7  and  C_8
REMARK    5  A    between atoms: C_21  and  N_22
REMARK    6  A    between atoms: C_23  and  C_25
REMARK                            x       y       z     vdW  Elec       q    Type
REMARK                         _______ _______ _______ _____ _____    ______ ____
ROOT
ATOM      1  C   UNL     1      37.356   4.375  10.008  0.00  0.00    +0.000 C 
ATOM      2  C   UNL     1      37.736   3.651  11.256  0.00  0.00    +0.000 C 
ATOM      3  N   UNL     1      38.033   2.400  11.194  0.00  0.00    +0.000 NA
ENDROOT
BRANCH   2   4
ATOM      4  C   UNL     1      37.782   4.312  12.534  0.00  0.00    +0.000 A 
ATOM      5  C   UNL     1      39.020   4.810  12.953  0.00  0.00    +0.000 A 
ATOM      6  C   UNL     1      39.179   5.461  14.162  0.00  0.00    +0.000 A 
ATOM      7  C   UNL     1      38.095   5.633  14.991  0.00  0.00    +0.000 A 
ATOM      8  C   UNL     1      36.893   5.145  14.576  0.00  0.00    +0.000 A 
ATOM      9  C   UNL     1      36.719   4.488  13.364  0.00  0.00    +0.000 A 
BRANCH   7  10
ATOM     10  N   UNL     1      38.196   6.290  16.240  0.00  0.00    +0.000 NA
ATOM     11  C   UNL     1      38.583   5.636  17.437  0.00  0.00    +0.000 C 
ATOM     12  O   UNL     1      38.847   4.399  17.363  0.00  0.00    +0.000 OA
BRANCH  11  13
ATOM     13  C   UNL     1      38.685   6.339  18.741  0.00  0.00    +0.000 C 
ATOM     14  C   UNL     1      38.647   7.854  18.571  0.00  0.00    +0.000 C 
ATOM     15  C   UNL     1      39.691   8.238  17.546  0.00  0.00    +0.000 C 
ATOM     16  C   UNL     1      41.055   7.793  17.979  0.00  0.00    +0.000 C 
ATOM     17  C   UNL     1      41.102   6.331  18.296  0.00  0.00    +0.000 C 
ATOM     18  C   UNL     1      40.048   6.018  19.336  0.00  0.00    +0.000 C 
ENDBRANCH  11  13
ENDBRANCH   7  10
ENDBRANCH   2   4
BRANCH   3  19
ATOM     19  N   UNL     1      38.385   1.745  12.382  0.00  0.00    +0.000 NA
ATOM     20  C   UNL     1      37.562   0.772  12.991  0.00  0.00    +0.000 C 
ATOM     21  O   UNL     1      36.464   0.516  12.394  0.00  0.00    +0.000 OA
BRANCH  20  22
ATOM     22  C   UNL     1      37.900   0.053  14.255  0.00  0.00    +0.000 C 
BRANCH  22  23
ATOM     23  C   UNL     1      36.871   0.363  15.301  0.00  0.00    +0.000 A 
ATOM     24  C   UNL     1      36.754   1.646  15.794  0.00  0.00    +0.000 A 
ATOM     25  C   UNL     1      35.828   1.997  16.751  0.00  0.00    +0.000 A 
ATOM     26  C   UNL     1      34.988   1.016  17.229  0.00  0.00    +0.000 A 
ATOM     27  C   UNL     1      35.059  -0.273  16.776  0.00  0.00    +0.000 A 
ATOM     28  C   UNL     1      34.212  -1.266  17.257  0.00  0.00    +0.000 A 
ATOM     29  C   UNL     1      34.347  -2.534  16.754  0.00  0.00    +0.000 A 
ATOM     30  C   UNL     1      35.292  -2.833  15.795  0.00  0.00    +0.000 A 
ATOM     31  C   UNL     1      36.130  -1.863  15.314  0.00  0.00    +0.000 A 
ATOM     32  C   UNL     1      36.009  -0.589  15.807  0.00  0.00    +0.000 A 
ENDBRANCH  22  23
ENDBRANCH  20  22
ENDBRANCH   3  19
TORSDOF 6
ENDMDL
MODEL 6
REMARK VINA RESULT:      -8.1      1.637      2.087
REMARK  Name = 
REMARK  6 active torsions:
REMARK  status: ('A' for Active; 'I' for Inactive)
REMARK    1  A    between atoms: C_2  and  C_18
REMARK    2  A    between atoms: N_3  and  N_4
REMARK    3  A    between atoms: C_5  and  C_7
REMARK    4  A    between atoms: C_7  and  C_8
REMARK    5  A    between atoms: C_21  and  N_22
REMARK    6  A    between atoms: C_23  and  C_25
REMARK                            x       y       z     vdW  Elec       q    Type
REMARK                         _______ _______ _______ _____ _____    ______ ____
ROOT
ATOM      1  C   UNL     1      36.034   5.211  12.521  0.00  0.00    +0.000 C 
ATOM      2  C   UNL     1      36.606   4.790  13.834  0.00  0.00    +0.000 C 
ATOM      3  N   UNL     1      37.410   5.579  14.455  0.00  0.00    +0.000 NA
ENDROOT
BRANCH   2   4
ATOM      4  C   UNL     1      36.282   3.520  14.431  0.00  0.00    +0.000 A 
ATOM      5  C   UNL     1      36.874   2.381  13.874  0.00  0.00    +0.000 A 
ATOM      6  C   UNL     1      36.633   1.113  14.367  0.00  0.00    +0.000 A 
ATOM      7  C   UNL     1      35.786   0.947  15.439  0.00  0.00    +0.000 A 
ATOM      8  C   UNL     1      35.214   2.061  15.975  0.00  0.00    +0.000 A 
ATOM      9  C   UNL     1      35.447   3.342  15.490  0.00  0.00    +0.000 A 
BRANCH   7  10
ATOM     10  N   UNL     1      35.501  -0.326  15.986  0.00  0.00    +0.000 NA
ATOM     11  C   UNL     1      36.462  -1.116  16.666  0.00  0.00    +0.000 C 
ATOM     12  O   UNL     1      37.631  -0.639  16.779  0.00  0.00    +0.000 OA
BRANCH  11  13
ATOM     13  C   UNL     1      36.149  -2.451  17.236  0.00  0.00    +0.000 C 
ATOM     14  C   UNL     1      37.352  -3.386  17.180  0.00  0.00    +0.000 C 
ATOM     15  C   UNL     1      37.875  -3.395  15.761  0.00  0.00    +0.000 C 
ATOM     16  C   UNL     1      36.814  -3.847  14.803  0.00  0.00    +0.000 C 
ATOM     17  C   UNL     1      35.557  -3.043  14.925  0.00  0.00    +0.000 C 
ATOM     18  C   UNL     1      35.080  -3.090  16.361  0.00  0.00    +0.000 C 
ENDBRANCH  11  13
ENDBRANCH   7  10
ENDBRANCH   2   4
BRANCH   3  19
ATOM     19  N   UNL     1      37.932   5.157  15.686  0.00  0.00    +0.000 NA
ATOM     20  C   UNL     1      38.179   6.045  16.757  0.00  0.00    +0.000 C 
ATOM     21  O   UNL     1      37.898   7.271  16.542  0.00  0.00    +0.000 OA
BRANCH  20  22
ATOM     22  C   UNL     1      38.734   5.635  18.080  0.00  0.00    +0.000 C 
BRANCH  22  23
ATOM     23  C   UNL     1      39.930   6.478  18.407  0.00  0.00    +0.000 A 
ATOM     24  C   UNL     1      41.158   6.174  17.858  0.00  0.00    +0.000 A 
ATOM     25  C   UNL     1      42.294   6.911  18.114  0.00  0.00    +0.000 A 
ATOM     26  C   UNL     1      42.186   7.994  18.957  0.00  0.00    +0.000 A 
ATOM     27  C   UNL     1      40.993   8.341  19.530  0.00  0.00    +0.000 A 
ATOM     28  C   UNL     1      40.881   9.435  20.383  0.00  0.00    +0.000 A 
ATOM     29  C   UNL     1      39.651   9.717  20.918  0.00  0.00    +0.000 A 
ATOM     30  C   UNL     1      38.544   8.948  20.629  0.00  0.00    +0.000 A 
ATOM     31  C   UNL     1      38.643   7.869  19.790  0.00  0.00    +0.000 A 
ATOM     32  C   UNL     1      39.867   7.573  19.247  0.00  0.00    +0.000 A 
ENDBRANCH  22  23
ENDBRANCH  20  22
ENDBRANCH   3  19
TORSDOF 6
ENDMDL
MODEL 7
REMARK VINA RESULT:      -8.0     29.628     32.132
REMARK  Name = 
REMARK  6 active torsions:
REMARK  status: ('A' for Active; 'I' for Inactive)
REMARK    1  A    between atoms: C_2  and  C_18
REMARK    2  A    between atoms: N_3  and  N_4
REMARK    3  A    between atoms: C_5  and  C_7
REMARK    4  A    between atoms: C_7  and  C_8
REMARK    5  A    between atoms: C_21  and  N_22
REMARK    6  A    between atoms: C_23  and  C_25
REMARK                            x       y       z     vdW  Elec       q    Type
REMARK                         _______ _______ _______ _____ _____    ______ ____
ROOT
ATOM      1  C   UNL     1      23.438  -6.555  43.643  0.00  0.00    +0.000 C 
ATOM      2  C   UNL     1      24.499  -7.336  42.942  0.00  0.00    +0.000 C 
ATOM      3  N   UNL     1      25.736  -7.042  43.142  0.00  0.00    +0.000 NA
ENDROOT
BRANCH   2   4
ATOM      4  C   UNL     1      24.179  -8.416  42.044  0.00  0.00    +0.000 A 
ATOM      5  C   UNL     1      23.951  -8.088  40.704  0.00  0.00    +0.000 A 
ATOM      6  C   UNL     1      23.637  -9.044  39.756  0.00  0.00    +0.000 A 
ATOM      7  C   UNL     1      23.542 -10.366  40.128  0.00  0.00    +0.000 A 
ATOM      8  C   UNL     1      23.765 -10.676  41.434  0.00  0.00    +0.000 A 
ATOM      9  C   UNL     1      24.082  -9.726  42.397  0.00  0.00    +0.000 A 
BRANCH   7  10
ATOM     10  N   UNL     1      23.223 -11.388  39.203  0.00  0.00    +0.000 NA
ATOM     11  C   UNL     1      21.919 -11.923  39.051  0.00  0.00    +0.000 C 
ATOM     12  O   UNL     1      21.006 -11.448  39.790  0.00  0.00    +0.000 OA
BRANCH  11  13
ATOM     13  C   UNL     1      21.598 -12.997  38.077  0.00  0.00    +0.000 C 
ATOM     14  C   UNL     1      20.281 -13.689  38.410  0.00  0.00    +0.000 C 
ATOM     15  C   UNL     1      20.333 -14.124  39.858  0.00  0.00    +0.000 C 
ATOM     16  C   UNL     1      21.488 -15.049  40.097  0.00  0.00    +0.000 C 
ATOM     17  C   UNL     1      22.790 -14.463  39.649  0.00  0.00    +0.000 C 
ATOM     18  C   UNL     1      22.675 -14.066  38.192  0.00  0.00    +0.000 C 
ENDBRANCH  11  13
ENDBRANCH   7  10
ENDBRANCH   2   4
BRANCH   3  19
ATOM     19  N   UNL     1      26.711  -7.792  42.469  0.00  0.00    +0.000 NA
ATOM     20  C   UNL     1      27.404  -8.864  43.076  0.00  0.00    +0.000 C 
ATOM     21  O   UNL     1      27.092  -9.117  44.287  0.00  0.00    +0.000 OA
BRANCH  20  22
ATOM     22  C   UNL     1      28.448  -9.684  42.394  0.00  0.00    +0.000 C 
BRANCH  22  23
ATOM     23  C   UNL     1      27.898 -10.231  41.110  0.00  0.00    +0.000 A 
ATOM     24  C   UNL     1      27.760  -9.405  40.013  0.00  0.00    +0.000 A 
ATOM     25  C   UNL     1      27.267  -9.845  38.805  0.00  0.00    +0.000 A 
ATOM     26  C   UNL     1      26.898 -11.168  38.699  0.00  0.00    +0.000 A 
ATOM     27  C   UNL     1      27.013 -12.031  39.754  0.00  0.00    +0.000 A 
ATOM     28  C   UNL     1      26.641 -13.367  39.650  0.00  0.00    +0.000 A 
ATOM     29  C   UNL     1      26.785 -14.169  40.753  0.00  0.00    +0.000 A 
ATOM     30  C   UNL     1      27.286 -13.679  41.940  0.00  0.00    +0.000 A 
ATOM     31  C   UNL     1      27.655 -12.365  42.054  0.00  0.00    +0.000 A 
ATOM     32  C   UNL     1      27.517 -11.549  40.959  0.00  0.00    +0.000 A 
ENDBRANCH  22  23
ENDBRANCH  20  22
ENDBRANCH   3  19
TORSDOF 6
ENDMDL
MODEL 8
REMARK VINA RESULT:      -8.0      2.365      3.194
REMARK  Name = 
REMARK  6 active torsions:
REMARK  status: ('A' for Active; 'I' for Inactive)
REMARK    1  A    between atoms: C_2  and  C_18
REMARK    2  A    between atoms: N_3  and  N_4
REMARK    3  A    between atoms: C_5  and  C_7
REMARK    4  A    between atoms: C_7  and  C_8
REMARK    5  A    between atoms: C_21  and  N_22
REMARK    6  A    between atoms: C_23  and  C_25
REMARK                            x       y       z     vdW  Elec       q    Type
REMARK                         _______ _______ _______ _____ _____    ______ ____
ROOT
ATOM      1  C   UNL     1      39.090   5.471  12.082  0.00  0.00    +0.000 C 
ATOM      2  C   UNL     1      39.135   5.108  13.528  0.00  0.00    +0.000 C 
ATOM      3  N   UNL     1      39.689   5.914  14.365  0.00  0.00    +0.000 NA
ENDROOT
BRANCH   2   4
ATOM      4  C   UNL     1      38.572   3.877  14.021  0.00  0.00    +0.000 A 
ATOM      5  C   UNL     1      37.182   3.822  14.166  0.00  0.00    +0.000 A 
ATOM      6  C   UNL     1      36.536   2.692  14.631  0.00  0.00    +0.000 A 
ATOM      7  C   UNL     1      37.269   1.577  14.965  0.00  0.00    +0.000 A 
ATOM      8  C   UNL     1      38.622   1.639  14.821  0.00  0.00    +0.000 A 
ATOM      9  C   UNL     1      39.284   2.768  14.356  0.00  0.00    +0.000 A 
BRANCH   7  10
ATOM     10  N   UNL     1      36.664   0.392  15.447  0.00  0.00    +0.000 NA
ATOM     11  C   UNL     1      36.303   0.196  16.804  0.00  0.00    +0.000 C 
ATOM     12  O   UNL     1      36.543   1.142  17.611  0.00  0.00    +0.000 OA
BRANCH  11  13
ATOM     13  C   UNL     1      35.669  -1.054  17.295  0.00  0.00    +0.000 C 
ATOM     14  C   UNL     1      35.840  -1.220  18.801  0.00  0.00    +0.000 C 
ATOM     15  C   UNL     1      37.310  -1.070  19.126  0.00  0.00    +0.000 C 
ATOM     16  C   UNL     1      38.127  -2.088  18.389  0.00  0.00    +0.000 C 
ATOM     17  C   UNL     1      37.881  -2.055  16.913  0.00  0.00    +0.000 C 
ATOM     18  C   UNL     1      36.398  -2.227  16.658  0.00  0.00    +0.000 C 
ENDBRANCH  11  13
ENDBRANCH   7  10
ENDBRANCH   2   4
BRANCH   3  19
ATOM     19  N   UNL     1      39.718   5.546  15.717  0.00  0.00    +0.000 NA
ATOM     20  C   UNL     1      38.820   6.075  16.671  0.00  0.00    +0.000 C 
ATOM     21  O   UNL     1      37.968   6.916  16.231  0.00  0.00    +0.000 OA
BRANCH  20  22
ATOM     22  C   UNL     1      38.818   5.710  18.118  0.00  0.00    +0.000 C 
BRANCH  22  23
ATOM     23  C   UNL     1      39.763   6.605  18.864  0.00  0.00    +0.000 A 
ATOM     24  C   UNL     1      41.111   6.313  18.893  0.00  0.00    +0.000 A 
ATOM     25  C   UNL     1      42.031   7.096  19.555  0.00  0.00    +0.000 A 
ATOM     26  C   UNL     1      41.573   8.216  20.213  0.00  0.00    +0.000 A 
ATOM     27  C   UNL     1      40.247   8.553  20.218  0.00  0.00    +0.000 A 
ATOM     28  C   UNL     1      39.782   9.683  20.882  0.00  0.00    +0.000 A 
ATOM     29  C   UNL     1      38.439   9.954  20.841  0.00  0.00    +0.000 A 
ATOM     30  C   UNL     1      37.559   9.137  20.163  0.00  0.00    +0.000 A 
ATOM     31  C   UNL     1      38.006   8.022  19.505  0.00  0.00    +0.000 A 
ATOM     32  C   UNL     1      39.348   7.737  19.537  0.00  0.00    +0.000 A 
ENDBRANCH  22  23
ENDBRANCH  20  22
ENDBRANCH   3  19
TORSDOF 6
ENDMDL
MODEL 9
REMARK VINA RESULT:      -7.9      5.198      8.438
REMARK  Name = 
REMARK  6 active torsions:
REMARK  status: ('A' for Active; 'I' for Inactive)
REMARK    1  A    between atoms: C_2  and  C_18
REMARK    2  A    between atoms: N_3  and  N_4
REMARK    3  A    between atoms: C_5  and  C_7
REMARK    4  A    between atoms: C_7  and  C_8
REMARK    5  A    between atoms: C_21  and  N_22
REMARK    6  A    between atoms: C_23  and  C_25
REMARK                            x       y       z     vdW  Elec       q    Type
REMARK                         _______ _______ _______ _____ _____    ______ ____
ROOT
ATOM      1  C   UNL     1      43.178  -1.763  14.556  0.00  0.00    +0.000 C 
ATOM      2  C   UNL     1      41.689  -1.667  14.520  0.00  0.00    +0.000 C 
ATOM      3  N   UNL     1      40.985  -2.527  15.171  0.00  0.00    +0.000 NA
ENDROOT
BRANCH   2   4
ATOM      4  C   UNL     1      41.011  -0.636  13.777  0.00  0.00    +0.000 A 
ATOM      5  C   UNL     1      40.984  -0.764  12.385  0.00  0.00    +0.000 A 
ATOM      6  C   UNL     1      40.363   0.167  11.574  0.00  0.00    +0.000 A 
ATOM      7  C   UNL     1      39.747   1.260  12.139  0.00  0.00    +0.000 A 
ATOM      8  C   UNL     1      39.778   1.376  13.495  0.00  0.00    +0.000 A 
ATOM      9  C   UNL     1      40.399   0.448  14.322  0.00  0.00    +0.000 A 
BRANCH   7  10
ATOM     10  N   UNL     1      39.095   2.245  11.360  0.00  0.00    +0.000 NA
ATOM     11  C   UNL     1      37.815   2.060  10.779  0.00  0.00    +0.000 C 
ATOM     12  O   UNL     1      37.242   0.948  10.979  0.00  0.00    +0.000 OA
BRANCH  11  13
ATOM     13  C   UNL     1      37.144   3.104   9.964  0.00  0.00    +0.000 C 
ATOM     14  C   UNL     1      36.279   2.495   8.866  0.00  0.00    +0.000 C 
ATOM     15  C   UNL     1      37.130   1.515   8.088  0.00  0.00    +0.000 C 
ATOM     16  C   UNL     1      38.326   2.197   7.497  0.00  0.00    +0.000 C 
ATOM     17  C   UNL     1      39.128   2.932   8.524  0.00  0.00    +0.000 C 
ATOM     18  C   UNL     1      38.224   3.905   9.252  0.00  0.00    +0.000 C 
ENDBRANCH  11  13
ENDBRANCH   7  10
ENDBRANCH   2   4
BRANCH   3  19
ATOM     19  N   UNL     1      39.589  -2.413  15.118  0.00  0.00    +0.000 NA
ATOM     20  C   UNL     1      38.734  -3.075  16.027  0.00  0.00    +0.000 C 
ATOM     21  O   UNL     1      39.308  -3.794  16.912  0.00  0.00    +0.000 OA
BRANCH  20  22
ATOM     22  C   UNL     1      37.245  -2.980  16.004  0.00  0.00    +0.000 C 
BRANCH  22  23
ATOM     23  C   UNL     1      36.802  -1.814  16.837  0.00  0.00    +0.000 A 
ATOM     24  C   UNL     1      36.721  -1.938  18.208  0.00  0.00    +0.000 A 
ATOM     25  C   UNL     1      36.326  -0.906  19.030  0.00  0.00    +0.000 A 
ATOM     26  C   UNL     1      36.000   0.298  18.445  0.00  0.00    +0.000 A 
ATOM     27  C   UNL     1      36.062   0.477  17.090  0.00  0.00    +0.000 A 
ATOM     28  C   UNL     1      35.732   1.691  16.497  0.00  0.00    +0.000 A 
ATOM     29  C   UNL     1      35.818   1.792  15.133  0.00  0.00    +0.000 A 
ATOM     30  C   UNL     1      36.220   0.726  14.355  0.00  0.00    +0.000 A 
ATOM     31  C   UNL     1      36.547  -0.473  14.928  0.00  0.00    +0.000 A 
ATOM     32  C   UNL     1      36.466  -0.590  16.293  0.00  0.00    +0.000 A 
ENDBRANCH  22  23
ENDBRANCH  20  22
ENDBRANCH   3  19
TORSDOF 6
ENDMDL
MODEL 10
REMARK VINA RESULT:      -7.8      4.970      7.065
REMARK  Name = 
REMARK  6 active torsions:
REMARK  status: ('A' for Active; 'I' for Inactive)
REMARK    1  A    between atoms: C_2  and  C_18
REMARK    2  A    between atoms: N_3  and  N_4
REMARK    3  A    between atoms: C_5  and  C_7
REMARK    4  A    between atoms: C_7  and  C_8
REMARK    5  A    between atoms: C_21  and  N_22
REMARK    6  A    between atoms: C_23  and  C_25
REMARK                            x       y       z     vdW  Elec       q    Type
REMARK                         _______ _______ _______ _____ _____    ______ ____
ROOT
ATOM      1  C   UNL     1      38.072   4.284  11.293  0.00  0.00    +0.000 C 
ATOM      2  C   UNL     1      38.765   2.971  11.444  0.00  0.00    +0.000 C 
ATOM      3  N   UNL     1      39.663   2.630  10.588  0.00  0.00    +0.000 NA
ENDROOT
BRANCH   2   4
ATOM      4  C   UNL     1      38.459   2.070  12.525  0.00  0.00    +0.000 A 
ATOM      5  C   UNL     1      39.381   1.994  13.574  0.00  0.00    +0.000 A 
ATOM      6  C   UNL     1      39.188   1.162  14.662  0.00  0.00    +0.000 A 
ATOM      7  C   UNL     1      38.059   0.379  14.729  0.00  0.00    +0.000 A 
ATOM      8  C   UNL     1      37.167   0.459  13.704  0.00  0.00    +0.000 A 
ATOM      9  C   UNL     1      37.348   1.291  12.605  0.00  0.00    +0.000 A 
BRANCH   7  10
ATOM     10  N   UNL     1      37.808  -0.492  15.816  0.00  0.00    +0.000 NA
ATOM     11  C   UNL     1      37.075  -0.111  16.968  0.00  0.00    +0.000 C 
ATOM     12  O   UNL     1      36.629   1.075  17.006  0.00  0.00    +0.000 OA
BRANCH  11  13
ATOM     13  C   UNL     1      36.819  -1.035  18.101  0.00  0.00    +0.000 C 
ATOM     14  C   UNL     1      36.968  -2.494  17.685  0.00  0.00    +0.000 C 
ATOM     15  C   UNL     1      36.112  -2.723  16.459  0.00  0.00    +0.000 C 
ATOM     16  C   UNL     1      34.676  -2.401  16.742  0.00  0.00    +0.000 C 
ATOM     17  C   UNL     1      34.499  -1.020  17.291  0.00  0.00    +0.000 C 
ATOM     18  C   UNL     1      35.367  -0.865  18.522  0.00  0.00    +0.000 C 
ENDBRANCH  11  13
ENDBRANCH   7  10
ENDBRANCH   2   4
BRANCH   3  19
ATOM     19  N   UNL     1      40.297   1.390  10.754  0.00  0.00    +0.000 NA
ATOM     20  C   UNL     1      40.048   0.286   9.908  0.00  0.00    +0.000 C 
ATOM     21  O   UNL     1      39.204   0.478   8.971  0.00  0.00    +0.000 OA
BRANCH  20  22
ATOM     22  C   UNL     1      40.701  -1.048  10.053  0.00  0.00    +0.000 C 
BRANCH  22  23
ATOM     23  C   UNL     1      40.508  -1.554  11.451  0.00  0.00    +0.000 A 
ATOM     24  C   UNL     1      39.330  -2.180  11.802  0.00  0.00    +0.000 A 
ATOM     25  C   UNL     1      39.091  -2.670  13.067  0.00  0.00    +0.000 A 
ATOM     26  C   UNL     1      40.080  -2.523  14.014  0.00  0.00    +0.000 A 
ATOM     27  C   UNL     1      41.267  -1.910  13.723  0.00  0.00    +0.000 A 
ATOM     28  C   UNL     1      42.267  -1.759  14.679  0.00  0.00    +0.000 A 
ATOM     29  C   UNL     1      43.429  -1.133  14.309  0.00  0.00    +0.000 A 
ATOM     30  C   UNL     1      43.618  -0.660  13.028  0.00  0.00    +0.000 A 
ATOM     31  C   UNL     1      42.641  -0.804  12.079  0.00  0.00    +0.000 A 
ATOM     32  C   UNL     1      41.472  -1.428  12.433  0.00  0.00    +0.000 A 
ENDBRANCH  22  23
ENDBRANCH  20  22
ENDBRANCH   3  19
TORSDOF 6
ENDMDL
