MODEL 1
REMARK VINA RESULT:      -6.7      0.000      0.000
REMARK  Name = 
REMARK  8 active torsions:
REMARK  status: ('A' for Active; 'I' for Inactive)
REMARK    1  A    between atoms: C_2  and  O_3
REMARK    2  A    between atoms: O_3  and  C_4
REMARK    3  A    between atoms: C_9  and  O_10
REMARK    4  A    between atoms: O_10  and  C_11
REMARK    5  A    between atoms: C_13  and  C_14
REMARK    6  A    between atoms: C_19  and  O_20
REMARK    7  A    between atoms: O_20  and  C_21
REMARK    8  A    between atoms: C_21  and  C_22
REMARK                            x       y       z     vdW  Elec       q    Type
REMARK                         _______ _______ _______ _____ _____    ______ ____
ROOT
ATOM      1  C   UNL     1      37.271  -3.451  15.555  0.00  0.00    +0.000 A 
ATOM      2  C   UNL     1      37.620  -3.186  14.227  0.00  0.00    +0.000 A 
ATOM      3  C   UNL     1      38.594  -2.257  13.931  0.00  0.00    +0.000 A 
ATOM      4  C   UNL     1      39.188  -1.625  14.917  0.00  0.00    +0.000 A 
ATOM      5  C   UNL     1      38.922  -1.810  16.270  0.00  0.00    +0.000 A 
ATOM      6  C   UNL     1      37.935  -2.752  16.541  0.00  0.00    +0.000 A 
ATOM      7  C   UNL     1      40.344  -0.521  14.645  0.00  0.00    +0.000 C 
ATOM      8  N   UNL     1      41.082  -1.430  13.561  0.00  0.00    +0.000 NA
ATOM      9  C   UNL     1      40.316  -1.581  12.428  0.00  0.00    +0.000 C 
ATOM     10  C   UNL     1      38.912  -2.026  12.514  0.00  0.00    +0.000 C 
ENDROOT
BRANCH   7  11
ATOM     11  C   UNL     1      39.539   0.408  13.593  0.00  0.00    +0.000 A 
ATOM     12  C   UNL     1      40.055   0.539  12.354  0.00  0.00    +0.000 A 
ATOM     13  C   UNL     1      39.396   1.335  11.439  0.00  0.00    +0.000 A 
ATOM     14  C   UNL     1      38.221   1.971  11.836  0.00  0.00    +0.000 A 
ATOM     15  C   UNL     1      37.730   1.809  13.112  0.00  0.00    +0.000 A 
ATOM     16  C   UNL     1      38.408   0.999  14.029  0.00  0.00    +0.000 A 
BRANCH  16  17
ATOM     17  O   UNL     1      37.935   0.817  15.313  0.00  0.00    +0.000 OA
BRANCH  17  18
ATOM     18  C   UNL     1      36.892   1.480  15.935  0.00  0.00    +0.000 C 
BRANCH  18  19
ATOM     19  C   UNL     1      36.136   0.560  16.818  0.00  0.00    +0.000 A 
ATOM     20  C   UNL     1      36.240   0.611  18.195  0.00  0.00    +0.000 A 
ATOM     21  C   UNL     1      35.509  -0.281  18.952  0.00  0.00    +0.000 A 
ATOM     22  C   UNL     1      34.682  -1.214  18.353  0.00  0.00    +0.000 A 
ATOM     23  C   UNL     1      34.575  -1.267  16.979  0.00  0.00    +0.000 A 
ATOM     24  C   UNL     1      35.315  -0.366  16.236  0.00  0.00    +0.000 A 
ENDBRANCH  18  19
ENDBRANCH  17  18
ENDBRANCH  16  17
ENDBRANCH   7  11
BRANCH   1  25
ATOM     25  O   UNL     1      36.296  -4.378  15.892  0.00  0.00    +0.000 OA
BRANCH  25  27
ATOM     26  C   UNL     1      34.105  -4.221  14.888  0.00  0.00    +0.000 C 
ATOM     27  C   UNL     1      35.437  -4.939  14.943  0.00  0.00    +0.000 C 
ENDBRANCH  25  27
ENDBRANCH   1  25
BRANCH   6  28
ATOM     28  O   UNL     1      37.594  -3.010  17.856  0.00  0.00    +0.000 OA
BRANCH  28  29
ATOM     29  C   UNL     1      38.415  -2.636  18.949  0.00  0.00    +0.000 C 
ATOM     30  C   UNL     1      38.861  -3.816  19.771  0.00  0.00    +0.000 C 
ENDBRANCH  28  29
ENDBRANCH   6  28
TORSDOF 8
ENDMDL
MODEL 2
REMARK VINA RESULT:      -6.7      2.287      6.108
REMARK  Name = 
REMARK  8 active torsions:
REMARK  status: ('A' for Active; 'I' for Inactive)
REMARK    1  A    between atoms: C_2  and  O_3
REMARK    2  A    between atoms: O_3  and  C_4
REMARK    3  A    between atoms: C_9  and  O_10
REMARK    4  A    between atoms: O_10  and  C_11
REMARK    5  A    between atoms: C_13  and  C_14
REMARK    6  A    between atoms: C_19  and  O_20
REMARK    7  A    between atoms: O_20  and  C_21
REMARK    8  A    between atoms: C_21  and  C_22
REMARK                            x       y       z     vdW  Elec       q    Type
REMARK                         _______ _______ _______ _____ _____    ______ ____
ROOT
ATOM      1  C   UNL     1      40.698  -1.885  13.879  0.00  0.00    +0.000 A 
ATOM      2  C   UNL     1      40.221  -1.990  15.189  0.00  0.00    +0.000 A 
ATOM      3  C   UNL     1      38.962  -2.493  15.438  0.00  0.00    +0.000 A 
ATOM      4  C   UNL     1      38.219  -2.870  14.423  0.00  0.00    +0.000 A 
ATOM      5  C   UNL     1      38.592  -2.812  13.084  0.00  0.00    +0.000 A 
ATOM      6  C   UNL     1      39.866  -2.301  12.861  0.00  0.00    +0.000 A 
ATOM      7  C   UNL     1      36.729  -3.471  14.638  0.00  0.00    +0.000 C 
ATOM      8  N   UNL     1      37.186  -4.415  15.841  0.00  0.00    +0.000 NA
ATOM      9  C   UNL     1      37.549  -3.679  16.946  0.00  0.00    +0.000 C 
ATOM     10  C   UNL     1      38.522  -2.575  16.838  0.00  0.00    +0.000 C 
ENDROOT
BRANCH   7  11
ATOM     11  C   UNL     1      36.125  -2.282  15.553  0.00  0.00    +0.000 A 
ATOM     12  C   UNL     1      35.602  -2.619  16.750  0.00  0.00    +0.000 A 
ATOM     13  C   UNL     1      35.069  -1.626  17.547  0.00  0.00    +0.000 A 
ATOM     14  C   UNL     1      35.095  -0.313  17.080  0.00  0.00    +0.000 A 
ATOM     15  C   UNL     1      35.638  -0.015  15.852  0.00  0.00    +0.000 A 
ATOM     16  C   UNL     1      36.175  -1.030  15.054  0.00  0.00    +0.000 A 
BRANCH  16  17
ATOM     17  O   UNL     1      36.729  -0.756  13.819  0.00  0.00    +0.000 OA
BRANCH  17  18
ATOM     18  C   UNL     1      36.796   0.463  13.171  0.00  0.00    +0.000 C 
BRANCH  18  19
ATOM     19  C   UNL     1      38.196   0.948  13.105  0.00  0.00    +0.000 A 
ATOM     20  C   UNL     1      38.878   1.062  11.909  0.00  0.00    +0.000 A 
ATOM     21  C   UNL     1      40.181   1.516  11.926  0.00  0.00    +0.000 A 
ATOM     22  C   UNL     1      40.802   1.855  13.113  0.00  0.00    +0.000 A 
ATOM     23  C   UNL     1      40.123   1.744  14.309  0.00  0.00    +0.000 A 
ATOM     24  C   UNL     1      38.819   1.286  14.273  0.00  0.00    +0.000 A 
ENDBRANCH  18  19
ENDBRANCH  17  18
ENDBRANCH  16  17
ENDBRANCH   7  11
BRANCH   1  25
ATOM     25  O   UNL     1      41.960  -1.385  13.589  0.00  0.00    +0.000 OA
BRANCH  25  27
ATOM     26  C   UNL     1      43.821  -0.162  14.525  0.00  0.00    +0.000 C 
ATOM     27  C   UNL     1      43.015  -1.444  14.504  0.00  0.00    +0.000 C 
ENDBRANCH  25  27
ENDBRANCH   1  25
BRANCH   6  28
ATOM     28  O   UNL     1      40.333  -2.199  11.564  0.00  0.00    +0.000 OA
BRANCH  28  29
ATOM     29  C   UNL     1      41.021  -3.252  10.911  0.00  0.00    +0.000 C 
ATOM     30  C   UNL     1      40.791  -3.261   9.423  0.00  0.00    +0.000 C 
ENDBRANCH  28  29
ENDBRANCH   6  28
TORSDOF 8
ENDMDL
MODEL 3
REMARK VINA RESULT:      -6.6      2.969      5.286
REMARK  Name = 
REMARK  8 active torsions:
REMARK  status: ('A' for Active; 'I' for Inactive)
REMARK    1  A    between atoms: C_2  and  O_3
REMARK    2  A    between atoms: O_3  and  C_4
REMARK    3  A    between atoms: C_9  and  O_10
REMARK    4  A    between atoms: O_10  and  C_11
REMARK    5  A    between atoms: C_13  and  C_14
REMARK    6  A    between atoms: C_19  and  O_20
REMARK    7  A    between atoms: O_20  and  C_21
REMARK    8  A    between atoms: C_21  and  C_22
REMARK                            x       y       z     vdW  Elec       q    Type
REMARK                         _______ _______ _______ _____ _____    ______ ____
ROOT
ATOM      1  C   UNL     1      37.311  -3.355  15.861  0.00  0.00    +0.000 A 
ATOM      2  C   UNL     1      37.568  -2.845  14.584  0.00  0.00    +0.000 A 
ATOM      3  C   UNL     1      38.856  -2.540  14.198  0.00  0.00    +0.000 A 
ATOM      4  C   UNL     1      39.836  -2.736  15.051  0.00  0.00    +0.000 A 
ATOM      5  C   UNL     1      39.695  -3.238  16.340  0.00  0.00    +0.000 A 
ATOM      6  C   UNL     1      38.386  -3.538  16.704  0.00  0.00    +0.000 A 
ATOM      7  C   UNL     1      41.375  -2.402  14.667  0.00  0.00    +0.000 C 
ATOM      8  N   UNL     1      41.259  -3.084  13.229  0.00  0.00    +0.000 NA
ATOM      9  C   UNL     1      40.415  -2.376  12.404  0.00  0.00    +0.000 C 
ATOM     10  C   UNL     1      39.056  -2.007  12.843  0.00  0.00    +0.000 C 
ENDROOT
BRANCH   7  11
ATOM     11  C   UNL     1      41.167  -0.878  14.166  0.00  0.00    +0.000 A 
ATOM     12  C   UNL     1      40.084  -0.214  14.618  0.00  0.00    +0.000 A 
ATOM     13  C   UNL     1      39.876   1.085  14.199  0.00  0.00    +0.000 A 
ATOM     14  C   UNL     1      40.797   1.656  13.323  0.00  0.00    +0.000 A 
ATOM     15  C   UNL     1      41.889   0.941  12.887  0.00  0.00    +0.000 A 
ATOM     16  C   UNL     1      42.089  -0.373  13.320  0.00  0.00    +0.000 A 
BRANCH  16  17
ATOM     17  O   UNL     1      43.178  -1.110  12.900  0.00  0.00    +0.000 OA
BRANCH  17  18
ATOM     18  C   UNL     1      44.518  -0.808  13.055  0.00  0.00    +0.000 C 
BRANCH  18  19
ATOM     19  C   UNL     1      44.950  -1.032  14.455  0.00  0.00    +0.000 A 
ATOM     20  C   UNL     1      45.067   0.004  15.363  0.00  0.00    +0.000 A 
ATOM     21  C   UNL     1      45.480  -0.280  16.648  0.00  0.00    +0.000 A 
ATOM     22  C   UNL     1      45.774  -1.576  17.032  0.00  0.00    +0.000 A 
ATOM     23  C   UNL     1      45.657  -2.612  16.129  0.00  0.00    +0.000 A 
ATOM     24  C   UNL     1      45.243  -2.309  14.845  0.00  0.00    +0.000 A 
ENDBRANCH  18  19
ENDBRANCH  17  18
ENDBRANCH  16  17
ENDBRANCH   7  11
BRANCH   1  25
ATOM     25  O   UNL     1      36.029  -3.674  16.285  0.00  0.00    +0.000 OA
BRANCH  25  27
ATOM     26  C   UNL     1      34.564  -1.939  17.107  0.00  0.00    +0.000 C 
ATOM     27  C   UNL     1      34.920  -2.880  15.976  0.00  0.00    +0.000 C 
ENDBRANCH  25  27
ENDBRANCH   1  25
BRANCH   6  28
ATOM     28  O   UNL     1      38.138  -4.041  17.967  0.00  0.00    +0.000 OA
BRANCH  28  29
ATOM     29  C   UNL     1      38.518  -3.364  19.152  0.00  0.00    +0.000 C 
ATOM     30  C   UNL     1      37.660  -2.159  19.433  0.00  0.00    +0.000 C 
ENDBRANCH  28  29
ENDBRANCH   6  28
TORSDOF 8
ENDMDL
MODEL 4
REMARK VINA RESULT:      -6.5      2.302      5.230
REMARK  Name = 
REMARK  8 active torsions:
REMARK  status: ('A' for Active; 'I' for Inactive)
REMARK    1  A    between atoms: C_2  and  O_3
REMARK    2  A    between atoms: O_3  and  C_4
REMARK    3  A    between atoms: C_9  and  O_10
REMARK    4  A    between atoms: O_10  and  C_11
REMARK    5  A    between atoms: C_13  and  C_14
REMARK    6  A    between atoms: C_19  and  O_20
REMARK    7  A    between atoms: O_20  and  C_21
REMARK    8  A    between atoms: C_21  and  C_22
REMARK                            x       y       z     vdW  Elec       q    Type
REMARK                         _______ _______ _______ _____ _____    ______ ____
ROOT
ATOM      1  C   UNL     1      36.396  -1.107  17.144  0.00  0.00    +0.000 A 
ATOM      2  C   UNL     1      35.953   0.197  17.386  0.00  0.00    +0.000 A 
ATOM      3  C   UNL     1      35.902   1.120  16.363  0.00  0.00    +0.000 A 
ATOM      4  C   UNL     1      36.277   0.753  15.159  0.00  0.00    +0.000 A 
ATOM      5  C   UNL     1      36.731  -0.513  14.806  0.00  0.00    +0.000 A 
ATOM      6  C   UNL     1      36.773  -1.425  15.856  0.00  0.00    +0.000 A 
ATOM      7  C   UNL     1      36.243   1.784  13.908  0.00  0.00    +0.000 C 
ATOM      8  N   UNL     1      34.797   2.339  14.289  0.00  0.00    +0.000 NA
ATOM      9  C   UNL     1      34.826   3.048  15.468  0.00  0.00    +0.000 C 
ATOM     10  C   UNL     1      35.428   2.473  16.686  0.00  0.00    +0.000 C 
ENDROOT
BRANCH   7  11
ATOM     11  C   UNL     1      37.088   2.992  14.574  0.00  0.00    +0.000 A 
ATOM     12  C   UNL     1      36.497   4.202  14.647  0.00  0.00    +0.000 A 
ATOM     13  C   UNL     1      37.198   5.253  15.200  0.00  0.00    +0.000 A 
ATOM     14  C   UNL     1      38.492   5.019  15.663  0.00  0.00    +0.000 A 
ATOM     15  C   UNL     1      39.056   3.768  15.569  0.00  0.00    +0.000 A 
ATOM     16  C   UNL     1      38.334   2.710  15.006  0.00  0.00    +0.000 A 
BRANCH  16  17
ATOM     17  O   UNL     1      38.876   1.445  14.904  0.00  0.00    +0.000 OA
BRANCH  17  18
ATOM     18  C   UNL     1      40.107   1.088  14.385  0.00  0.00    +0.000 C 
BRANCH  18  19
ATOM     19  C   UNL     1      40.078  -0.299  13.865  0.00  0.00    +0.000 A 
ATOM     20  C   UNL     1      39.662  -0.594  12.580  0.00  0.00    +0.000 A 
ATOM     21  C   UNL     1      39.657  -1.911  12.167  0.00  0.00    +0.000 A 
ATOM     22  C   UNL     1      40.059  -2.925  13.016  0.00  0.00    +0.000 A 
ATOM     23  C   UNL     1      40.475  -2.635  14.299  0.00  0.00    +0.000 A 
ATOM     24  C   UNL     1      40.474  -1.310  14.695  0.00  0.00    +0.000 A 
ENDBRANCH  18  19
ENDBRANCH  17  18
ENDBRANCH  16  17
ENDBRANCH   7  11
BRANCH   1  25
ATOM     25  O   UNL     1      36.461  -2.064  18.147  0.00  0.00    +0.000 OA
BRANCH  25  27
ATOM     26  C   UNL     1      38.585  -2.853  18.983  0.00  0.00    +0.000 C 
ATOM     27  C   UNL     1      37.371  -1.977  19.205  0.00  0.00    +0.000 C 
ENDBRANCH  25  27
ENDBRANCH   1  25
BRANCH   6  28
ATOM     28  O   UNL     1      37.212  -2.713  15.612  0.00  0.00    +0.000 OA
BRANCH  28  29
ATOM     29  C   UNL     1      36.693  -3.515  14.565  0.00  0.00    +0.000 C 
ATOM     30  C   UNL     1      35.236  -3.844  14.753  0.00  0.00    +0.000 C 
ENDBRANCH  28  29
ENDBRANCH   6  28
TORSDOF 8
ENDMDL
MODEL 5
REMARK VINA RESULT:      -6.5      3.829      6.987
REMARK  Name = 
REMARK  8 active torsions:
REMARK  status: ('A' for Active; 'I' for Inactive)
REMARK    1  A    between atoms: C_2  and  O_3
REMARK    2  A    between atoms: O_3  and  C_4
REMARK    3  A    between atoms: C_9  and  O_10
REMARK    4  A    between atoms: O_10  and  C_11
REMARK    5  A    between atoms: C_13  and  C_14
REMARK    6  A    between atoms: C_19  and  O_20
REMARK    7  A    between atoms: O_20  and  C_21
REMARK    8  A    between atoms: C_21  and  C_22
REMARK                            x       y       z     vdW  Elec       q    Type
REMARK                         _______ _______ _______ _____ _____    ______ ____
ROOT
ATOM      1  C   UNL     1      38.120   6.190  15.725  0.00  0.00    +0.000 A 
ATOM      2  C   UNL     1      37.260   5.507  14.860  0.00  0.00    +0.000 A 
ATOM      3  C   UNL     1      36.765   4.266  15.200  0.00  0.00    +0.000 A 
ATOM      4  C   UNL     1      37.117   3.737  16.350  0.00  0.00    +0.000 A 
ATOM      5  C   UNL     1      37.962   4.326  17.284  0.00  0.00    +0.000 A 
ATOM      6  C   UNL     1      38.446   5.578  16.917  0.00  0.00    +0.000 A 
ATOM      7  C   UNL     1      36.574   2.282  16.817  0.00  0.00    +0.000 C 
ATOM      8  N   UNL     1      35.075   2.599  16.373  0.00  0.00    +0.000 NA
ATOM      9  C   UNL     1      34.970   2.711  15.005  0.00  0.00    +0.000 C 
ATOM     10  C   UNL     1      35.867   3.601  14.245  0.00  0.00    +0.000 C 
ENDROOT
BRANCH   7  11
ATOM     11  C   UNL     1      36.986   1.442  15.497  0.00  0.00    +0.000 A 
ATOM     12  C   UNL     1      37.952   1.953  14.707  0.00  0.00    +0.000 A 
ATOM     13  C   UNL     1      38.316   1.263  13.569  0.00  0.00    +0.000 A 
ATOM     14  C   UNL     1      37.666   0.064  13.282  0.00  0.00    +0.000 A 
ATOM     15  C   UNL     1      36.684  -0.420  14.116  0.00  0.00    +0.000 A 
ATOM     16  C   UNL     1      36.326   0.288  15.268  0.00  0.00    +0.000 A 
BRANCH  16  17
ATOM     17  O   UNL     1      35.347  -0.178  16.123  0.00  0.00    +0.000 OA
BRANCH  17  18
ATOM     18  C   UNL     1      35.155  -1.473  16.566  0.00  0.00    +0.000 C 
BRANCH  18  19
ATOM     19  C   UNL     1      36.308  -1.929  17.379  0.00  0.00    +0.000 A 
ATOM     20  C   UNL     1      37.169  -2.918  16.942  0.00  0.00    +0.000 A 
ATOM     21  C   UNL     1      38.219  -3.294  17.755  0.00  0.00    +0.000 A 
ATOM     22  C   UNL     1      38.415  -2.697  18.986  0.00  0.00    +0.000 A 
ATOM     23  C   UNL     1      37.558  -1.708  19.425  0.00  0.00    +0.000 A 
ATOM     24  C   UNL     1      36.512  -1.345  18.597  0.00  0.00    +0.000 A 
ENDBRANCH  18  19
ENDBRANCH  17  18
ENDBRANCH  16  17
ENDBRANCH   7  11
BRANCH   1  25
ATOM     25  O   UNL     1      38.637   7.441  15.418  0.00  0.00    +0.000 OA
BRANCH  25  27
ATOM     26  C   UNL     1      40.742   6.851  14.392  0.00  0.00    +0.000 C 
ATOM     27  C   UNL     1      39.463   7.656  14.312  0.00  0.00    +0.000 C 
ENDBRANCH  25  27
ENDBRANCH   1  25
BRANCH   6  28
ATOM     28  O   UNL     1      39.296   6.249  17.776  0.00  0.00    +0.000 OA
BRANCH  28  29
ATOM     29  C   UNL     1      39.417   5.920  19.149  0.00  0.00    +0.000 C 
ATOM     30  C   UNL     1      39.380   7.131  20.042  0.00  0.00    +0.000 C 
ENDBRANCH  28  29
ENDBRANCH   6  28
TORSDOF 8
ENDMDL
MODEL 6
REMARK VINA RESULT:      -6.5      2.229      6.037
REMARK  Name = 
REMARK  8 active torsions:
REMARK  status: ('A' for Active; 'I' for Inactive)
REMARK    1  A    between atoms: C_2  and  O_3
REMARK    2  A    between atoms: O_3  and  C_4
REMARK    3  A    between atoms: C_9  and  O_10
REMARK    4  A    between atoms: O_10  and  C_11
REMARK    5  A    between atoms: C_13  and  C_14
REMARK    6  A    between atoms: C_19  and  O_20
REMARK    7  A    between atoms: O_20  and  C_21
REMARK    8  A    between atoms: C_21  and  C_22
REMARK                            x       y       z     vdW  Elec       q    Type
REMARK                         _______ _______ _______ _____ _____    ______ ____
ROOT
ATOM      1  C   UNL     1      39.839  -0.826  13.721  0.00  0.00    +0.000 A 
ATOM      2  C   UNL     1      39.754  -1.222  15.059  0.00  0.00    +0.000 A 
ATOM      3  C   UNL     1      38.556  -1.654  15.587  0.00  0.00    +0.000 A 
ATOM      4  C   UNL     1      37.497  -1.686  14.811  0.00  0.00    +0.000 A 
ATOM      5  C   UNL     1      37.468  -1.317  13.470  0.00  0.00    +0.000 A 
ATOM      6  C   UNL     1      38.689  -0.886  12.963  0.00  0.00    +0.000 A 
ATOM      7  C   UNL     1      36.055  -2.183  15.362  0.00  0.00    +0.000 C 
ATOM      8  N   UNL     1      36.678  -3.443  16.117  0.00  0.00    +0.000 NA
ATOM      9  C   UNL     1      37.466  -3.054  17.177  0.00  0.00    +0.000 C 
ATOM     10  C   UNL     1      38.536  -2.055  17.001  0.00  0.00    +0.000 C 
ENDROOT
BRANCH   7  11
ATOM     11  C   UNL     1      35.954  -1.221  16.658  0.00  0.00    +0.000 A 
ATOM     12  C   UNL     1      35.905  -1.809  17.871  0.00  0.00    +0.000 A 
ATOM     13  C   UNL     1      35.807  -1.013  18.994  0.00  0.00    +0.000 A 
ATOM     14  C   UNL     1      35.762   0.370  18.827  0.00  0.00    +0.000 A 
ATOM     15  C   UNL     1      35.814   0.928  17.570  0.00  0.00    +0.000 A 
ATOM     16  C   UNL     1      35.914   0.110  16.440  0.00  0.00    +0.000 A 
BRANCH  16  17
ATOM     17  O   UNL     1      35.971   0.645  15.169  0.00  0.00    +0.000 OA
BRANCH  17  18
ATOM     18  C   UNL     1      35.723   1.951  14.785  0.00  0.00    +0.000 C 
BRANCH  18  19
ATOM     19  C   UNL     1      36.970   2.611  14.328  0.00  0.00    +0.000 A 
ATOM     20  C   UNL     1      36.964   3.609  13.372  0.00  0.00    +0.000 A 
ATOM     21  C   UNL     1      38.164   4.174  12.993  0.00  0.00    +0.000 A 
ATOM     22  C   UNL     1      39.357   3.757  13.553  0.00  0.00    +0.000 A 
ATOM     23  C   UNL     1      39.366   2.761  14.508  0.00  0.00    +0.000 A 
ATOM     24  C   UNL     1      38.155   2.206  14.876  0.00  0.00    +0.000 A 
ENDBRANCH  18  19
ENDBRANCH  17  18
ENDBRANCH  16  17
ENDBRANCH   7  11
BRANCH   1  25
ATOM     25  O   UNL     1      41.027  -0.386  13.154  0.00  0.00    +0.000 OA
BRANCH  25  27
ATOM     26  C   UNL     1      43.189  -0.114  14.195  0.00  0.00    +0.000 C 
ATOM     27  C   UNL     1      42.252  -1.007  13.410  0.00  0.00    +0.000 C 
ENDBRANCH  25  27
ENDBRANCH   1  25
BRANCH   6  28
ATOM     28  O   UNL     1      38.767  -0.495  11.639  0.00  0.00    +0.000 OA
BRANCH  28  29
ATOM     29  C   UNL     1      38.582   0.847  11.223  0.00  0.00    +0.000 C 
ATOM     30  C   UNL     1      37.187   1.112  10.721  0.00  0.00    +0.000 C 
ENDBRANCH  28  29
ENDBRANCH   6  28
TORSDOF 8
ENDMDL
MODEL 7
REMARK VINA RESULT:      -6.5      1.910      5.160
REMARK  Name = 
REMARK  8 active torsions:
REMARK  status: ('A' for Active; 'I' for Inactive)
REMARK    1  A    between atoms: C_2  and  O_3
REMARK    2  A    between atoms: O_3  and  C_4
REMARK    3  A    between atoms: C_9  and  O_10
REMARK    4  A    between atoms: O_10  and  C_11
REMARK    5  A    between atoms: C_13  and  C_14
REMARK    6  A    between atoms: C_19  and  O_20
REMARK    7  A    between atoms: O_20  and  C_21
REMARK    8  A    between atoms: C_21  and  C_22
REMARK                            x       y       z     vdW  Elec       q    Type
REMARK                         _______ _______ _______ _____ _____    ______ ____
ROOT
ATOM      1  C   UNL     1      37.701   2.704  15.769  0.00  0.00    +0.000 A 
ATOM      2  C   UNL     1      38.806   2.494  14.938  0.00  0.00    +0.000 A 
ATOM      3  C   UNL     1      38.819   1.446  14.043  0.00  0.00    +0.000 A 
ATOM      4  C   UNL     1      37.777   0.649  13.984  0.00  0.00    +0.000 A 
ATOM      5  C   UNL     1      36.628   0.765  14.759  0.00  0.00    +0.000 A 
ATOM      6  C   UNL     1      36.640   1.830  15.655  0.00  0.00    +0.000 A 
ATOM      7  C   UNL     1      37.722  -0.603  12.955  0.00  0.00    +0.000 C 
ATOM      8  N   UNL     1      38.288   0.258  11.737  0.00  0.00    +0.000 NA
ATOM      9  C   UNL     1      39.598   0.623  11.946  0.00  0.00    +0.000 C 
ATOM     10  C   UNL     1      40.012   1.281  13.200  0.00  0.00    +0.000 C 
ENDROOT
BRANCH   7  11
ATOM     11  C   UNL     1      39.124  -1.301  13.357  0.00  0.00    +0.000 A 
ATOM     12  C   UNL     1      40.028  -1.499  12.376  0.00  0.00    +0.000 A 
ATOM     13  C   UNL     1      41.229  -2.103  12.688  0.00  0.00    +0.000 A 
ATOM     14  C   UNL     1      41.458  -2.484  14.009  0.00  0.00    +0.000 A 
ATOM     15  C   UNL     1      40.507  -2.263  14.979  0.00  0.00    +0.000 A 
ATOM     16  C   UNL     1      39.294  -1.649  14.650  0.00  0.00    +0.000 A 
BRANCH  16  17
ATOM     17  O   UNL     1      38.326  -1.413  15.605  0.00  0.00    +0.000 OA
BRANCH  17  18
ATOM     18  C   UNL     1      37.920  -2.251  16.627  0.00  0.00    +0.000 C 
BRANCH  18  19
ATOM     19  C   UNL     1      36.838  -3.156  16.168  0.00  0.00    +0.000 A 
ATOM     20  C   UNL     1      35.755  -2.696  15.444  0.00  0.00    +0.000 A 
ATOM     21  C   UNL     1      34.784  -3.596  15.055  0.00  0.00    +0.000 A 
ATOM     22  C   UNL     1      34.884  -4.937  15.379  0.00  0.00    +0.000 A 
ATOM     23  C   UNL     1      35.965  -5.399  16.101  0.00  0.00    +0.000 A 
ATOM     24  C   UNL     1      36.928  -4.483  16.482  0.00  0.00    +0.000 A 
ENDBRANCH  18  19
ENDBRANCH  17  18
ENDBRANCH  16  17
ENDBRANCH   7  11
BRANCH   1  25
ATOM     25  O   UNL     1      37.650   3.747  16.682  0.00  0.00    +0.000 OA
BRANCH  25  27
ATOM     26  C   UNL     1      38.990   5.012  18.244  0.00  0.00    +0.000 C 
ATOM     27  C   UNL     1      38.676   4.689  16.799  0.00  0.00    +0.000 C 
ENDBRANCH  25  27
ENDBRANCH   1  25
BRANCH   6  28
ATOM     28  O   UNL     1      35.545   2.033  16.473  0.00  0.00    +0.000 OA
BRANCH  28  29
ATOM     29  C   UNL     1      34.802   0.967  17.039  0.00  0.00    +0.000 C 
ATOM     30  C   UNL     1      35.542   0.267  18.148  0.00  0.00    +0.000 C 
ENDBRANCH  28  29
ENDBRANCH   6  28
TORSDOF 8
ENDMDL
MODEL 8
REMARK VINA RESULT:      -6.4     27.178     30.110
REMARK  Name = 
REMARK  8 active torsions:
REMARK  status: ('A' for Active; 'I' for Inactive)
REMARK    1  A    between atoms: C_2  and  O_3
REMARK    2  A    between atoms: O_3  and  C_4
REMARK    3  A    between atoms: C_9  and  O_10
REMARK    4  A    between atoms: O_10  and  C_11
REMARK    5  A    between atoms: C_13  and  C_14
REMARK    6  A    between atoms: C_19  and  O_20
REMARK    7  A    between atoms: O_20  and  C_21
REMARK    8  A    between atoms: C_21  and  C_22
REMARK                            x       y       z     vdW  Elec       q    Type
REMARK                         _______ _______ _______ _____ _____    ______ ____
ROOT
ATOM      1  C   UNL     1      28.382  15.471  38.209  0.00  0.00    +0.000 A 
ATOM      2  C   UNL     1      28.614  15.883  36.893  0.00  0.00    +0.000 A 
ATOM      3  C   UNL     1      27.609  16.472  36.156  0.00  0.00    +0.000 A 
ATOM      4  C   UNL     1      26.430  16.638  36.711  0.00  0.00    +0.000 A 
ATOM      5  C   UNL     1      26.090  16.269  38.008  0.00  0.00    +0.000 A 
ATOM      6  C   UNL     1      27.122  15.677  38.730  0.00  0.00    +0.000 A 
ATOM      7  C   UNL     1      25.201  17.323  35.906  0.00  0.00    +0.000 C 
ATOM      8  N   UNL     1      26.115  18.495  35.327  0.00  0.00    +0.000 NA
ATOM      9  C   UNL     1      27.041  18.013  34.429  0.00  0.00    +0.000 C 
ATOM     10  C   UNL     1      27.919  16.880  34.778  0.00  0.00    +0.000 C 
ENDROOT
BRANCH   7  11
ATOM     11  C   UNL     1      25.235  16.390  34.585  0.00  0.00    +0.000 A 
ATOM     12  C   UNL     1      25.784  15.164  34.700  0.00  0.00    +0.000 A 
ATOM     13  C   UNL     1      25.837  14.351  33.586  0.00  0.00    +0.000 A 
ATOM     14  C   UNL     1      25.318  14.833  32.386  0.00  0.00    +0.000 A 
ATOM     15  C   UNL     1      24.767  16.091  32.314  0.00  0.00    +0.000 A 
ATOM     16  C   UNL     1      24.719  16.905  33.450  0.00  0.00    +0.000 A 
BRANCH  16  17
ATOM     17  O   UNL     1      24.168  18.170  33.405  0.00  0.00    +0.000 OA
BRANCH  17  18
ATOM     18  C   UNL     1      23.691  18.850  32.299  0.00  0.00    +0.000 C 
BRANCH  18  19
ATOM     19  C   UNL     1      23.291  20.230  32.660  0.00  0.00    +0.000 A 
ATOM     20  C   UNL     1      23.622  20.796  33.877  0.00  0.00    +0.000 A 
ATOM     21  C   UNL     1      23.211  22.086  34.146  0.00  0.00    +0.000 A 
ATOM     22  C   UNL     1      22.479  22.807  33.221  0.00  0.00    +0.000 A 
ATOM     23  C   UNL     1      22.148  22.246  32.006  0.00  0.00    +0.000 A 
ATOM     24  C   UNL     1      22.568  20.953  31.753  0.00  0.00    +0.000 A 
ENDBRANCH  18  19
ENDBRANCH  17  18
ENDBRANCH  16  17
ENDBRANCH   7  11
BRANCH   1  25
ATOM     25  O   UNL     1      29.368  14.876  38.982  0.00  0.00    +0.000 OA
BRANCH  25  27
ATOM     26  C   UNL     1      31.254  13.541  38.276  0.00  0.00    +0.000 C 
ATOM     27  C   UNL     1      30.720  14.914  38.628  0.00  0.00    +0.000 C 
ENDBRANCH  25  27
ENDBRANCH   1  25
BRANCH   6  28
ATOM     28  O   UNL     1      26.887  15.272  40.030  0.00  0.00    +0.000 OA
BRANCH  28  29
ATOM     29  C   UNL     1      25.999  14.217  40.357  0.00  0.00    +0.000 C 
ATOM     30  C   UNL     1      26.505  13.361  41.488  0.00  0.00    +0.000 C 
ENDBRANCH  28  29
ENDBRANCH   6  28
TORSDOF 8
ENDMDL
MODEL 9
REMARK VINA RESULT:      -6.4      2.095      5.139
REMARK  Name = 
REMARK  8 active torsions:
REMARK  status: ('A' for Active; 'I' for Inactive)
REMARK    1  A    between atoms: C_2  and  O_3
REMARK    2  A    between atoms: O_3  and  C_4
REMARK    3  A    between atoms: C_9  and  O_10
REMARK    4  A    between atoms: O_10  and  C_11
REMARK    5  A    between atoms: C_13  and  C_14
REMARK    6  A    between atoms: C_19  and  O_20
REMARK    7  A    between atoms: O_20  and  C_21
REMARK    8  A    between atoms: C_21  and  C_22
REMARK                            x       y       z     vdW  Elec       q    Type
REMARK                         _______ _______ _______ _____ _____    ______ ____
ROOT
ATOM      1  C   UNL     1      38.020   2.907  15.689  0.00  0.00    +0.000 A 
ATOM      2  C   UNL     1      39.082   2.720  14.798  0.00  0.00    +0.000 A 
ATOM      3  C   UNL     1      39.090   1.647  13.933  0.00  0.00    +0.000 A 
ATOM      4  C   UNL     1      38.084   0.804  13.960  0.00  0.00    +0.000 A 
ATOM      5  C   UNL     1      36.979   0.893  14.800  0.00  0.00    +0.000 A 
ATOM      6  C   UNL     1      36.995   1.984  15.663  0.00  0.00    +0.000 A 
ATOM      7  C   UNL     1      38.024  -0.480  12.971  0.00  0.00    +0.000 C 
ATOM      8  N   UNL     1      38.477   0.368  11.697  0.00  0.00    +0.000 NA
ATOM      9  C   UNL     1      39.779   0.796  11.816  0.00  0.00    +0.000 C 
ATOM     10  C   UNL     1      40.237   1.510  13.024  0.00  0.00    +0.000 C 
ENDROOT
BRANCH   7  11
ATOM     11  C   UNL     1      39.479  -1.103  13.306  0.00  0.00    +0.000 A 
ATOM     12  C   UNL     1      40.324  -1.306  12.276  0.00  0.00    +0.000 A 
ATOM     13  C   UNL     1      41.568  -1.847  12.531  0.00  0.00    +0.000 A 
ATOM     14  C   UNL     1      41.898  -2.162  13.848  0.00  0.00    +0.000 A 
ATOM     15  C   UNL     1      41.004  -1.939  14.869  0.00  0.00    +0.000 A 
ATOM     16  C   UNL     1      39.747  -1.389  14.597  0.00  0.00    +0.000 A 
BRANCH  16  17
ATOM     17  O   UNL     1      38.833  -1.152  15.605  0.00  0.00    +0.000 OA
BRANCH  17  18
ATOM     18  C   UNL     1      38.450  -2.007  16.622  0.00  0.00    +0.000 C 
BRANCH  18  19
ATOM     19  C   UNL     1      37.025  -1.802  16.973  0.00  0.00    +0.000 A 
ATOM     20  C   UNL     1      36.636  -0.986  18.018  0.00  0.00    +0.000 A 
ATOM     21  C   UNL     1      35.291  -0.847  18.291  0.00  0.00    +0.000 A 
ATOM     22  C   UNL     1      34.340  -1.509  17.536  0.00  0.00    +0.000 A 
ATOM     23  C   UNL     1      34.724  -2.324  16.492  0.00  0.00    +0.000 A 
ATOM     24  C   UNL     1      36.076  -2.451  16.234  0.00  0.00    +0.000 A 
ENDBRANCH  18  19
ENDBRANCH  17  18
ENDBRANCH  16  17
ENDBRANCH   7  11
BRANCH   1  25
ATOM     25  O   UNL     1      37.976   3.974  16.574  0.00  0.00    +0.000 OA
BRANCH  25  27
ATOM     26  C   UNL     1      39.161   5.209  18.278  0.00  0.00    +0.000 C 
ATOM     27  C   UNL     1      39.089   4.781  16.828  0.00  0.00    +0.000 C 
ENDBRANCH  25  27
ENDBRANCH   1  25
BRANCH   6  28
ATOM     28  O   UNL     1      35.943   2.164  16.541  0.00  0.00    +0.000 OA
BRANCH  28  29
ATOM     29  C   UNL     1      34.593   2.238  16.116  0.00  0.00    +0.000 C 
ATOM     30  C   UNL     1      34.339   3.398  15.190  0.00  0.00    +0.000 C 
ENDBRANCH  28  29
ENDBRANCH   6  28
TORSDOF 8
ENDMDL
MODEL 10
REMARK VINA RESULT:      -6.4      2.126      6.089
REMARK  Name = 
REMARK  8 active torsions:
REMARK  status: ('A' for Active; 'I' for Inactive)
REMARK    1  A    between atoms: C_2  and  O_3
REMARK    2  A    between atoms: O_3  and  C_4
REMARK    3  A    between atoms: C_9  and  O_10
REMARK    4  A    between atoms: O_10  and  C_11
REMARK    5  A    between atoms: C_13  and  C_14
REMARK    6  A    between atoms: C_19  and  O_20
REMARK    7  A    between atoms: O_20  and  C_21
REMARK    8  A    between atoms: C_21  and  C_22
REMARK                            x       y       z     vdW  Elec       q    Type
REMARK                         _______ _______ _______ _____ _____    ______ ____
ROOT
ATOM      1  C   UNL     1      38.730   1.050  13.507  0.00  0.00    +0.000 A 
ATOM      2  C   UNL     1      39.365   0.271  14.478  0.00  0.00    +0.000 A 
ATOM      3  C   UNL     1      38.730  -0.824  15.024  0.00  0.00    +0.000 A 
ATOM      4  C   UNL     1      37.517  -1.121  14.615  0.00  0.00    +0.000 A 
ATOM      5  C   UNL     1      36.794  -0.419  13.656  0.00  0.00    +0.000 A 
ATOM      6  C   UNL     1      37.458   0.681  13.123  0.00  0.00    +0.000 A 
ATOM      7  C   UNL     1      36.708  -2.394  15.210  0.00  0.00    +0.000 C 
ATOM      8  N   UNL     1      37.974  -3.360  15.107  0.00  0.00    +0.000 NA
ATOM      9  C   UNL     1      38.962  -2.990  15.991  0.00  0.00    +0.000 C 
ATOM     10  C   UNL     1      39.453  -1.600  16.041  0.00  0.00    +0.000 C 
ENDROOT
BRANCH   7  11
ATOM     11  C   UNL     1      36.861  -2.055  16.784  0.00  0.00    +0.000 A 
ATOM     12  C   UNL     1      37.564  -2.919  17.544  0.00  0.00    +0.000 A 
ATOM     13  C   UNL     1      37.700  -2.661  18.893  0.00  0.00    +0.000 A 
ATOM     14  C   UNL     1      37.104  -1.515  19.414  0.00  0.00    +0.000 A 
ATOM     15  C   UNL     1      36.394  -0.660  18.602  0.00  0.00    +0.000 A 
ATOM     16  C   UNL     1      36.264  -0.933  17.236  0.00  0.00    +0.000 A 
BRANCH  16  17
ATOM     17  O   UNL     1      35.561  -0.090  16.399  0.00  0.00    +0.000 OA
BRANCH  17  18
ATOM     18  C   UNL     1      34.948   1.107  16.720  0.00  0.00    +0.000 C 
BRANCH  18  19
ATOM     19  C   UNL     1      35.569   2.232  15.982  0.00  0.00    +0.000 A 
ATOM     20  C   UNL     1      34.930   2.864  14.932  0.00  0.00    +0.000 A 
ATOM     21  C   UNL     1      35.573   3.902  14.288  0.00  0.00    +0.000 A 
ATOM     22  C   UNL     1      36.835   4.310  14.679  0.00  0.00    +0.000 A 
ATOM     23  C   UNL     1      37.475   3.682  15.727  0.00  0.00    +0.000 A 
ATOM     24  C   UNL     1      36.816   2.644  16.360  0.00  0.00    +0.000 A 
ENDBRANCH  18  19
ENDBRANCH  17  18
ENDBRANCH  16  17
ENDBRANCH   7  11
BRANCH   1  25
ATOM     25  O   UNL     1      39.338   2.159  12.935  0.00  0.00    +0.000 OA
BRANCH  25  27
ATOM     26  C   UNL     1      40.583   4.150  13.498  0.00  0.00    +0.000 C 
ATOM     27  C   UNL     1      40.575   2.642  13.372  0.00  0.00    +0.000 C 
ENDBRANCH  25  27
ENDBRANCH   1  25
BRANCH   6  28
ATOM     28  O   UNL     1      36.826   1.448  12.162  0.00  0.00    +0.000 OA
BRANCH  28  29
ATOM     29  C   UNL     1      36.671   1.022  10.819  0.00  0.00    +0.000 C 
ATOM     30  C   UNL     1      37.560   1.775   9.866  0.00  0.00    +0.000 C 
ENDBRANCH  28  29
ENDBRANCH   6  28
TORSDOF 8
ENDMDL
