MODEL 1
REMARK VINA RESULT:      -7.8      0.000      0.000
REMARK  Name = 
REMARK  8 active torsions:
REMARK  status: ('A' for Active; 'I' for Inactive)
REMARK    1  A    between atoms: C_2  and  C_3
REMARK    2  A    between atoms: C_3  and  C_6
REMARK    3  A    between atoms: C_9  and  O_10
REMARK    4  A    between atoms: O_10  and  C_11
REMARK    5  A    between atoms: C_14  and  N_15
REMARK    6  A    between atoms: C_16  and  C_18
REMARK    7  A    between atoms: C_18  and  C_19
REMARK    8  A    between atoms: C_24  and  N_25
REMARK                            x       y       z     vdW  Elec       q    Type
REMARK                         _______ _______ _______ _____ _____    ______ ____
ROOT
ATOM      1  C   UNL     1      37.565   4.216  14.996  0.00  0.00    +0.000 A 
ATOM      2  C   UNL     1      36.207   4.137  15.056  0.00  0.00    +0.000 A 
ATOM      3  C   UNL     1      35.574   2.915  15.210  0.00  0.00    +0.000 A 
ATOM      4  C   UNL     1      36.320   1.731  15.308  0.00  0.00    +0.000 A 
ATOM      5  C   UNL     1      37.691   1.823  15.240  0.00  0.00    +0.000 A 
ATOM      6  C   UNL     1      38.304   3.050  15.085  0.00  0.00    +0.000 A 
ENDROOT
BRANCH   4   7
ATOM      7  N   UNL     1      35.624   0.500  15.558  0.00  0.00    +0.000 NA
ATOM      8  C   UNL     1      35.272   0.025  16.826  0.00  0.00    +0.000 C 
ATOM      9  O   UNL     1      35.577   0.814  17.791  0.00  0.00    +0.000 OA
BRANCH   8  10
ATOM     10  C   UNL     1      34.621  -1.222  17.198  0.00  0.00    +0.000 C 
BRANCH  10  11
ATOM     11  C   UNL     1      35.137  -2.492  16.746  0.00  0.00    +0.000 A 
ATOM     12  C   UNL     1      34.361  -3.279  15.878  0.00  0.00    +0.000 A 
ATOM     13  C   UNL     1      34.894  -4.461  15.415  0.00  0.00    +0.000 A 
ATOM     14  C   UNL     1      36.143  -4.895  15.771  0.00  0.00    +0.000 A 
ATOM     15  C   UNL     1      36.908  -4.152  16.606  0.00  0.00    +0.000 A 
ATOM     16  C   UNL     1      36.398  -2.931  17.103  0.00  0.00    +0.000 A 
BRANCH  16  17
ATOM     17  N   UNL     1      37.173  -2.201  18.039  0.00  0.00    +0.000 N 
ATOM     18  O   UNL     1      37.035  -2.231  19.273  0.00  0.00    +0.000 OA
ATOM     19  O   UNL     1      38.192  -1.373  17.538  0.00  0.00    +0.000 OA
ENDBRANCH  16  17
ENDBRANCH  10  11
ENDBRANCH   8  10
ENDBRANCH   4   7
BRANCH   1  20
ATOM     20  O   UNL     1      38.187   5.447  14.868  0.00  0.00    +0.000 OA
BRANCH  20  24
ATOM     21  C   UNL     1      40.789   6.584  17.966  0.00  0.00    +0.000 A 
ATOM     22  C   UNL     1      39.473   6.331  18.219  0.00  0.00    +0.000 A 
ATOM     23  C   UNL     1      38.573   5.952  17.220  0.00  0.00    +0.000 A 
ATOM     24  C   UNL     1      39.014   5.826  15.955  0.00  0.00    +0.000 A 
ATOM     25  C   UNL     1      40.340   6.077  15.679  0.00  0.00    +0.000 A 
ATOM     26  C   UNL     1      41.215   6.442  16.635  0.00  0.00    +0.000 A 
BRANCH  21  27
ATOM     27  C   UNL     1      41.798   6.985  18.989  0.00  0.00    +0.000 C 
ATOM     28  C   UNL     1      43.189   6.743  18.476  0.00  0.00    +0.000 C 
ATOM     29  C   UNL     1      41.548   8.484  19.215  0.00  0.00    +0.000 C 
BRANCH  27  31
ATOM     30  C   UNL     1      42.829   6.115  21.060  0.00  0.00    +0.000 C 
ATOM     31  C   UNL     1      41.516   6.209  20.282  0.00  0.00    +0.000 C 
ENDBRANCH  27  31
ENDBRANCH  21  27
ENDBRANCH  20  24
ENDBRANCH   1  20
TORSDOF 8
ENDMDL
MODEL 2
REMARK VINA RESULT:      -7.8      2.302      4.247
REMARK  Name = 
REMARK  8 active torsions:
REMARK  status: ('A' for Active; 'I' for Inactive)
REMARK    1  A    between atoms: C_2  and  C_3
REMARK    2  A    between atoms: C_3  and  C_6
REMARK    3  A    between atoms: C_9  and  O_10
REMARK    4  A    between atoms: O_10  and  C_11
REMARK    5  A    between atoms: C_14  and  N_15
REMARK    6  A    between atoms: C_16  and  C_18
REMARK    7  A    between atoms: C_18  and  C_19
REMARK    8  A    between atoms: C_24  and  N_25
REMARK                            x       y       z     vdW  Elec       q    Type
REMARK                         _______ _______ _______ _____ _____    ______ ____
ROOT
ATOM      1  C   UNL     1      40.027   6.379  17.735  0.00  0.00    +0.000 A 
ATOM      2  C   UNL     1      39.122   5.648  18.444  0.00  0.00    +0.000 A 
ATOM      3  C   UNL     1      38.431   4.606  17.850  0.00  0.00    +0.000 A 
ATOM      4  C   UNL     1      38.649   4.279  16.503  0.00  0.00    +0.000 A 
ATOM      5  C   UNL     1      39.562   5.028  15.796  0.00  0.00    +0.000 A 
ATOM      6  C   UNL     1      40.241   6.064  16.405  0.00  0.00    +0.000 A 
ENDROOT
BRANCH   4   7
ATOM      7  N   UNL     1      37.977   3.133  15.957  0.00  0.00    +0.000 NA
ATOM      8  C   UNL     1      36.778   3.178  15.238  0.00  0.00    +0.000 C 
ATOM      9  O   UNL     1      36.320   4.361  15.043  0.00  0.00    +0.000 OA
BRANCH   8  10
ATOM     10  C   UNL     1      35.987   2.086  14.692  0.00  0.00    +0.000 C 
BRANCH  10  11
ATOM     11  C   UNL     1      35.826   0.850  15.419  0.00  0.00    +0.000 A 
ATOM     12  C   UNL     1      34.915   0.796  16.488  0.00  0.00    +0.000 A 
ATOM     13  C   UNL     1      34.736  -0.407  17.134  0.00  0.00    +0.000 A 
ATOM     14  C   UNL     1      35.410  -1.542  16.777  0.00  0.00    +0.000 A 
ATOM     15  C   UNL     1      36.293  -1.513  15.749  0.00  0.00    +0.000 A 
ATOM     16  C   UNL     1      36.505  -0.298  15.059  0.00  0.00    +0.000 A 
BRANCH  16  17
ATOM     17  N   UNL     1      37.489  -0.258  14.038  0.00  0.00    +0.000 N 
ATOM     18  O   UNL     1      37.286  -0.454  12.830  0.00  0.00    +0.000 OA
ATOM     19  O   UNL     1      38.810   0.035  14.418  0.00  0.00    +0.000 OA
ENDBRANCH  16  17
ENDBRANCH  10  11
ENDBRANCH   8  10
ENDBRANCH   4   7
BRANCH   1  20
ATOM     20  O   UNL     1      40.730   7.402  18.348  0.00  0.00    +0.000 OA
BRANCH  20  24
ATOM     21  C   UNL     1      44.103   6.238  20.569  0.00  0.00    +0.000 A 
ATOM     22  C   UNL     1      42.849   6.125  21.094  0.00  0.00    +0.000 A 
ATOM     23  C   UNL     1      41.702   6.500  20.392  0.00  0.00    +0.000 A 
ATOM     24  C   UNL     1      41.828   6.993  19.146  0.00  0.00    +0.000 A 
ATOM     25  C   UNL     1      43.085   7.115  18.599  0.00  0.00    +0.000 A 
ATOM     26  C   UNL     1      44.197   6.755  19.267  0.00  0.00    +0.000 A 
BRANCH  21  27
ATOM     27  C   UNL     1      45.364   5.849  21.265  0.00  0.00    +0.000 C 
ATOM     28  C   UNL     1      46.513   5.835  20.298  0.00  0.00    +0.000 C 
ATOM     29  C   UNL     1      45.563   6.928  22.340  0.00  0.00    +0.000 C 
BRANCH  27  31
ATOM     30  C   UNL     1      46.269   3.557  21.448  0.00  0.00    +0.000 C 
ATOM     31  C   UNL     1      45.152   4.483  21.930  0.00  0.00    +0.000 C 
ENDBRANCH  27  31
ENDBRANCH  21  27
ENDBRANCH  20  24
ENDBRANCH   1  20
TORSDOF 8
ENDMDL
MODEL 3
REMARK VINA RESULT:      -7.7     23.932     27.096
REMARK  Name = 
REMARK  8 active torsions:
REMARK  status: ('A' for Active; 'I' for Inactive)
REMARK    1  A    between atoms: C_2  and  C_3
REMARK    2  A    between atoms: C_3  and  C_6
REMARK    3  A    between atoms: C_9  and  O_10
REMARK    4  A    between atoms: O_10  and  C_11
REMARK    5  A    between atoms: C_14  and  N_15
REMARK    6  A    between atoms: C_16  and  C_18
REMARK    7  A    between atoms: C_18  and  C_19
REMARK    8  A    between atoms: C_24  and  N_25
REMARK                            x       y       z     vdW  Elec       q    Type
REMARK                         _______ _______ _______ _____ _____    ______ ____
ROOT
ATOM      1  C   UNL     1      14.771   0.140  27.316  0.00  0.00    +0.000 A 
ATOM      2  C   UNL     1      14.357  -0.897  26.537  0.00  0.00    +0.000 A 
ATOM      3  C   UNL     1      13.058  -0.952  26.062  0.00  0.00    +0.000 A 
ATOM      4  C   UNL     1      12.139   0.062  26.373  0.00  0.00    +0.000 A 
ATOM      5  C   UNL     1      12.569   1.102  27.165  0.00  0.00    +0.000 A 
ATOM      6  C   UNL     1      13.867   1.139  27.630  0.00  0.00    +0.000 A 
ENDROOT
BRANCH   4   7
ATOM      7  N   UNL     1      10.831   0.008  25.782  0.00  0.00    +0.000 NA
ATOM      8  C   UNL     1       9.739  -0.678  26.324  0.00  0.00    +0.000 C 
ATOM      9  O   UNL     1       9.971  -1.239  27.454  0.00  0.00    +0.000 OA
BRANCH   8  10
ATOM     10  C   UNL     1       8.396  -0.845  25.789  0.00  0.00    +0.000 C 
BRANCH  10  11
ATOM     11  C   UNL     1       7.550   0.297  25.534  0.00  0.00    +0.000 A 
ATOM     12  C   UNL     1       7.587   1.389  26.418  0.00  0.00    +0.000 A 
ATOM     13  C   UNL     1       6.814   2.490  26.128  0.00  0.00    +0.000 A 
ATOM     14  C   UNL     1       6.014   2.558  25.019  0.00  0.00    +0.000 A 
ATOM     15  C   UNL     1       5.964   1.517  24.154  0.00  0.00    +0.000 A 
ATOM     16  C   UNL     1       6.744   0.367  24.415  0.00  0.00    +0.000 A 
BRANCH  16  17
ATOM     17  N   UNL     1       6.623  -0.749  23.547  0.00  0.00    +0.000 N 
ATOM     18  O   UNL     1       7.311  -0.955  22.535  0.00  0.00    +0.000 OA
ATOM     19  O   UNL     1       5.646  -1.711  23.855  0.00  0.00    +0.000 OA
ENDBRANCH  16  17
ENDBRANCH  10  11
ENDBRANCH   8  10
ENDBRANCH   4   7
BRANCH   1  20
ATOM     20  O   UNL     1      16.081   0.196  27.764  0.00  0.00    +0.000 OA
BRANCH  20  24
ATOM     21  C   UNL     1      19.056   0.235  24.796  0.00  0.00    +0.000 A 
ATOM     22  C   UNL     1      18.282   1.334  25.020  0.00  0.00    +0.000 A 
ATOM     23  C   UNL     1      17.282   1.365  25.995  0.00  0.00    +0.000 A 
ATOM     24  C   UNL     1      17.068   0.271  26.749  0.00  0.00    +0.000 A 
ATOM     25  C   UNL     1      17.840  -0.850  26.537  0.00  0.00    +0.000 A 
ATOM     26  C   UNL     1      18.806  -0.889  25.601  0.00  0.00    +0.000 A 
BRANCH  21  27
ATOM     27  C   UNL     1      20.142   0.143  23.777  0.00  0.00    +0.000 C 
ATOM     28  C   UNL     1      19.937   1.168  22.698  0.00  0.00    +0.000 C 
ATOM     29  C   UNL     1      21.434   0.421  24.560  0.00  0.00    +0.000 C 
BRANCH  27  31
ATOM     30  C   UNL     1      20.952  -1.256  21.907  0.00  0.00    +0.000 C 
ATOM     31  C   UNL     1      20.167  -1.286  23.219  0.00  0.00    +0.000 C 
ENDBRANCH  27  31
ENDBRANCH  21  27
ENDBRANCH  20  24
ENDBRANCH   1  20
TORSDOF 8
ENDMDL
MODEL 4
REMARK VINA RESULT:      -7.6      2.350      4.442
REMARK  Name = 
REMARK  8 active torsions:
REMARK  status: ('A' for Active; 'I' for Inactive)
REMARK    1  A    between atoms: C_2  and  C_3
REMARK    2  A    between atoms: C_3  and  C_6
REMARK    3  A    between atoms: C_9  and  O_10
REMARK    4  A    between atoms: O_10  and  C_11
REMARK    5  A    between atoms: C_14  and  N_15
REMARK    6  A    between atoms: C_16  and  C_18
REMARK    7  A    between atoms: C_18  and  C_19
REMARK    8  A    between atoms: C_24  and  N_25
REMARK                            x       y       z     vdW  Elec       q    Type
REMARK                         _______ _______ _______ _____ _____    ______ ____
ROOT
ATOM      1  C   UNL     1      40.143   6.467  17.985  0.00  0.00    +0.000 A 
ATOM      2  C   UNL     1      39.293   5.731  18.752  0.00  0.00    +0.000 A 
ATOM      3  C   UNL     1      38.527   4.722  18.194  0.00  0.00    +0.000 A 
ATOM      4  C   UNL     1      38.611   4.436  16.822  0.00  0.00    +0.000 A 
ATOM      5  C   UNL     1      39.470   5.191  16.057  0.00  0.00    +0.000 A 
ATOM      6  C   UNL     1      40.225   6.193  16.631  0.00  0.00    +0.000 A 
ENDROOT
BRANCH   4   7
ATOM      7  N   UNL     1      37.866   3.323  16.306  0.00  0.00    +0.000 NA
ATOM      8  C   UNL     1      36.759   3.427  15.457  0.00  0.00    +0.000 C 
ATOM      9  O   UNL     1      36.467   4.628  15.111  0.00  0.00    +0.000 OA
BRANCH   8  10
ATOM     10  C   UNL     1      35.902   2.379  14.922  0.00  0.00    +0.000 C 
BRANCH  10  11
ATOM     11  C   UNL     1      36.463   1.158  14.397  0.00  0.00    +0.000 A 
ATOM     12  C   UNL     1      36.896   1.121  13.060  0.00  0.00    +0.000 A 
ATOM     13  C   UNL     1      37.477  -0.037  12.593  0.00  0.00    +0.000 A 
ATOM     14  C   UNL     1      37.646  -1.145  13.379  0.00  0.00    +0.000 A 
ATOM     15  C   UNL     1      37.237  -1.130  14.671  0.00  0.00    +0.000 A 
ATOM     16  C   UNL     1      36.635   0.039  15.188  0.00  0.00    +0.000 A 
BRANCH  16  17
ATOM     17  N   UNL     1      36.137   0.017  16.516  0.00  0.00    +0.000 N 
ATOM     18  O   UNL     1      36.787   0.295  17.537  0.00  0.00    +0.000 OA
ATOM     19  O   UNL     1      34.792  -0.344  16.702  0.00  0.00    +0.000 OA
ENDBRANCH  16  17
ENDBRANCH  10  11
ENDBRANCH   8  10
ENDBRANCH   4   7
BRANCH   1  20
ATOM     20  O   UNL     1      40.923   7.456  18.561  0.00  0.00    +0.000 OA
BRANCH  20  24
ATOM     21  C   UNL     1      44.324   6.137  20.649  0.00  0.00    +0.000 A 
ATOM     22  C   UNL     1      43.085   6.049  21.210  0.00  0.00    +0.000 A 
ATOM     23  C   UNL     1      41.928   6.476  20.553  0.00  0.00    +0.000 A 
ATOM     24  C   UNL     1      42.032   6.994  19.315  0.00  0.00    +0.000 A 
ATOM     25  C   UNL     1      43.275   7.091  18.732  0.00  0.00    +0.000 A 
ATOM     26  C   UNL     1      44.395   6.682  19.356  0.00  0.00    +0.000 A 
BRANCH  21  27
ATOM     27  C   UNL     1      45.593   5.693  21.296  0.00  0.00    +0.000 C 
ATOM     28  C   UNL     1      46.711   5.664  20.292  0.00  0.00    +0.000 C 
ATOM     29  C   UNL     1      45.861   6.741  22.387  0.00  0.00    +0.000 C 
BRANCH  27  31
ATOM     30  C   UNL     1      46.438   3.373  21.414  0.00  0.00    +0.000 C 
ATOM     31  C   UNL     1      45.358   4.320  21.938  0.00  0.00    +0.000 C 
ENDBRANCH  27  31
ENDBRANCH  21  27
ENDBRANCH  20  24
ENDBRANCH   1  20
TORSDOF 8
ENDMDL
MODEL 5
REMARK VINA RESULT:      -7.5     23.376     26.533
REMARK  Name = 
REMARK  8 active torsions:
REMARK  status: ('A' for Active; 'I' for Inactive)
REMARK    1  A    between atoms: C_2  and  C_3
REMARK    2  A    between atoms: C_3  and  C_6
REMARK    3  A    between atoms: C_9  and  O_10
REMARK    4  A    between atoms: O_10  and  C_11
REMARK    5  A    between atoms: C_14  and  N_15
REMARK    6  A    between atoms: C_16  and  C_18
REMARK    7  A    between atoms: C_18  and  C_19
REMARK    8  A    between atoms: C_24  and  N_25
REMARK                            x       y       z     vdW  Elec       q    Type
REMARK                         _______ _______ _______ _____ _____    ______ ____
ROOT
ATOM      1  C   UNL     1      15.055   0.080  27.279  0.00  0.00    +0.000 A 
ATOM      2  C   UNL     1      14.612  -0.764  26.307  0.00  0.00    +0.000 A 
ATOM      3  C   UNL     1      13.304  -0.703  25.856  0.00  0.00    +0.000 A 
ATOM      4  C   UNL     1      12.406   0.233  26.393  0.00  0.00    +0.000 A 
ATOM      5  C   UNL     1      12.865   1.076  27.379  0.00  0.00    +0.000 A 
ATOM      6  C   UNL     1      14.172   0.999  27.816  0.00  0.00    +0.000 A 
ENDROOT
BRANCH   4   7
ATOM      7  N   UNL     1      11.088   0.320  25.831  0.00  0.00    +0.000 NA
ATOM      8  C   UNL     1      10.033  -0.548  26.133  0.00  0.00    +0.000 C 
ATOM      9  O   UNL     1      10.311  -1.435  27.017  0.00  0.00    +0.000 OA
BRANCH   8  10
ATOM     10  C   UNL     1       8.684  -0.588  25.586  0.00  0.00    +0.000 C 
BRANCH  10  11
ATOM     11  C   UNL     1       8.451  -0.963  24.213  0.00  0.00    +0.000 A 
ATOM     12  C   UNL     1       9.402  -1.754  23.546  0.00  0.00    +0.000 A 
ATOM     13  C   UNL     1       9.135  -2.147  22.253  0.00  0.00    +0.000 A 
ATOM     14  C   UNL     1       7.986  -1.795  21.599  0.00  0.00    +0.000 A 
ATOM     15  C   UNL     1       7.055  -1.034  22.223  0.00  0.00    +0.000 A 
ATOM     16  C   UNL     1       7.290  -0.611  23.551  0.00  0.00    +0.000 A 
BRANCH  16  17
ATOM     17  N   UNL     1       6.348   0.252  24.167  0.00  0.00    +0.000 N 
ATOM     18  O   UNL     1       5.353  -0.109  24.816  0.00  0.00    +0.000 OA
ATOM     19  O   UNL     1       6.553   1.637  24.043  0.00  0.00    +0.000 OA
ENDBRANCH  16  17
ENDBRANCH  10  11
ENDBRANCH   8  10
ENDBRANCH   4   7
BRANCH   1  20
ATOM     20  O   UNL     1      16.373   0.025  27.702  0.00  0.00    +0.000 OA
BRANCH  20  24
ATOM     21  C   UNL     1      19.223  -0.043  24.614  0.00  0.00    +0.000 A 
ATOM     22  C   UNL     1      18.874  -1.189  25.266  0.00  0.00    +0.000 A 
ATOM     23  C   UNL     1      17.932  -1.212  26.297  0.00  0.00    +0.000 A 
ATOM     24  C   UNL     1      17.340  -0.063  26.669  0.00  0.00    +0.000 A 
ATOM     25  C   UNL     1      17.680   1.105  26.024  0.00  0.00    +0.000 A 
ATOM     26  C   UNL     1      18.585   1.138  25.028  0.00  0.00    +0.000 A 
BRANCH  21  27
ATOM     27  C   UNL     1      20.214   0.045  23.502  0.00  0.00    +0.000 C 
ATOM     28  C   UNL     1      21.566   0.428  24.034  0.00  0.00    +0.000 C 
ATOM     29  C   UNL     1      20.242  -1.366  22.895  0.00  0.00    +0.000 C 
BRANCH  27  31
ATOM     30  C   UNL     1      20.154   0.570  21.088  0.00  0.00    +0.000 C 
ATOM     31  C   UNL     1      19.695   1.049  22.466  0.00  0.00    +0.000 C 
ENDBRANCH  27  31
ENDBRANCH  21  27
ENDBRANCH  20  24
ENDBRANCH   1  20
TORSDOF 8
ENDMDL
MODEL 6
REMARK VINA RESULT:      -7.4      1.729      2.336
REMARK  Name = 
REMARK  8 active torsions:
REMARK  status: ('A' for Active; 'I' for Inactive)
REMARK    1  A    between atoms: C_2  and  C_3
REMARK    2  A    between atoms: C_3  and  C_6
REMARK    3  A    between atoms: C_9  and  O_10
REMARK    4  A    between atoms: O_10  and  C_11
REMARK    5  A    between atoms: C_14  and  N_15
REMARK    6  A    between atoms: C_16  and  C_18
REMARK    7  A    between atoms: C_18  and  C_19
REMARK    8  A    between atoms: C_24  and  N_25
REMARK                            x       y       z     vdW  Elec       q    Type
REMARK                         _______ _______ _______ _____ _____    ______ ____
ROOT
ATOM      1  C   UNL     1      37.677   4.195  15.712  0.00  0.00    +0.000 A 
ATOM      2  C   UNL     1      38.713   3.679  14.995  0.00  0.00    +0.000 A 
ATOM      3  C   UNL     1      38.700   2.358  14.580  0.00  0.00    +0.000 A 
ATOM      4  C   UNL     1      37.616   1.522  14.889  0.00  0.00    +0.000 A 
ATOM      5  C   UNL     1      36.577   2.055  15.619  0.00  0.00    +0.000 A 
ATOM      6  C   UNL     1      36.609   3.373  16.025  0.00  0.00    +0.000 A 
ENDROOT
BRANCH   4   7
ATOM      7  N   UNL     1      37.605   0.188  14.359  0.00  0.00    +0.000 NA
ATOM      8  C   UNL     1      38.170  -0.926  14.989  0.00  0.00    +0.000 C 
ATOM      9  O   UNL     1      38.677  -0.683  16.143  0.00  0.00    +0.000 OA
BRANCH   8  10
ATOM     10  C   UNL     1      38.266  -2.301  14.523  0.00  0.00    +0.000 C 
BRANCH  10  11
ATOM     11  C   UNL     1      37.420  -3.333  15.074  0.00  0.00    +0.000 A 
ATOM     12  C   UNL     1      36.186  -3.608  14.460  0.00  0.00    +0.000 A 
ATOM     13  C   UNL     1      35.417  -4.632  14.968  0.00  0.00    +0.000 A 
ATOM     14  C   UNL     1      35.810  -5.384  16.042  0.00  0.00    +0.000 A 
ATOM     15  C   UNL     1      36.996  -5.136  16.648  0.00  0.00    +0.000 A 
ATOM     16  C   UNL     1      37.814  -4.094  16.157  0.00  0.00    +0.000 A 
BRANCH  16  17
ATOM     17  N   UNL     1      39.016  -3.789  16.848  0.00  0.00    +0.000 N 
ATOM     18  O   UNL     1      39.101  -3.472  18.045  0.00  0.00    +0.000 OA
ATOM     19  O   UNL     1      40.218  -3.856  16.123  0.00  0.00    +0.000 OA
ENDBRANCH  16  17
ENDBRANCH  10  11
ENDBRANCH   8  10
ENDBRANCH   4   7
BRANCH   1  20
ATOM     20  O   UNL     1      37.691   5.525  16.099  0.00  0.00    +0.000 OA
BRANCH  20  24
ATOM     21  C   UNL     1      40.901   6.745  18.523  0.00  0.00    +0.000 A 
ATOM     22  C   UNL     1      40.011   5.810  18.963  0.00  0.00    +0.000 A 
ATOM     23  C   UNL     1      38.931   5.376  18.192  0.00  0.00    +0.000 A 
ATOM     24  C   UNL     1      38.753   5.895  16.963  0.00  0.00    +0.000 A 
ATOM     25  C   UNL     1      39.641   6.841  16.501  0.00  0.00    +0.000 A 
ATOM     26  C   UNL     1      40.685   7.264  17.236  0.00  0.00    +0.000 A 
BRANCH  21  27
ATOM     27  C   UNL     1      42.076   7.243  19.296  0.00  0.00    +0.000 C 
ATOM     28  C   UNL     1      42.078   6.660  20.680  0.00  0.00    +0.000 C 
ATOM     29  C   UNL     1      43.297   6.764  18.496  0.00  0.00    +0.000 C 
BRANCH  27  31
ATOM     30  C   UNL     1      40.969   9.197  20.327  0.00  0.00    +0.000 C 
ATOM     31  C   UNL     1      42.033   8.777  19.314  0.00  0.00    +0.000 C 
ENDBRANCH  27  31
ENDBRANCH  21  27
ENDBRANCH  20  24
ENDBRANCH   1  20
TORSDOF 8
ENDMDL
MODEL 7
REMARK VINA RESULT:      -7.4      2.189      3.679
REMARK  Name = 
REMARK  8 active torsions:
REMARK  status: ('A' for Active; 'I' for Inactive)
REMARK    1  A    between atoms: C_2  and  C_3
REMARK    2  A    between atoms: C_3  and  C_6
REMARK    3  A    between atoms: C_9  and  O_10
REMARK    4  A    between atoms: O_10  and  C_11
REMARK    5  A    between atoms: C_14  and  N_15
REMARK    6  A    between atoms: C_16  and  C_18
REMARK    7  A    between atoms: C_18  and  C_19
REMARK    8  A    between atoms: C_24  and  N_25
REMARK                            x       y       z     vdW  Elec       q    Type
REMARK                         _______ _______ _______ _____ _____    ______ ____
ROOT
ATOM      1  C   UNL     1      39.141   6.258  17.354  0.00  0.00    +0.000 A 
ATOM      2  C   UNL     1      38.810   5.217  18.166  0.00  0.00    +0.000 A 
ATOM      3  C   UNL     1      38.237   4.068  17.650  0.00  0.00    +0.000 A 
ATOM      4  C   UNL     1      37.985   3.951  16.274  0.00  0.00    +0.000 A 
ATOM      5  C   UNL     1      38.319   5.012  15.464  0.00  0.00    +0.000 A 
ATOM      6  C   UNL     1      38.888   6.150  15.997  0.00  0.00    +0.000 A 
ENDROOT
BRANCH   4   7
ATOM      7  N   UNL     1      37.475   2.705  15.773  0.00  0.00    +0.000 NA
ATOM      8  C   UNL     1      38.242   1.730  15.127  0.00  0.00    +0.000 C 
ATOM      9  O   UNL     1      39.493   2.005  15.050  0.00  0.00    +0.000 OA
BRANCH   8  10
ATOM     10  C   UNL     1      37.824   0.468  14.535  0.00  0.00    +0.000 C 
BRANCH  10  11
ATOM     11  C   UNL     1      38.323  -0.789  15.037  0.00  0.00    +0.000 A 
ATOM     12  C   UNL     1      39.440  -1.380  14.422  0.00  0.00    +0.000 A 
ATOM     13  C   UNL     1      39.934  -2.552  14.950  0.00  0.00    +0.000 A 
ATOM     14  C   UNL     1      39.378  -3.158  16.044  0.00  0.00    +0.000 A 
ATOM     15  C   UNL     1      38.302  -2.605  16.654  0.00  0.00    +0.000 A 
ATOM     16  C   UNL     1      37.765  -1.402  16.143  0.00  0.00    +0.000 A 
BRANCH  16  17
ATOM     17  N   UNL     1      36.590  -0.874  16.738  0.00  0.00    +0.000 N 
ATOM     18  O   UNL     1      35.427  -1.113  16.376  0.00  0.00    +0.000 OA
ATOM     19  O   UNL     1      36.747  -0.012  17.836  0.00  0.00    +0.000 OA
ENDBRANCH  16  17
ENDBRANCH  10  11
ENDBRANCH   8  10
ENDBRANCH   4   7
BRANCH   1  20
ATOM     20  O   UNL     1      39.737   7.392  17.880  0.00  0.00    +0.000 OA
BRANCH  20  24
ATOM     21  C   UNL     1      43.306   6.768  20.009  0.00  0.00    +0.000 A 
ATOM     22  C   UNL     1      43.305   6.801  18.646  0.00  0.00    +0.000 A 
ATOM     23  C   UNL     1      42.142   7.005  17.899  0.00  0.00    +0.000 A 
ATOM     24  C   UNL     1      40.973   7.178  18.541  0.00  0.00    +0.000 A 
ATOM     25  C   UNL     1      40.953   7.147  19.918  0.00  0.00    +0.000 A 
ATOM     26  C   UNL     1      42.068   6.952  20.647  0.00  0.00    +0.000 A 
BRANCH  21  27
ATOM     27  C   UNL     1      44.513   6.562  20.862  0.00  0.00    +0.000 C 
ATOM     28  C   UNL     1      45.714   6.271  20.008  0.00  0.00    +0.000 C 
ATOM     29  C   UNL     1      44.685   7.887  21.619  0.00  0.00    +0.000 C 
BRANCH  27  31
ATOM     30  C   UNL     1      44.486   5.967  23.260  0.00  0.00    +0.000 C 
ATOM     31  C   UNL     1      44.221   5.428  21.854  0.00  0.00    +0.000 C 
ENDBRANCH  27  31
ENDBRANCH  21  27
ENDBRANCH  20  24
ENDBRANCH   1  20
TORSDOF 8
ENDMDL
MODEL 8
REMARK VINA RESULT:      -7.3      5.810      7.013
REMARK  Name = 
REMARK  8 active torsions:
REMARK  status: ('A' for Active; 'I' for Inactive)
REMARK    1  A    between atoms: C_2  and  C_3
REMARK    2  A    between atoms: C_3  and  C_6
REMARK    3  A    between atoms: C_9  and  O_10
REMARK    4  A    between atoms: O_10  and  C_11
REMARK    5  A    between atoms: C_14  and  N_15
REMARK    6  A    between atoms: C_16  and  C_18
REMARK    7  A    between atoms: C_18  and  C_19
REMARK    8  A    between atoms: C_24  and  N_25
REMARK                            x       y       z     vdW  Elec       q    Type
REMARK                         _______ _______ _______ _____ _____    ______ ____
ROOT
ATOM      1  C   UNL     1      43.232  -1.245  13.741  0.00  0.00    +0.000 A 
ATOM      2  C   UNL     1      42.655  -0.266  12.989  0.00  0.00    +0.000 A 
ATOM      3  C   UNL     1      41.278  -0.136  12.931  0.00  0.00    +0.000 A 
ATOM      4  C   UNL     1      40.446  -1.011  13.646  0.00  0.00    +0.000 A 
ATOM      5  C   UNL     1      41.041  -1.999  14.397  0.00  0.00    +0.000 A 
ATOM      6  C   UNL     1      42.416  -2.113  14.443  0.00  0.00    +0.000 A 
ENDROOT
BRANCH   4   7
ATOM      7  N   UNL     1      39.029  -0.780  13.627  0.00  0.00    +0.000 NA
ATOM      8  C   UNL     1      38.345   0.057  14.515  0.00  0.00    +0.000 C 
ATOM      9  O   UNL     1      39.098   0.671  15.354  0.00  0.00    +0.000 OA
BRANCH   8  10
ATOM     10  C   UNL     1      36.917   0.320  14.623  0.00  0.00    +0.000 C 
BRANCH  10  11
ATOM     11  C   UNL     1      36.070  -0.506  15.449  0.00  0.00    +0.000 A 
ATOM     12  C   UNL     1      35.908  -1.863  15.125  0.00  0.00    +0.000 A 
ATOM     13  C   UNL     1      35.140  -2.647  15.957  0.00  0.00    +0.000 A 
ATOM     14  C   UNL     1      34.531  -2.153  17.079  0.00  0.00    +0.000 A 
ATOM     15  C   UNL     1      34.675  -0.847  17.410  0.00  0.00    +0.000 A 
ATOM     16  C   UNL     1      35.456  -0.009  16.583  0.00  0.00    +0.000 A 
BRANCH  16  17
ATOM     17  N   UNL     1      35.534   1.373  16.894  0.00  0.00    +0.000 N 
ATOM     18  O   UNL     1      36.454   1.922  17.519  0.00  0.00    +0.000 OA
ATOM     19  O   UNL     1      34.486   2.200  16.454  0.00  0.00    +0.000 OA
ENDBRANCH  16  17
ENDBRANCH  10  11
ENDBRANCH   8  10
ENDBRANCH   4   7
BRANCH   1  20
ATOM     20  O   UNL     1      44.611  -1.348  13.811  0.00  0.00    +0.000 OA
BRANCH  20  24
ATOM     21  C   UNL     1      46.181  -1.226  17.708  0.00  0.00    +0.000 A 
ATOM     22  C   UNL     1      46.159  -2.392  17.001  0.00  0.00    +0.000 A 
ATOM     23  C   UNL     1      45.647  -2.478  15.705  0.00  0.00    +0.000 A 
ATOM     24  C   UNL     1      45.154  -1.371  15.121  0.00  0.00    +0.000 A 
ATOM     25  C   UNL     1      45.167  -0.183  15.818  0.00  0.00    +0.000 A 
ATOM     26  C   UNL     1      45.659  -0.090  17.067  0.00  0.00    +0.000 A 
BRANCH  21  27
ATOM     27  C   UNL     1      46.720  -1.069  19.090  0.00  0.00    +0.000 C 
ATOM     28  C   UNL     1      46.085  -2.067  20.016  0.00  0.00    +0.000 C 
ATOM     29  C   UNL     1      48.228  -1.331  18.951  0.00  0.00    +0.000 C 
BRANCH  27  31
ATOM     30  C   UNL     1      47.427   0.654  20.714  0.00  0.00    +0.000 C 
ATOM     31  C   UNL     1      46.481   0.376  19.545  0.00  0.00    +0.000 C 
ENDBRANCH  27  31
ENDBRANCH  21  27
ENDBRANCH  20  24
ENDBRANCH   1  20
TORSDOF 8
ENDMDL
MODEL 9
REMARK VINA RESULT:      -7.2     26.618     28.616
REMARK  Name = 
REMARK  8 active torsions:
REMARK  status: ('A' for Active; 'I' for Inactive)
REMARK    1  A    between atoms: C_2  and  C_3
REMARK    2  A    between atoms: C_3  and  C_6
REMARK    3  A    between atoms: C_9  and  O_10
REMARK    4  A    between atoms: O_10  and  C_11
REMARK    5  A    between atoms: C_14  and  N_15
REMARK    6  A    between atoms: C_16  and  C_18
REMARK    7  A    between atoms: C_18  and  C_19
REMARK    8  A    between atoms: C_24  and  N_25
REMARK                            x       y       z     vdW  Elec       q    Type
REMARK                         _______ _______ _______ _____ _____    ______ ____
ROOT
ATOM      1  C   UNL     1      26.390  14.699  40.982  0.00  0.00    +0.000 A 
ATOM      2  C   UNL     1      27.566  14.056  40.739  0.00  0.00    +0.000 A 
ATOM      3  C   UNL     1      27.813  12.804  41.273  0.00  0.00    +0.000 A 
ATOM      4  C   UNL     1      26.855  12.168  42.078  0.00  0.00    +0.000 A 
ATOM      5  C   UNL     1      25.673  12.830  42.320  0.00  0.00    +0.000 A 
ATOM      6  C   UNL     1      25.445  14.078  41.779  0.00  0.00    +0.000 A 
ENDROOT
BRANCH   4   7
ATOM      7  N   UNL     1      27.119  10.832  42.534  0.00  0.00    +0.000 NA
ATOM      8  C   UNL     1      26.931   9.675  41.769  0.00  0.00    +0.000 C 
ATOM      9  O   UNL     1      26.539   9.892  40.566  0.00  0.00    +0.000 OA
BRANCH   8  10
ATOM     10  C   UNL     1      27.112   8.281  42.143  0.00  0.00    +0.000 C 
BRANCH  10  11
ATOM     11  C   UNL     1      26.651   7.789  43.419  0.00  0.00    +0.000 A 
ATOM     12  C   UNL     1      27.576   7.219  44.310  0.00  0.00    +0.000 A 
ATOM     13  C   UNL     1      27.126   6.805  45.544  0.00  0.00    +0.000 A 
ATOM     14  C   UNL     1      25.819   6.927  45.930  0.00  0.00    +0.000 A 
ATOM     15  C   UNL     1      24.910   7.475  45.087  0.00  0.00    +0.000 A 
ATOM     16  C   UNL     1      25.332   7.913  43.811  0.00  0.00    +0.000 A 
BRANCH  16  17
ATOM     17  N   UNL     1      24.359   8.410  42.907  0.00  0.00    +0.000 N 
ATOM     18  O   UNL     1      23.804   9.518  42.979  0.00  0.00    +0.000 OA
ATOM     19  O   UNL     1      23.990   7.587  41.829  0.00  0.00    +0.000 OA
ENDBRANCH  16  17
ENDBRANCH  10  11
ENDBRANCH   8  10
ENDBRANCH   4   7
BRANCH   1  20
ATOM     20  O   UNL     1      26.145  15.941  40.420  0.00  0.00    +0.000 OA
BRANCH  20  24
ATOM     21  C   UNL     1      26.294  16.021  36.220  0.00  0.00    +0.000 A 
ATOM     22  C   UNL     1      27.279  16.601  36.964  0.00  0.00    +0.000 A 
ATOM     23  C   UNL     1      27.269  16.598  38.360  0.00  0.00    +0.000 A 
ATOM     24  C   UNL     1      26.251  16.001  39.007  0.00  0.00    +0.000 A 
ATOM     25  C   UNL     1      25.247  15.409  38.274  0.00  0.00    +0.000 A 
ATOM     26  C   UNL     1      25.249  15.406  36.928  0.00  0.00    +0.000 A 
BRANCH  21  27
ATOM     27  C   UNL     1      26.253  15.984  34.729  0.00  0.00    +0.000 C 
ATOM     28  C   UNL     1      25.283  17.006  34.207  0.00  0.00    +0.000 C 
ATOM     29  C   UNL     1      27.688  16.315  34.292  0.00  0.00    +0.000 C 
BRANCH  27  31
ATOM     30  C   UNL     1      25.319  14.650  32.870  0.00  0.00    +0.000 C 
ATOM     31  C   UNL     1      25.888  14.561  34.287  0.00  0.00    +0.000 C 
ENDBRANCH  27  31
ENDBRANCH  21  27
ENDBRANCH  20  24
ENDBRANCH   1  20
TORSDOF 8
ENDMDL
MODEL 10
REMARK VINA RESULT:      -7.0      6.350      7.549
REMARK  Name = 
REMARK  8 active torsions:
REMARK  status: ('A' for Active; 'I' for Inactive)
REMARK    1  A    between atoms: C_2  and  C_3
REMARK    2  A    between atoms: C_3  and  C_6
REMARK    3  A    between atoms: C_9  and  O_10
REMARK    4  A    between atoms: O_10  and  C_11
REMARK    5  A    between atoms: C_14  and  N_15
REMARK    6  A    between atoms: C_16  and  C_18
REMARK    7  A    between atoms: C_18  and  C_19
REMARK    8  A    between atoms: C_24  and  N_25
REMARK                            x       y       z     vdW  Elec       q    Type
REMARK                         _______ _______ _______ _____ _____    ______ ____
ROOT
ATOM      1  C   UNL     1      43.723  -0.517  14.020  0.00  0.00    +0.000 A 
ATOM      2  C   UNL     1      42.918   0.501  13.608  0.00  0.00    +0.000 A 
ATOM      3  C   UNL     1      41.555   0.311  13.460  0.00  0.00    +0.000 A 
ATOM      4  C   UNL     1      40.973  -0.937  13.733  0.00  0.00    +0.000 A 
ATOM      5  C   UNL     1      41.798  -1.959  14.143  0.00  0.00    +0.000 A 
ATOM      6  C   UNL     1      43.155  -1.750  14.284  0.00  0.00    +0.000 A 
ENDROOT
BRANCH   4   7
ATOM      7  N   UNL     1      39.544  -1.060  13.653  0.00  0.00    +0.000 NA
ATOM      8  C   UNL     1      38.654  -0.692  14.667  0.00  0.00    +0.000 C 
ATOM      9  O   UNL     1      39.210  -0.168  15.698  0.00  0.00    +0.000 OA
BRANCH   8  10
ATOM     10  C   UNL     1      37.205  -0.822  14.717  0.00  0.00    +0.000 C 
BRANCH  10  11
ATOM     11  C   UNL     1      36.378   0.259  15.194  0.00  0.00    +0.000 A 
ATOM     12  C   UNL     1      36.145   1.366  14.360  0.00  0.00    +0.000 A 
ATOM     13  C   UNL     1      35.310   2.362  14.813  0.00  0.00    +0.000 A 
ATOM     14  C   UNL     1      34.703   2.314  16.039  0.00  0.00    +0.000 A 
ATOM     15  C   UNL     1      34.913   1.256  16.859  0.00  0.00    +0.000 A 
ATOM     16  C   UNL     1      35.764   0.212  16.431  0.00  0.00    +0.000 A 
BRANCH  16  17
ATOM     17  N   UNL     1      36.041  -0.852  17.329  0.00  0.00    +0.000 N 
ATOM     18  O   UNL     1      35.388  -1.902  17.428  0.00  0.00    +0.000 OA
ATOM     19  O   UNL     1      37.153  -0.715  18.177  0.00  0.00    +0.000 OA
ENDBRANCH  16  17
ENDBRANCH  10  11
ENDBRANCH   8  10
ENDBRANCH   4   7
BRANCH   1  20
ATOM     20  O   UNL     1      45.082  -0.306  14.188  0.00  0.00    +0.000 OA
BRANCH  20  24
ATOM     21  C   UNL     1      46.725  -1.572  17.843  0.00  0.00    +0.000 A 
ATOM     22  C   UNL     1      45.884  -0.501  17.792  0.00  0.00    +0.000 A 
ATOM     23  C   UNL     1      45.315  -0.046  16.600  0.00  0.00    +0.000 A 
ATOM     24  C   UNL     1      45.604  -0.685  15.451  0.00  0.00    +0.000 A 
ATOM     25  C   UNL     1      46.452  -1.769  15.482  0.00  0.00    +0.000 A 
ATOM     26  C   UNL     1      47.003  -2.216  16.626  0.00  0.00    +0.000 A 
BRANCH  21  27
ATOM     27  C   UNL     1      47.357  -2.109  19.084  0.00  0.00    +0.000 C 
ATOM     28  C   UNL     1      47.931  -3.474  18.831  0.00  0.00    +0.000 C 
ATOM     29  C   UNL     1      48.465  -1.101  19.424  0.00  0.00    +0.000 C 
BRANCH  27  31
ATOM     30  C   UNL     1      46.465  -3.434  20.971  0.00  0.00    +0.000 C 
ATOM     31  C   UNL     1      46.304  -2.123  20.200  0.00  0.00    +0.000 C 
ENDBRANCH  27  31
ENDBRANCH  21  27
ENDBRANCH  20  24
ENDBRANCH   1  20
TORSDOF 8
ENDMDL
