MODEL 1
REMARK VINA RESULT:      -8.6      0.000      0.000
REMARK  Name = 
REMARK  7 active torsions:
REMARK  status: ('A' for Active; 'I' for Inactive)
REMARK    1  A    between atoms: C_2  and  C_3
REMARK    2  A    between atoms: C_3  and  C_4
REMARK    3  A    between atoms: C_4  and  C_5
REMARK    4  A    between atoms: C_5  and  N_6
REMARK    5  A    between atoms: C_9  and  C_10
REMARK    6  A    between atoms: N_12  and  C_13
REMARK    7  A    between atoms: C_13  and  C_14
REMARK                            x       y       z     vdW  Elec       q    Type
REMARK                         _______ _______ _______ _____ _____    ______ ____
ROOT
ATOM      1  N   UNL     1      35.924  -0.005  16.125  0.00  0.00    +0.000 N 
ATOM      2  C   UNL     1      35.784   1.326  16.137  0.00  0.00    +0.000 A 
ATOM      3  N   UNL     1      34.622   2.050  16.541  0.00  0.00    +0.000 NA
ATOM      4  C   UNL     1      36.938   1.940  15.697  0.00  0.00    +0.000 A 
ATOM      5  C   UNL     1      37.803   0.884  15.412  0.00  0.00    +0.000 A 
ATOM      6  N   UNL     1      39.066   0.911  14.950  0.00  0.00    +0.000 NA
ATOM      7  C   UNL     1      39.771  -0.207  14.725  0.00  0.00    +0.000 A 
ATOM      8  C   UNL     1      41.065  -0.198  14.253  0.00  0.00    +0.000 A 
ATOM      9  C   UNL     1      41.770  -1.363  14.029  0.00  0.00    +0.000 A 
ATOM     10  C   UNL     1      41.129  -2.556  14.299  0.00  0.00    +0.000 A 
ATOM     11  C   UNL     1      39.831  -2.574  14.773  0.00  0.00    +0.000 A 
ATOM     12  C   UNL     1      39.129  -1.411  14.995  0.00  0.00    +0.000 A 
ATOM     13  N   UNL     1      37.848  -1.434  15.464  0.00  0.00    +0.000 NA
ATOM     14  C   UNL     1      37.172  -0.297  15.678  0.00  0.00    +0.000 A 
ENDROOT
BRANCH   4  15
ATOM     15  C   UNL     1      37.217   3.360  15.556  0.00  0.00    +0.000 C 
ATOM     16  O   UNL     1      36.680   4.017  14.638  0.00  0.00    +0.000 OA
ATOM     17  N   UNL     1      38.093   4.000  16.450  0.00  0.00    +0.000 NA
BRANCH  17  18
ATOM     18  C   UNL     1      38.423   5.417  16.372  0.00  0.00    +0.000 C 
BRANCH  18  19
ATOM     19  C   UNL     1      39.425   5.770  17.410  0.00  0.00    +0.000 A 
ATOM     20  C   UNL     1      40.683   6.097  16.956  0.00  0.00    +0.000 A 
ATOM     21  C   UNL     1      41.685   6.437  17.804  0.00  0.00    +0.000 A 
ATOM     22  C   UNL     1      41.394   6.443  19.164  0.00  0.00    +0.000 A 
ATOM     23  C   UNL     1      42.509   6.820  20.080  0.00  0.00    +0.000 C 
ATOM     24  C   UNL     1      40.125   6.114  19.638  0.00  0.00    +0.000 A 
ATOM     25  C   UNL     1      39.128   5.775  18.754  0.00  0.00    +0.000 A 
ENDBRANCH  18  19
ENDBRANCH  17  18
ENDBRANCH   4  15
BRANCH   1  26
ATOM     26  C   UNL     1      34.936  -0.998  16.513  0.00  0.00    +0.000 C 
BRANCH  26  27
ATOM     27  C   UNL     1      35.435  -1.699  17.749  0.00  0.00    +0.000 C 
BRANCH  27  28
ATOM     28  C   UNL     1      35.500  -0.703  18.878  0.00  0.00    +0.000 C 
BRANCH  28  30
ATOM     29  C   UNL     1      37.708  -1.810  19.132  0.00  0.00    +0.000 C 
ATOM     30  C   UNL     1      36.894  -0.555  19.433  0.00  0.00    +0.000 C 
ENDBRANCH  28  30
ENDBRANCH  27  28
ENDBRANCH  26  27
ENDBRANCH   1  26
TORSDOF 7
ENDMDL
MODEL 2
REMARK VINA RESULT:      -8.2      1.434      4.115
REMARK  Name = 
REMARK  7 active torsions:
REMARK  status: ('A' for Active; 'I' for Inactive)
REMARK    1  A    between atoms: C_2  and  C_3
REMARK    2  A    between atoms: C_3  and  C_4
REMARK    3  A    between atoms: C_4  and  C_5
REMARK    4  A    between atoms: C_5  and  N_6
REMARK    5  A    between atoms: C_9  and  C_10
REMARK    6  A    between atoms: N_12  and  C_13
REMARK    7  A    between atoms: C_13  and  C_14
REMARK                            x       y       z     vdW  Elec       q    Type
REMARK                         _______ _______ _______ _____ _____    ______ ____
ROOT
ATOM      1  N   UNL     1      38.925   0.995  13.798  0.00  0.00    +0.000 N 
ATOM      2  C   UNL     1      39.080   2.285  14.121  0.00  0.00    +0.000 A 
ATOM      3  N   UNL     1      40.040   3.185  13.566  0.00  0.00    +0.000 NA
ATOM      4  C   UNL     1      38.170   2.657  15.088  0.00  0.00    +0.000 A 
ATOM      5  C   UNL     1      37.440   1.496  15.339  0.00  0.00    +0.000 A 
ATOM      6  N   UNL     1      36.424   1.291  16.196  0.00  0.00    +0.000 NA
ATOM      7  C   UNL     1      35.820   0.100  16.319  0.00  0.00    +0.000 A 
ATOM      8  C   UNL     1      34.778  -0.128  17.190  0.00  0.00    +0.000 A 
ATOM      9  C   UNL     1      34.173  -1.364  17.299  0.00  0.00    +0.000 A 
ATOM     10  C   UNL     1      34.651  -2.379  16.495  0.00  0.00    +0.000 A 
ATOM     11  C   UNL     1      35.696  -2.159  15.618  0.00  0.00    +0.000 A 
ATOM     12  C   UNL     1      36.299  -0.926  15.511  0.00  0.00    +0.000 A 
ATOM     13  N   UNL     1      37.329  -0.714  14.643  0.00  0.00    +0.000 NA
ATOM     14  C   UNL     1      37.911   0.490  14.544  0.00  0.00    +0.000 A 
ENDROOT
BRANCH   4  15
ATOM     15  C   UNL     1      37.990   3.955  15.718  0.00  0.00    +0.000 C 
ATOM     16  O   UNL     1      37.332   4.847  15.140  0.00  0.00    +0.000 OA
ATOM     17  N   UNL     1      38.557   4.213  16.978  0.00  0.00    +0.000 NA
BRANCH  17  18
ATOM     18  C   UNL     1      38.422   5.487  17.671  0.00  0.00    +0.000 C 
BRANCH  18  19
ATOM     19  C   UNL     1      39.730   5.909  18.235  0.00  0.00    +0.000 A 
ATOM     20  C   UNL     1      40.763   6.054  17.335  0.00  0.00    +0.000 A 
ATOM     21  C   UNL     1      42.005   6.432  17.725  0.00  0.00    +0.000 A 
ATOM     22  C   UNL     1      42.202   6.671  19.081  0.00  0.00    +0.000 A 
ATOM     23  C   UNL     1      43.574   7.086  19.491  0.00  0.00    +0.000 C 
ATOM     24  C   UNL     1      41.166   6.527  20.004  0.00  0.00    +0.000 A 
ATOM     25  C   UNL     1      39.916   6.143  19.578  0.00  0.00    +0.000 A 
ENDBRANCH  18  19
ENDBRANCH  17  18
ENDBRANCH   4  15
BRANCH   1  26
ATOM     26  C   UNL     1      39.690   0.233  12.825  0.00  0.00    +0.000 C 
BRANCH  26  27
ATOM     27  C   UNL     1      40.822  -0.447  13.545  0.00  0.00    +0.000 C 
BRANCH  27  28
ATOM     28  C   UNL     1      40.593  -1.937  13.512  0.00  0.00    +0.000 C 
BRANCH  28  30
ATOM     29  C   UNL     1      39.886  -2.797  15.732  0.00  0.00    +0.000 C 
ATOM     30  C   UNL     1      41.060  -2.618  14.773  0.00  0.00    +0.000 C 
ENDBRANCH  28  30
ENDBRANCH  27  28
ENDBRANCH  26  27
ENDBRANCH   1  26
TORSDOF 7
ENDMDL
MODEL 3
REMARK VINA RESULT:      -8.0      1.472      2.116
REMARK  Name = 
REMARK  7 active torsions:
REMARK  status: ('A' for Active; 'I' for Inactive)
REMARK    1  A    between atoms: C_2  and  C_3
REMARK    2  A    between atoms: C_3  and  C_4
REMARK    3  A    between atoms: C_4  and  C_5
REMARK    4  A    between atoms: C_5  and  N_6
REMARK    5  A    between atoms: C_9  and  C_10
REMARK    6  A    between atoms: N_12  and  C_13
REMARK    7  A    between atoms: C_13  and  C_14
REMARK                            x       y       z     vdW  Elec       q    Type
REMARK                         _______ _______ _______ _____ _____    ______ ____
ROOT
ATOM      1  N   UNL     1      36.165  -0.928  16.504  0.00  0.00    +0.000 N 
ATOM      2  C   UNL     1      35.791   0.357  16.530  0.00  0.00    +0.000 A 
ATOM      3  N   UNL     1      34.556   0.868  17.033  0.00  0.00    +0.000 NA
ATOM      4  C   UNL     1      36.776   1.160  15.996  0.00  0.00    +0.000 A 
ATOM      5  C   UNL     1      37.789   0.272  15.636  0.00  0.00    +0.000 A 
ATOM      6  N   UNL     1      38.983   0.517  15.069  0.00  0.00    +0.000 NA
ATOM      7  C   UNL     1      39.855  -0.461  14.783  0.00  0.00    +0.000 A 
ATOM      8  C   UNL     1      41.082  -0.228  14.203  0.00  0.00    +0.000 A 
ATOM      9  C   UNL     1      41.962  -1.253  13.918  0.00  0.00    +0.000 A 
ATOM     10  C   UNL     1      41.570  -2.537  14.239  0.00  0.00    +0.000 A 
ATOM     11  C   UNL     1      40.340  -2.779  14.822  0.00  0.00    +0.000 A 
ATOM     12  C   UNL     1      39.463  -1.756  15.104  0.00  0.00    +0.000 A 
ATOM     13  N   UNL     1      38.250  -2.001  15.680  0.00  0.00    +0.000 NA
ATOM     14  C   UNL     1      37.402  -0.999  15.953  0.00  0.00    +0.000 A 
ENDROOT
BRANCH   4  15
ATOM     15  C   UNL     1      36.785   2.606  15.834  0.00  0.00    +0.000 C 
ATOM     16  O   UNL     1      35.937   3.160  15.100  0.00  0.00    +0.000 OA
ATOM     17  N   UNL     1      37.746   3.385  16.500  0.00  0.00    +0.000 NA
BRANCH  17  18
ATOM     18  C   UNL     1      37.819   4.836  16.387  0.00  0.00    +0.000 C 
BRANCH  18  19
ATOM     19  C   UNL     1      38.953   5.359  17.190  0.00  0.00    +0.000 A 
ATOM     20  C   UNL     1      40.047   5.805  16.482  0.00  0.00    +0.000 A 
ATOM     21  C   UNL     1      41.147   6.304  17.101  0.00  0.00    +0.000 A 
ATOM     22  C   UNL     1      41.129   6.349  18.490  0.00  0.00    +0.000 A 
ATOM     23  C   UNL     1      42.347   6.901  19.152  0.00  0.00    +0.000 C 
ATOM     24  C   UNL     1      40.030   5.901  19.220  0.00  0.00    +0.000 A 
ATOM     25  C   UNL     1      38.929   5.401  18.566  0.00  0.00    +0.000 A 
ENDBRANCH  18  19
ENDBRANCH  17  18
ENDBRANCH   4  15
BRANCH   1  26
ATOM     26  C   UNL     1      35.406  -2.075  16.973  0.00  0.00    +0.000 C 
BRANCH  26  27
ATOM     27  C   UNL     1      34.916  -2.838  15.772  0.00  0.00    +0.000 C 
BRANCH  27  28
ATOM     28  C   UNL     1      33.605  -3.497  16.117  0.00  0.00    +0.000 C 
BRANCH  28  30
ATOM     29  C   UNL     1      34.330  -4.971  14.254  0.00  0.00    +0.000 C 
ATOM     30  C   UNL     1      33.134  -4.438  15.038  0.00  0.00    +0.000 C 
ENDBRANCH  28  30
ENDBRANCH  27  28
ENDBRANCH  26  27
ENDBRANCH   1  26
TORSDOF 7
ENDMDL
MODEL 4
REMARK VINA RESULT:      -7.3      1.834      4.743
REMARK  Name = 
REMARK  7 active torsions:
REMARK  status: ('A' for Active; 'I' for Inactive)
REMARK    1  A    between atoms: C_2  and  C_3
REMARK    2  A    between atoms: C_3  and  C_4
REMARK    3  A    between atoms: C_4  and  C_5
REMARK    4  A    between atoms: C_5  and  N_6
REMARK    5  A    between atoms: C_9  and  C_10
REMARK    6  A    between atoms: N_12  and  C_13
REMARK    7  A    between atoms: C_13  and  C_14
REMARK                            x       y       z     vdW  Elec       q    Type
REMARK                         _______ _______ _______ _____ _____    ______ ____
ROOT
ATOM      1  N   UNL     1      38.577  -1.650  13.781  0.00  0.00    +0.000 N 
ATOM      2  C   UNL     1      38.118  -0.407  13.596  0.00  0.00    +0.000 A 
ATOM      3  N   UNL     1      38.031   0.285  12.350  0.00  0.00    +0.000 NA
ATOM      4  C   UNL     1      37.724   0.150  14.795  0.00  0.00    +0.000 A 
ATOM      5  C   UNL     1      37.976  -0.847  15.736  0.00  0.00    +0.000 A 
ATOM      6  N   UNL     1      37.776  -0.840  17.067  0.00  0.00    +0.000 NA
ATOM      7  C   UNL     1      38.075  -1.893  17.841  0.00  0.00    +0.000 A 
ATOM      8  C   UNL     1      37.877  -1.903  19.204  0.00  0.00    +0.000 A 
ATOM      9  C   UNL     1      38.192  -2.999  19.981  0.00  0.00    +0.000 A 
ATOM     10  C   UNL     1      38.717  -4.103  19.340  0.00  0.00    +0.000 A 
ATOM     11  C   UNL     1      38.918  -4.102  17.972  0.00  0.00    +0.000 A 
ATOM     12  C   UNL     1      38.605  -3.007  17.199  0.00  0.00    +0.000 A 
ATOM     13  N   UNL     1      38.804  -3.010  15.850  0.00  0.00    +0.000 NA
ATOM     14  C   UNL     1      38.496  -1.940  15.104  0.00  0.00    +0.000 A 
ENDROOT
BRANCH   4  15
ATOM     15  C   UNL     1      37.169   1.469  15.047  0.00  0.00    +0.000 C 
ATOM     16  O   UNL     1      36.003   1.741  14.684  0.00  0.00    +0.000 OA
ATOM     17  N   UNL     1      37.939   2.447  15.699  0.00  0.00    +0.000 NA
BRANCH  17  18
ATOM     18  C   UNL     1      37.454   3.790  15.986  0.00  0.00    +0.000 C 
BRANCH  18  19
ATOM     19  C   UNL     1      38.524   4.601  16.622  0.00  0.00    +0.000 A 
ATOM     20  C   UNL     1      38.460   4.726  17.993  0.00  0.00    +0.000 A 
ATOM     21  C   UNL     1      39.377   5.441  18.690  0.00  0.00    +0.000 A 
ATOM     22  C   UNL     1      40.395   6.050  17.965  0.00  0.00    +0.000 A 
ATOM     23  C   UNL     1      41.394   6.832  18.750  0.00  0.00    +0.000 C 
ATOM     24  C   UNL     1      40.472   5.933  16.578  0.00  0.00    +0.000 A 
ATOM     25  C   UNL     1      39.528   5.200  15.897  0.00  0.00    +0.000 A 
ENDBRANCH  18  19
ENDBRANCH  17  18
ENDBRANCH   4  15
BRANCH   1  26
ATOM     26  C   UNL     1      39.084  -2.562  12.769  0.00  0.00    +0.000 C 
BRANCH  26  27
ATOM     27  C   UNL     1      40.586  -2.473  12.767  0.00  0.00    +0.000 C 
BRANCH  27  28
ATOM     28  C   UNL     1      41.114  -3.215  11.565  0.00  0.00    +0.000 C 
BRANCH  28  30
ATOM     29  C   UNL     1      42.403  -1.179  10.966  0.00  0.00    +0.000 C 
ATOM     30  C   UNL     1      42.456  -2.697  11.114  0.00  0.00    +0.000 C 
ENDBRANCH  28  30
ENDBRANCH  27  28
ENDBRANCH  26  27
ENDBRANCH   1  26
TORSDOF 7
ENDMDL
MODEL 5
REMARK VINA RESULT:      -7.3      2.492      5.038
REMARK  Name = 
REMARK  7 active torsions:
REMARK  status: ('A' for Active; 'I' for Inactive)
REMARK    1  A    between atoms: C_2  and  C_3
REMARK    2  A    between atoms: C_3  and  C_4
REMARK    3  A    between atoms: C_4  and  C_5
REMARK    4  A    between atoms: C_5  and  N_6
REMARK    5  A    between atoms: C_9  and  C_10
REMARK    6  A    between atoms: N_12  and  C_13
REMARK    7  A    between atoms: C_13  and  C_14
REMARK                            x       y       z     vdW  Elec       q    Type
REMARK                         _______ _______ _______ _____ _____    ______ ____
ROOT
ATOM      1  N   UNL     1      38.772   2.160  13.690  0.00  0.00    +0.000 N 
ATOM      2  C   UNL     1      39.000   3.373  14.208  0.00  0.00    +0.000 A 
ATOM      3  N   UNL     1      39.832   4.389  13.647  0.00  0.00    +0.000 NA
ATOM      4  C   UNL     1      38.312   3.533  15.392  0.00  0.00    +0.000 A 
ATOM      5  C   UNL     1      37.640   2.324  15.566  0.00  0.00    +0.000 A 
ATOM      6  N   UNL     1      36.820   1.934  16.559  0.00  0.00    +0.000 NA
ATOM      7  C   UNL     1      36.246   0.722  16.580  0.00  0.00    +0.000 A 
ATOM      8  C   UNL     1      35.404   0.307  17.587  0.00  0.00    +0.000 A 
ATOM      9  C   UNL     1      34.825  -0.946  17.586  0.00  0.00    +0.000 A 
ATOM     10  C   UNL     1      35.119  -1.782  16.527  0.00  0.00    +0.000 A 
ATOM     11  C   UNL     1      35.963  -1.372  15.512  0.00  0.00    +0.000 A 
ATOM     12  C   UNL     1      36.540  -0.123  15.515  0.00  0.00    +0.000 A 
ATOM     13  N   UNL     1      37.371   0.277  14.510  0.00  0.00    +0.000 NA
ATOM     14  C   UNL     1      37.929   1.495  14.520  0.00  0.00    +0.000 A 
ENDROOT
BRANCH   4  15
ATOM     15  C   UNL     1      38.275   4.687  16.276  0.00  0.00    +0.000 C 
ATOM     16  O   UNL     1      37.714   5.743  15.907  0.00  0.00    +0.000 OA
ATOM     17  N   UNL     1      38.871   4.623  17.547  0.00  0.00    +0.000 NA
BRANCH  17  18
ATOM     18  C   UNL     1      38.877   5.737  18.486  0.00  0.00    +0.000 C 
BRANCH  18  19
ATOM     19  C   UNL     1      40.272   6.121  18.822  0.00  0.00    +0.000 A 
ATOM     20  C   UNL     1      41.140   6.254  17.760  0.00  0.00    +0.000 A 
ATOM     21  C   UNL     1      42.440   6.598  17.936  0.00  0.00    +0.000 A 
ATOM     22  C   UNL     1      42.870   6.815  19.240  0.00  0.00    +0.000 A 
ATOM     23  C   UNL     1      44.302   7.194  19.413  0.00  0.00    +0.000 C 
ATOM     24  C   UNL     1      42.003   6.683  20.325  0.00  0.00    +0.000 A 
ATOM     25  C   UNL     1      40.690   6.334  20.116  0.00  0.00    +0.000 A 
ENDBRANCH  18  19
ENDBRANCH  17  18
ENDBRANCH   4  15
BRANCH   1  26
ATOM     26  C   UNL     1      39.314   1.613  12.457  0.00  0.00    +0.000 C 
BRANCH  26  27
ATOM     27  C   UNL     1      38.424   2.041  11.322  0.00  0.00    +0.000 C 
BRANCH  27  28
ATOM     28  C   UNL     1      39.179   1.882  10.027  0.00  0.00    +0.000 C 
BRANCH  28  30
ATOM     29  C   UNL     1      36.857   1.797   9.152  0.00  0.00    +0.000 C 
ATOM     30  C   UNL     1      38.303   1.375   8.910  0.00  0.00    +0.000 C 
ENDBRANCH  28  30
ENDBRANCH  27  28
ENDBRANCH  26  27
ENDBRANCH   1  26
TORSDOF 7
ENDMDL
MODEL 6
REMARK VINA RESULT:      -7.2      1.946      2.224
REMARK  Name = 
REMARK  7 active torsions:
REMARK  status: ('A' for Active; 'I' for Inactive)
REMARK    1  A    between atoms: C_2  and  C_3
REMARK    2  A    between atoms: C_3  and  C_4
REMARK    3  A    between atoms: C_4  and  C_5
REMARK    4  A    between atoms: C_5  and  N_6
REMARK    5  A    between atoms: C_9  and  C_10
REMARK    6  A    between atoms: N_12  and  C_13
REMARK    7  A    between atoms: C_13  and  C_14
REMARK                            x       y       z     vdW  Elec       q    Type
REMARK                         _______ _______ _______ _____ _____    ______ ____
ROOT
ATOM      1  N   UNL     1      37.304  -0.309  15.495  0.00  0.00    +0.000 N 
ATOM      2  C   UNL     1      37.023   0.860  16.082  0.00  0.00    +0.000 A 
ATOM      3  N   UNL     1      36.366   1.039  17.337  0.00  0.00    +0.000 NA
ATOM      4  C   UNL     1      37.459   1.912  15.304  0.00  0.00    +0.000 A 
ATOM      5  C   UNL     1      38.032   1.301  14.189  0.00  0.00    +0.000 A 
ATOM      6  N   UNL     1      38.614   1.858  13.111  0.00  0.00    +0.000 NA
ATOM      7  C   UNL     1      39.122   1.122  12.112  0.00  0.00    +0.000 A 
ATOM      8  C   UNL     1      39.722   1.674  11.002  0.00  0.00    +0.000 A 
ATOM      9  C   UNL     1      40.238   0.896   9.986  0.00  0.00    +0.000 A 
ATOM     10  C   UNL     1      40.135  -0.474  10.120  0.00  0.00    +0.000 A 
ATOM     11  C   UNL     1      39.535  -1.037  11.231  0.00  0.00    +0.000 A 
ATOM     12  C   UNL     1      39.019  -0.259  12.242  0.00  0.00    +0.000 A 
ATOM     13  N   UNL     1      38.429  -0.819  13.337  0.00  0.00    +0.000 NA
ATOM     14  C   UNL     1      37.930  -0.054  14.318  0.00  0.00    +0.000 A 
ENDROOT
BRANCH   4  15
ATOM     15  C   UNL     1      37.360   3.339  15.563  0.00  0.00    +0.000 C 
ATOM     16  O   UNL     1      36.463   4.017  15.015  0.00  0.00    +0.000 OA
ATOM     17  N   UNL     1      38.271   3.964  16.432  0.00  0.00    +0.000 NA
BRANCH  17  18
ATOM     18  C   UNL     1      38.237   5.387  16.740  0.00  0.00    +0.000 C 
BRANCH  18  19
ATOM     19  C   UNL     1      39.388   5.756  17.603  0.00  0.00    +0.000 A 
ATOM     20  C   UNL     1      40.569   6.044  16.953  0.00  0.00    +0.000 A 
ATOM     21  C   UNL     1      41.692   6.392  17.630  0.00  0.00    +0.000 A 
ATOM     22  C   UNL     1      41.608   6.448  19.016  0.00  0.00    +0.000 A 
ATOM     23  C   UNL     1      42.853   6.833  19.742  0.00  0.00    +0.000 C 
ATOM     24  C   UNL     1      40.421   6.158  19.687  0.00  0.00    +0.000 A 
ATOM     25  C   UNL     1      39.298   5.809  18.975  0.00  0.00    +0.000 A 
ENDBRANCH  18  19
ENDBRANCH  17  18
ENDBRANCH   4  15
BRANCH   1  26
ATOM     26  C   UNL     1      37.005  -1.641  15.996  0.00  0.00    +0.000 C 
BRANCH  26  27
ATOM     27  C   UNL     1      38.198  -2.129  16.773  0.00  0.00    +0.000 C 
BRANCH  27  28
ATOM     28  C   UNL     1      37.714  -2.817  18.023  0.00  0.00    +0.000 C 
BRANCH  28  30
ATOM     29  C   UNL     1      37.660  -2.682  20.502  0.00  0.00    +0.000 C 
ATOM     30  C   UNL     1      37.641  -1.882  19.203  0.00  0.00    +0.000 C 
ENDBRANCH  28  30
ENDBRANCH  27  28
ENDBRANCH  26  27
ENDBRANCH   1  26
TORSDOF 7
ENDMDL
MODEL 7
REMARK VINA RESULT:      -7.1      4.676      7.909
REMARK  Name = 
REMARK  7 active torsions:
REMARK  status: ('A' for Active; 'I' for Inactive)
REMARK    1  A    between atoms: C_2  and  C_3
REMARK    2  A    between atoms: C_3  and  C_4
REMARK    3  A    between atoms: C_4  and  C_5
REMARK    4  A    between atoms: C_5  and  N_6
REMARK    5  A    between atoms: C_9  and  C_10
REMARK    6  A    between atoms: N_12  and  C_13
REMARK    7  A    between atoms: C_13  and  C_14
REMARK                            x       y       z     vdW  Elec       q    Type
REMARK                         _______ _______ _______ _____ _____    ______ ____
ROOT
ATOM      1  N   UNL     1      37.536   3.314  14.978  0.00  0.00    +0.000 N 
ATOM      2  C   UNL     1      37.977   3.193  13.720  0.00  0.00    +0.000 A 
ATOM      3  N   UNL     1      38.609   4.213  12.945  0.00  0.00    +0.000 NA
ATOM      4  C   UNL     1      37.742   1.922  13.242  0.00  0.00    +0.000 A 
ATOM      5  C   UNL     1      37.120   1.264  14.303  0.00  0.00    +0.000 A 
ATOM      6  N   UNL     1      36.674  -0.002  14.384  0.00  0.00    +0.000 NA
ATOM      7  C   UNL     1      36.091  -0.487  15.490  0.00  0.00    +0.000 A 
ATOM      8  C   UNL     1      35.629  -1.781  15.590  0.00  0.00    +0.000 A 
ATOM      9  C   UNL     1      35.033  -2.257  16.740  0.00  0.00    +0.000 A 
ATOM     10  C   UNL     1      34.914  -1.385  17.804  0.00  0.00    +0.000 A 
ATOM     11  C   UNL     1      35.376  -0.085  17.711  0.00  0.00    +0.000 A 
ATOM     12  C   UNL     1      35.969   0.389  16.563  0.00  0.00    +0.000 A 
ATOM     13  N   UNL     1      36.424   1.672  16.478  0.00  0.00    +0.000 NA
ATOM     14  C   UNL     1      37.002   2.126  15.356  0.00  0.00    +0.000 A 
ENDROOT
BRANCH   4  15
ATOM     15  C   UNL     1      38.060   1.366  11.937  0.00  0.00    +0.000 C 
ATOM     16  O   UNL     1      38.972   0.518  11.820  0.00  0.00    +0.000 OA
ATOM     17  N   UNL     1      37.345   1.780  10.799  0.00  0.00    +0.000 NA
BRANCH  17  18
ATOM     18  C   UNL     1      37.606   1.271   9.460  0.00  0.00    +0.000 C 
BRANCH  18  19
ATOM     19  C   UNL     1      36.890   2.090   8.449  0.00  0.00    +0.000 A 
ATOM     20  C   UNL     1      36.854   1.582   7.169  0.00  0.00    +0.000 A 
ATOM     21  C   UNL     1      36.232   2.236   6.156  0.00  0.00    +0.000 A 
ATOM     22  C   UNL     1      35.627   3.451   6.459  0.00  0.00    +0.000 A 
ATOM     23  C   UNL     1      34.948   4.154   5.333  0.00  0.00    +0.000 C 
ATOM     24  C   UNL     1      35.657   3.977   7.750  0.00  0.00    +0.000 A 
ATOM     25  C   UNL     1      36.294   3.291   8.757  0.00  0.00    +0.000 A 
ENDBRANCH  18  19
ENDBRANCH  17  18
ENDBRANCH   4  15
BRANCH   1  26
ATOM     26  C   UNL     1      37.600   4.494  15.825  0.00  0.00    +0.000 C 
BRANCH  26  27
ATOM     27  C   UNL     1      38.907   4.469  16.569  0.00  0.00    +0.000 C 
BRANCH  27  28
ATOM     28  C   UNL     1      38.645   4.777  18.021  0.00  0.00    +0.000 C 
BRANCH  28  30
ATOM     29  C   UNL     1      40.031   6.137  19.568  0.00  0.00    +0.000 C 
ATOM     30  C   UNL     1      39.056   6.178  18.395  0.00  0.00    +0.000 C 
ENDBRANCH  28  30
ENDBRANCH  27  28
ENDBRANCH  26  27
ENDBRANCH   1  26
TORSDOF 7
ENDMDL
MODEL 8
REMARK VINA RESULT:      -7.0      3.093      8.052
REMARK  Name = 
REMARK  7 active torsions:
REMARK  status: ('A' for Active; 'I' for Inactive)
REMARK    1  A    between atoms: C_2  and  C_3
REMARK    2  A    between atoms: C_3  and  C_4
REMARK    3  A    between atoms: C_4  and  C_5
REMARK    4  A    between atoms: C_5  and  N_6
REMARK    5  A    between atoms: C_9  and  C_10
REMARK    6  A    between atoms: N_12  and  C_13
REMARK    7  A    between atoms: C_13  and  C_14
REMARK                            x       y       z     vdW  Elec       q    Type
REMARK                         _______ _______ _______ _____ _____    ______ ____
ROOT
ATOM      1  N   UNL     1      37.998   6.110  15.940  0.00  0.00    +0.000 N 
ATOM      2  C   UNL     1      37.765   4.817  16.196  0.00  0.00    +0.000 A 
ATOM      3  N   UNL     1      38.435   4.014  17.168  0.00  0.00    +0.000 NA
ATOM      4  C   UNL     1      36.765   4.332  15.379  0.00  0.00    +0.000 A 
ATOM      5  C   UNL     1      36.397   5.427  14.598  0.00  0.00    +0.000 A 
ATOM      6  N   UNL     1      35.464   5.517  13.633  0.00  0.00    +0.000 NA
ATOM      7  C   UNL     1      35.230   6.657  12.968  0.00  0.00    +0.000 A 
ATOM      8  C   UNL     1      34.279   6.767  11.978  0.00  0.00    +0.000 A 
ATOM      9  C   UNL     1      34.055   7.953  11.307  0.00  0.00    +0.000 A 
ATOM     10  C   UNL     1      34.825   9.041  11.666  0.00  0.00    +0.000 A 
ATOM     11  C   UNL     1      35.781   8.940  12.659  0.00  0.00    +0.000 A 
ATOM     12  C   UNL     1      36.003   7.756  13.326  0.00  0.00    +0.000 A 
ATOM     13  N   UNL     1      36.947   7.661  14.306  0.00  0.00    +0.000 NA
ATOM     14  C   UNL     1      37.157   6.506  14.951  0.00  0.00    +0.000 A 
ENDROOT
BRANCH   4  15
ATOM     15  C   UNL     1      36.202   2.993  15.325  0.00  0.00    +0.000 C 
ATOM     16  O   UNL     1      36.364   2.284  14.308  0.00  0.00    +0.000 OA
ATOM     17  N   UNL     1      35.473   2.488  16.416  0.00  0.00    +0.000 NA
BRANCH  17  18
ATOM     18  C   UNL     1      34.879   1.159  16.437  0.00  0.00    +0.000 C 
BRANCH  18  19
ATOM     19  C   UNL     1      35.744   0.219  17.194  0.00  0.00    +0.000 A 
ATOM     20  C   UNL     1      36.605  -0.554  16.446  0.00  0.00    +0.000 A 
ATOM     21  C   UNL     1      37.445  -1.451  17.020  0.00  0.00    +0.000 A 
ATOM     22  C   UNL     1      37.406  -1.564  18.405  0.00  0.00    +0.000 A 
ATOM     23  C   UNL     1      38.337  -2.555  19.018  0.00  0.00    +0.000 C 
ATOM     24  C   UNL     1      36.540  -0.789  19.175  0.00  0.00    +0.000 A 
ATOM     25  C   UNL     1      35.700   0.113  18.565  0.00  0.00    +0.000 A 
ENDBRANCH  18  19
ENDBRANCH  17  18
ENDBRANCH   4  15
BRANCH   1  26
ATOM     26  C   UNL     1      38.972   6.974  16.586  0.00  0.00    +0.000 C 
BRANCH  26  27
ATOM     27  C   UNL     1      38.315   7.614  17.779  0.00  0.00    +0.000 C 
BRANCH  27  28
ATOM     28  C   UNL     1      38.942   7.060  19.033  0.00  0.00    +0.000 C 
BRANCH  28  30
ATOM     29  C   UNL     1      41.008   6.268  20.161  0.00  0.00    +0.000 C 
ATOM     30  C   UNL     1      40.445   6.998  18.944  0.00  0.00    +0.000 C 
ENDBRANCH  28  30
ENDBRANCH  27  28
ENDBRANCH  26  27
ENDBRANCH   1  26
TORSDOF 7
ENDMDL
MODEL 9
REMARK VINA RESULT:      -7.0      3.885      7.692
REMARK  Name = 
REMARK  7 active torsions:
REMARK  status: ('A' for Active; 'I' for Inactive)
REMARK    1  A    between atoms: C_2  and  C_3
REMARK    2  A    between atoms: C_3  and  C_4
REMARK    3  A    between atoms: C_4  and  C_5
REMARK    4  A    between atoms: C_5  and  N_6
REMARK    5  A    between atoms: C_9  and  C_10
REMARK    6  A    between atoms: N_12  and  C_13
REMARK    7  A    between atoms: C_13  and  C_14
REMARK                            x       y       z     vdW  Elec       q    Type
REMARK                         _______ _______ _______ _____ _____    ______ ____
ROOT
ATOM      1  N   UNL     1      38.322   4.004  15.892  0.00  0.00    +0.000 N 
ATOM      2  C   UNL     1      39.171   3.910  14.862  0.00  0.00    +0.000 A 
ATOM      3  N   UNL     1      40.075   4.923  14.417  0.00  0.00    +0.000 NA
ATOM      4  C   UNL     1      39.068   2.675  14.257  0.00  0.00    +0.000 A 
ATOM      5  C   UNL     1      38.087   2.012  14.994  0.00  0.00    +0.000 A 
ATOM      6  N   UNL     1      37.591   0.772  14.838  0.00  0.00    +0.000 NA
ATOM      7  C   UNL     1      36.638   0.276  15.640  0.00  0.00    +0.000 A 
ATOM      8  C   UNL     1      36.118  -0.991  15.496  0.00  0.00    +0.000 A 
ATOM      9  C   UNL     1      35.138  -1.480  16.336  0.00  0.00    +0.000 A 
ATOM     10  C   UNL     1      34.688  -0.647  17.341  0.00  0.00    +0.000 A 
ATOM     11  C   UNL     1      35.205   0.626  17.493  0.00  0.00    +0.000 A 
ATOM     12  C   UNL     1      36.182   1.112  16.654  0.00  0.00    +0.000 A 
ATOM     13  N   UNL     1      36.689   2.369  16.809  0.00  0.00    +0.000 NA
ATOM     14  C   UNL     1      37.641   2.834  15.989  0.00  0.00    +0.000 A 
ENDROOT
BRANCH   4  15
ATOM     15  C   UNL     1      39.802   2.157  13.114  0.00  0.00    +0.000 C 
ATOM     16  O   UNL     1      40.962   1.714  13.260  0.00  0.00    +0.000 OA
ATOM     17  N   UNL     1      39.211   2.153  11.838  0.00  0.00    +0.000 NA
BRANCH  17  18
ATOM     18  C   UNL     1      39.882   1.652  10.646  0.00  0.00    +0.000 C 
BRANCH  18  19
ATOM     19  C   UNL     1      38.906   1.476   9.541  0.00  0.00    +0.000 A 
ATOM     20  C   UNL     1      39.405   0.962   8.364  0.00  0.00    +0.000 A 
ATOM     21  C   UNL     1      38.616   0.756   7.281  0.00  0.00    +0.000 A 
ATOM     22  C   UNL     1      37.270   1.085   7.402  0.00  0.00    +0.000 A 
ATOM     23  C   UNL     1      36.418   0.851   6.200  0.00  0.00    +0.000 C 
ATOM     24  C   UNL     1      36.751   1.607   8.586  0.00  0.00    +0.000 A 
ATOM     25  C   UNL     1      37.576   1.804   9.668  0.00  0.00    +0.000 A 
ENDBRANCH  18  19
ENDBRANCH  17  18
ENDBRANCH   4  15
BRANCH   1  26
ATOM     26  C   UNL     1      38.131   5.142  16.776  0.00  0.00    +0.000 C 
BRANCH  26  27
ATOM     27  C   UNL     1      38.790   4.829  18.093  0.00  0.00    +0.000 C 
BRANCH  27  28
ATOM     28  C   UNL     1      39.006   6.118  18.844  0.00  0.00    +0.000 C 
BRANCH  28  30
ATOM     29  C   UNL     1      41.446   6.452  18.533  0.00  0.00    +0.000 C 
ATOM     30  C   UNL     1      40.341   6.158  19.542  0.00  0.00    +0.000 C 
ENDBRANCH  28  30
ENDBRANCH  27  28
ENDBRANCH  26  27
ENDBRANCH   1  26
TORSDOF 7
ENDMDL
MODEL 10
REMARK VINA RESULT:      -7.0      2.127      6.803
REMARK  Name = 
REMARK  7 active torsions:
REMARK  status: ('A' for Active; 'I' for Inactive)
REMARK    1  A    between atoms: C_2  and  C_3
REMARK    2  A    between atoms: C_3  and  C_4
REMARK    3  A    between atoms: C_4  and  C_5
REMARK    4  A    between atoms: C_5  and  N_6
REMARK    5  A    between atoms: C_9  and  C_10
REMARK    6  A    between atoms: N_12  and  C_13
REMARK    7  A    between atoms: C_13  and  C_14
REMARK                            x       y       z     vdW  Elec       q    Type
REMARK                         _______ _______ _______ _____ _____    ______ ____
ROOT
ATOM      1  N   UNL     1      38.364   3.895  15.791  0.00  0.00    +0.000 N 
ATOM      2  C   UNL     1      39.306   3.747  14.851  0.00  0.00    +0.000 A 
ATOM      3  N   UNL     1      40.243   4.739  14.431  0.00  0.00    +0.000 NA
ATOM      4  C   UNL     1      39.263   2.476  14.317  0.00  0.00    +0.000 A 
ATOM      5  C   UNL     1      38.221   1.850  14.999  0.00  0.00    +0.000 A 
ATOM      6  N   UNL     1      37.746   0.598  14.874  0.00  0.00    +0.000 NA
ATOM      7  C   UNL     1      36.725   0.143  15.614  0.00  0.00    +0.000 A 
ATOM      8  C   UNL     1      36.225  -1.136  15.501  0.00  0.00    +0.000 A 
ATOM      9  C   UNL     1      35.173  -1.581  16.274  0.00  0.00    +0.000 A 
ATOM     10  C   UNL     1      34.629  -0.693  17.180  0.00  0.00    +0.000 A 
ATOM     11  C   UNL     1      35.124   0.592  17.301  0.00  0.00    +0.000 A 
ATOM     12  C   UNL     1      36.173   1.034  16.528  0.00  0.00    +0.000 A 
ATOM     13  N   UNL     1      36.659   2.303  16.652  0.00  0.00    +0.000 NA
ATOM     14  C   UNL     1      37.681   2.727  15.896  0.00  0.00    +0.000 A 
ENDROOT
BRANCH   4  15
ATOM     15  C   UNL     1      40.102   1.896  13.280  0.00  0.00    +0.000 C 
ATOM     16  O   UNL     1      39.988   2.275  12.094  0.00  0.00    +0.000 OA
ATOM     17  N   UNL     1      41.046   0.907  13.607  0.00  0.00    +0.000 NA
BRANCH  17  18
ATOM     18  C   UNL     1      41.920   0.278  12.626  0.00  0.00    +0.000 C 
BRANCH  18  19
ATOM     19  C   UNL     1      42.957  -0.538  13.307  0.00  0.00    +0.000 A 
ATOM     20  C   UNL     1      43.513   0.008  14.443  0.00  0.00    +0.000 A 
ATOM     21  C   UNL     1      44.471  -0.639  15.154  0.00  0.00    +0.000 A 
ATOM     22  C   UNL     1      44.875  -1.886  14.690  0.00  0.00    +0.000 A 
ATOM     23  C   UNL     1      45.928  -2.581  15.485  0.00  0.00    +0.000 C 
ATOM     24  C   UNL     1      44.321  -2.450  13.542  0.00  0.00    +0.000 A 
ATOM     25  C   UNL     1      43.351  -1.772  12.842  0.00  0.00    +0.000 A 
ENDBRANCH  18  19
ENDBRANCH  17  18
ENDBRANCH   4  15
BRANCH   1  26
ATOM     26  C   UNL     1      38.087   5.083  16.582  0.00  0.00    +0.000 C 
BRANCH  26  27
ATOM     27  C   UNL     1      38.770   4.930  17.914  0.00  0.00    +0.000 C 
BRANCH  27  28
ATOM     28  C   UNL     1      39.600   6.159  18.178  0.00  0.00    +0.000 C 
BRANCH  28  30
ATOM     29  C   UNL     1      39.380   7.406  20.314  0.00  0.00    +0.000 C 
ATOM     30  C   UNL     1      40.067   6.241  19.609  0.00  0.00    +0.000 C 
ENDBRANCH  28  30
ENDBRANCH  27  28
ENDBRANCH  26  27
ENDBRANCH   1  26
TORSDOF 7
ENDMDL
