MODEL 1
REMARK VINA RESULT:      -6.7      0.000      0.000
REMARK  Name = 
REMARK  2 active torsions:
REMARK  status: ('A' for Active; 'I' for Inactive)
REMARK    1  A    between atoms: C_8  and  C_9
REMARK    2  A    between atoms: N_11  and  C_12
REMARK                            x       y       z     vdW  Elec       q    Type
REMARK                         _______ _______ _______ _____ _____    ______ ____
ROOT
ATOM      1  C   UNL     1      36.186   5.055  35.742  0.00  0.00    +0.000 C 
ATOM      2  C   UNL     1      34.719   5.261  35.445  0.00  0.00    +0.000 C 
ATOM      3  C   UNL     1      34.541   6.696  35.023  0.00  0.00    +0.000 C 
ATOM      4  C   UNL     1      34.278   4.369  34.321  0.00  0.00    +0.000 C 
ATOM      5  C   UNL     1      33.850   3.040  34.772  0.00  0.00    +0.000 C 
ATOM      6  O   UNL     1      33.381   2.242  33.920  0.00  0.00    +0.000 OA
ATOM      7  C   UNL     1      33.951   2.619  36.166  0.00  0.00    +0.000 A 
ATOM      8  C   UNL     1      34.046   1.374  36.738  0.00  0.00    +0.000 A 
ATOM      9  C   UNL     1      34.104   1.650  38.110  0.00  0.00    +0.000 A 
ATOM     10  N   UNL     1      34.046   2.978  38.307  0.00  0.00    +0.000 NA
ATOM     11  C   UNL     1      33.951   3.610  37.128  0.00  0.00    +0.000 A 
ATOM     12  C   UNL     1      33.854   5.014  36.656  0.00  0.00    +0.000 C 
ENDROOT
BRANCH   8  13
ATOM     13  C   UNL     1      34.086   0.059  36.122  0.00  0.00    +0.000 C 
ATOM     14  O   UNL     1      35.145  -0.619  36.116  0.00  0.00    +0.000 OA
ATOM     15  N   UNL     1      32.967  -0.535  35.501  0.00  0.00    +0.000 NA
BRANCH  15  16
ATOM     16  C   UNL     1      32.996  -1.817  34.896  0.00  0.00    +0.000 A 
ATOM     17  C   UNL     1      32.474  -2.891  35.573  0.00  0.00    +0.000 A 
ATOM     18  C   UNL     1      32.497  -4.156  34.984  0.00  0.00    +0.000 A 
ATOM     19  C   UNL     1      33.051  -4.281  33.727  0.00  0.00    +0.000 A 
ATOM     20  C   UNL     1      33.581  -3.233  33.022  0.00  0.00    +0.000 A 
ATOM     21  C   UNL     1      33.542  -1.977  33.641  0.00  0.00    +0.000 A 
ATOM     22  F   UNL     1      34.046  -0.886  33.009  0.00  0.00    +0.000 F 
ENDBRANCH  15  16
ENDBRANCH   8  13
TORSDOF 2
ENDMDL
MODEL 2
REMARK VINA RESULT:      -6.5     22.569     25.262
REMARK  Name = 
REMARK  2 active torsions:
REMARK  status: ('A' for Active; 'I' for Inactive)
REMARK    1  A    between atoms: C_8  and  C_9
REMARK    2  A    between atoms: N_11  and  C_12
REMARK                            x       y       z     vdW  Elec       q    Type
REMARK                         _______ _______ _______ _____ _____    ______ ____
ROOT
ATOM      1  C   UNL     1      28.284  26.380  22.904  0.00  0.00    +0.000 C 
ATOM      2  C   UNL     1      28.739  25.123  22.202  0.00  0.00    +0.000 C 
ATOM      3  C   UNL     1      29.190  25.516  20.819  0.00  0.00    +0.000 C 
ATOM      4  C   UNL     1      29.897  24.502  22.929  0.00  0.00    +0.000 C 
ATOM      5  C   UNL     1      29.483  23.582  23.994  0.00  0.00    +0.000 C 
ATOM      6  O   UNL     1      30.374  22.942  24.610  0.00  0.00    +0.000 OA
ATOM      7  C   UNL     1      28.084  23.388  24.357  0.00  0.00    +0.000 A 
ATOM      8  C   UNL     1      27.494  22.971  25.527  0.00  0.00    +0.000 A 
ATOM      9  C   UNL     1      26.126  22.991  25.226  0.00  0.00    +0.000 A 
ATOM     10  N   UNL     1      25.948  23.396  23.957  0.00  0.00    +0.000 NA
ATOM     11  C   UNL     1      27.136  23.651  23.388  0.00  0.00    +0.000 A 
ATOM     12  C   UNL     1      27.627  24.113  22.067  0.00  0.00    +0.000 C 
ENDROOT
BRANCH   8  13
ATOM     13  C   UNL     1      28.091  22.594  26.796  0.00  0.00    +0.000 C 
ATOM     14  O   UNL     1      27.921  21.443  27.273  0.00  0.00    +0.000 OA
ATOM     15  N   UNL     1      28.884  23.471  27.565  0.00  0.00    +0.000 NA
BRANCH  15  16
ATOM     16  C   UNL     1      29.469  23.114  28.806  0.00  0.00    +0.000 A 
ATOM     17  C   UNL     1      28.758  23.308  29.964  0.00  0.00    +0.000 A 
ATOM     18  C   UNL     1      29.327  22.957  31.190  0.00  0.00    +0.000 A 
ATOM     19  C   UNL     1      30.599  22.423  31.191  0.00  0.00    +0.000 A 
ATOM     20  C   UNL     1      31.336  22.216  30.056  0.00  0.00    +0.000 A 
ATOM     21  C   UNL     1      30.738  22.578  28.844  0.00  0.00    +0.000 A 
ATOM     22  F   UNL     1      31.403  22.404  27.672  0.00  0.00    +0.000 F 
ENDBRANCH  15  16
ENDBRANCH   8  13
TORSDOF 2
ENDMDL
MODEL 3
REMARK VINA RESULT:      -6.4     15.197     17.261
REMARK  Name = 
REMARK  2 active torsions:
REMARK  status: ('A' for Active; 'I' for Inactive)
REMARK    1  A    between atoms: C_8  and  C_9
REMARK    2  A    between atoms: N_11  and  C_12
REMARK                            x       y       z     vdW  Elec       q    Type
REMARK                         _______ _______ _______ _____ _____    ______ ____
ROOT
ATOM      1  C   UNL     1      17.434   7.264  40.621  0.00  0.00    +0.000 C 
ATOM      2  C   UNL     1      17.205   8.618  41.249  0.00  0.00    +0.000 C 
ATOM      3  C   UNL     1      16.265   8.423  42.411  0.00  0.00    +0.000 C 
ATOM      4  C   UNL     1      18.495   9.187  41.764  0.00  0.00    +0.000 C 
ATOM      5  C   UNL     1      19.235   9.946  40.750  0.00  0.00    +0.000 C 
ATOM      6  O   UNL     1      20.290  10.538  41.099  0.00  0.00    +0.000 OA
ATOM      7  C   UNL     1      18.791  10.037  39.363  0.00  0.00    +0.000 A 
ATOM      8  C   UNL     1      19.480  10.277  38.199  0.00  0.00    +0.000 A 
ATOM      9  C   UNL     1      18.480  10.241  37.217  0.00  0.00    +0.000 A 
ATOM     10  N   UNL     1      17.291   9.993  37.792  0.00  0.00    +0.000 NA
ATOM     11  C   UNL     1      17.443   9.861  39.118  0.00  0.00    +0.000 A 
ATOM     12  C   UNL     1      16.571   9.591  40.287  0.00  0.00    +0.000 C 
ENDROOT
BRANCH   8  13
ATOM     13  C   UNL     1      20.895  10.513  37.977  0.00  0.00    +0.000 C 
ATOM     14  O   UNL     1      21.364  11.680  37.980  0.00  0.00    +0.000 OA
ATOM     15  N   UNL     1      21.822   9.475  37.747  0.00  0.00    +0.000 NA
BRANCH  15  16
ATOM     16  C   UNL     1      23.206   9.694  37.528  0.00  0.00    +0.000 A 
ATOM     17  C   UNL     1      24.092   9.465  38.551  0.00  0.00    +0.000 A 
ATOM     18  C   UNL     1      25.456   9.677  38.343  0.00  0.00    +0.000 A 
ATOM     19  C   UNL     1      25.867  10.116  37.102  0.00  0.00    +0.000 A 
ATOM     20  C   UNL     1      25.012  10.355  36.059  0.00  0.00    +0.000 A 
ATOM     21  C   UNL     1      23.651  10.132  36.300  0.00  0.00    +0.000 A 
ATOM     22  F   UNL     1      22.737  10.346  35.317  0.00  0.00    +0.000 F 
ENDBRANCH  15  16
ENDBRANCH   8  13
TORSDOF 2
ENDMDL
MODEL 4
REMARK VINA RESULT:      -6.3     22.858     25.931
REMARK  Name = 
REMARK  2 active torsions:
REMARK  status: ('A' for Active; 'I' for Inactive)
REMARK    1  A    between atoms: C_8  and  C_9
REMARK    2  A    between atoms: N_11  and  C_12
REMARK                            x       y       z     vdW  Elec       q    Type
REMARK                         _______ _______ _______ _____ _____    ______ ____
ROOT
ATOM      1  C   UNL     1      31.448  24.114  28.185  0.00  0.00    +0.000 C 
ATOM      2  C   UNL     1      30.991  22.710  28.504  0.00  0.00    +0.000 C 
ATOM      3  C   UNL     1      31.983  22.122  29.474  0.00  0.00    +0.000 C 
ATOM      4  C   UNL     1      29.637  22.730  29.152  0.00  0.00    +0.000 C 
ATOM      5  C   UNL     1      28.534  22.711  28.184  0.00  0.00    +0.000 C 
ATOM      6  O   UNL     1      27.356  22.640  28.622  0.00  0.00    +0.000 OA
ATOM      7  C   UNL     1      28.758  22.772  26.744  0.00  0.00    +0.000 A 
ATOM      8  C   UNL     1      27.957  23.201  25.713  0.00  0.00    +0.000 A 
ATOM      9  C   UNL     1      28.751  22.995  24.577  0.00  0.00    +0.000 A 
ATOM     10  N   UNL     1      29.937  22.479  24.942  0.00  0.00    +0.000 NA
ATOM     11  C   UNL     1      29.978  22.327  26.274  0.00  0.00    +0.000 A 
ATOM     12  C   UNL     1      30.952  21.832  27.278  0.00  0.00    +0.000 C 
ENDROOT
BRANCH   8  13
ATOM     13  C   UNL     1      26.612  23.747  25.736  0.00  0.00    +0.000 C 
ATOM     14  O   UNL     1      25.624  23.044  25.403  0.00  0.00    +0.000 OA
ATOM     15  N   UNL     1      26.325  25.073  26.122  0.00  0.00    +0.000 NA
BRANCH  15  16
ATOM     16  C   UNL     1      25.015  25.617  26.145  0.00  0.00    +0.000 A 
ATOM     17  C   UNL     1      24.518  26.218  25.016  0.00  0.00    +0.000 A 
ATOM     18  C   UNL     1      23.229  26.755  25.030  0.00  0.00    +0.000 A 
ATOM     19  C   UNL     1      22.495  26.660  26.194  0.00  0.00    +0.000 A 
ATOM     20  C   UNL     1      22.959  26.067  27.338  0.00  0.00    +0.000 A 
ATOM     21  C   UNL     1      24.255  25.539  27.291  0.00  0.00    +0.000 A 
ATOM     22  F   UNL     1      24.789  24.935  28.384  0.00  0.00    +0.000 F 
ENDBRANCH  15  16
ENDBRANCH   8  13
TORSDOF 2
ENDMDL
MODEL 5
REMARK VINA RESULT:      -6.2     17.317     20.079
REMARK  Name = 
REMARK  2 active torsions:
REMARK  status: ('A' for Active; 'I' for Inactive)
REMARK    1  A    between atoms: C_8  and  C_9
REMARK    2  A    between atoms: N_11  and  C_12
REMARK                            x       y       z     vdW  Elec       q    Type
REMARK                         _______ _______ _______ _____ _____    ______ ____
ROOT
ATOM      1  C   UNL     1      15.878  -8.451  24.644  0.00  0.00    +0.000 C 
ATOM      2  C   UNL     1      16.148  -8.908  26.057  0.00  0.00    +0.000 C 
ATOM      3  C   UNL     1      14.904  -9.600  26.553  0.00  0.00    +0.000 C 
ATOM      4  C   UNL     1      17.287  -9.886  26.088  0.00  0.00    +0.000 C 
ATOM      5  C   UNL     1      18.599  -9.239  26.203  0.00  0.00    +0.000 C 
ATOM      6  O   UNL     1      19.617  -9.969  26.323  0.00  0.00    +0.000 OA
ATOM      7  C   UNL     1      18.758  -7.789  26.184  0.00  0.00    +0.000 A 
ATOM      8  C   UNL     1      19.824  -6.993  25.839  0.00  0.00    +0.000 A 
ATOM      9  C   UNL     1      19.339  -5.694  26.043  0.00  0.00    +0.000 A 
ATOM     10  N   UNL     1      18.069  -5.749  26.479  0.00  0.00    +0.000 NA
ATOM     11  C   UNL     1      17.676  -7.028  26.579  0.00  0.00    +0.000 A 
ATOM     12  C   UNL     1      16.446  -7.755  26.981  0.00  0.00    +0.000 C 
ENDROOT
BRANCH   8  13
ATOM     13  C   UNL     1      21.149  -7.352  25.367  0.00  0.00    +0.000 C 
ATOM     14  O   UNL     1      21.862  -8.170  26.003  0.00  0.00    +0.000 OA
ATOM     15  N   UNL     1      21.719  -6.821  24.191  0.00  0.00    +0.000 NA
BRANCH  15  16
ATOM     16  C   UNL     1      23.013  -7.164  23.723  0.00  0.00    +0.000 A 
ATOM     17  C   UNL     1      24.093  -6.425  24.136  0.00  0.00    +0.000 A 
ATOM     18  C   UNL     1      25.371  -6.756  23.681  0.00  0.00    +0.000 A 
ATOM     19  C   UNL     1      25.500  -7.828  22.821  0.00  0.00    +0.000 A 
ATOM     20  C   UNL     1      24.445  -8.586  22.388  0.00  0.00    +0.000 A 
ATOM     21  C   UNL     1      23.178  -8.228  22.863  0.00  0.00    +0.000 A 
ATOM     22  F   UNL     1      22.079  -8.929  22.481  0.00  0.00    +0.000 F 
ENDBRANCH  15  16
ENDBRANCH   8  13
TORSDOF 2
ENDMDL
MODEL 6
REMARK VINA RESULT:      -6.2     23.734     26.721
REMARK  Name = 
REMARK  2 active torsions:
REMARK  status: ('A' for Active; 'I' for Inactive)
REMARK    1  A    between atoms: C_8  and  C_9
REMARK    2  A    between atoms: N_11  and  C_12
REMARK                            x       y       z     vdW  Elec       q    Type
REMARK                         _______ _______ _______ _____ _____    ______ ____
ROOT
ATOM      1  C   UNL     1      28.132  24.313  29.396  0.00  0.00    +0.000 C 
ATOM      2  C   UNL     1      27.136  23.230  29.054  0.00  0.00    +0.000 C 
ATOM      3  C   UNL     1      26.380  22.898  30.315  0.00  0.00    +0.000 C 
ATOM      4  C   UNL     1      26.161  23.716  28.021  0.00  0.00    +0.000 C 
ATOM      5  C   UNL     1      26.631  23.514  26.646  0.00  0.00    +0.000 C 
ATOM      6  O   UNL     1      25.854  23.808  25.700  0.00  0.00    +0.000 OA
ATOM      7  C   UNL     1      27.957  22.989  26.343  0.00  0.00    +0.000 A 
ATOM      8  C   UNL     1      28.760  23.121  25.235  0.00  0.00    +0.000 A 
ATOM      9  C   UNL     1      29.898  22.374  25.568  0.00  0.00    +0.000 A 
ATOM     10  N   UNL     1      29.750  21.847  26.795  0.00  0.00    +0.000 NA
ATOM     11  C   UNL     1      28.562  22.205  27.305  0.00  0.00    +0.000 A 
ATOM     12  C   UNL     1      27.810  21.973  28.563  0.00  0.00    +0.000 C 
ENDROOT
BRANCH   8  13
ATOM     13  C   UNL     1      28.539  23.849  23.998  0.00  0.00    +0.000 C 
ATOM     14  O   UNL     1      28.125  23.259  22.968  0.00  0.00    +0.000 OA
ATOM     15  N   UNL     1      28.770  25.234  23.867  0.00  0.00    +0.000 NA
BRANCH  15  16
ATOM     16  C   UNL     1      28.559  25.953  22.663  0.00  0.00    +0.000 A 
ATOM     17  C   UNL     1      29.537  25.950  21.700  0.00  0.00    +0.000 A 
ATOM     18  C   UNL     1      29.337  26.654  20.511  0.00  0.00    +0.000 A 
ATOM     19  C   UNL     1      28.149  27.336  20.348  0.00  0.00    +0.000 A 
ATOM     20  C   UNL     1      27.152  27.361  21.287  0.00  0.00    +0.000 A 
ATOM     21  C   UNL     1      27.384  26.645  22.467  0.00  0.00    +0.000 A 
ATOM     22  F   UNL     1      26.445  26.619  23.449  0.00  0.00    +0.000 F 
ENDBRANCH  15  16
ENDBRANCH   8  13
TORSDOF 2
ENDMDL
MODEL 7
REMARK VINA RESULT:      -6.1     15.378     17.112
REMARK  Name = 
REMARK  2 active torsions:
REMARK  status: ('A' for Active; 'I' for Inactive)
REMARK    1  A    between atoms: C_8  and  C_9
REMARK    2  A    between atoms: N_11  and  C_12
REMARK                            x       y       z     vdW  Elec       q    Type
REMARK                         _______ _______ _______ _____ _____    ______ ____
ROOT
ATOM      1  C   UNL     1      24.516   9.497  38.078  0.00  0.00    +0.000 C 
ATOM      2  C   UNL     1      23.943  10.318  36.948  0.00  0.00    +0.000 C 
ATOM      3  C   UNL     1      24.976  10.361  35.852  0.00  0.00    +0.000 C 
ATOM      4  C   UNL     1      22.695   9.678  36.410  0.00  0.00    +0.000 C 
ATOM      5  C   UNL     1      21.482  10.087  37.127  0.00  0.00    +0.000 C 
ATOM      6  O   UNL     1      20.371   9.676  36.704  0.00  0.00    +0.000 OA
ATOM      7  C   UNL     1      21.524  10.947  38.304  0.00  0.00    +0.000 A 
ATOM      8  C   UNL     1      20.652  11.097  39.356  0.00  0.00    +0.000 A 
ATOM      9  C   UNL     1      21.262  12.080  40.147  0.00  0.00    +0.000 A 
ATOM     10  N   UNL     1      22.417  12.466  39.577  0.00  0.00    +0.000 NA
ATOM     11  C   UNL     1      22.612  11.788  38.436  0.00  0.00    +0.000 A 
ATOM     12  C   UNL     1      23.643  11.735  37.370  0.00  0.00    +0.000 C 
ENDROOT
BRANCH   8  13
ATOM     13  C   UNL     1      19.395  10.427  39.635  0.00  0.00    +0.000 C 
ATOM     14  O   UNL     1      18.387  10.614  38.906  0.00  0.00    +0.000 OA
ATOM     15  N   UNL     1      19.218   9.540  40.718  0.00  0.00    +0.000 NA
BRANCH  15  16
ATOM     16  C   UNL     1      17.994   8.882  41.000  0.00  0.00    +0.000 A 
ATOM     17  C   UNL     1      16.942   9.608  41.501  0.00  0.00    +0.000 A 
ATOM     18  C   UNL     1      15.733   8.968  41.780  0.00  0.00    +0.000 A 
ATOM     19  C   UNL     1      15.640   7.613  41.540  0.00  0.00    +0.000 A 
ATOM     20  C   UNL     1      16.668   6.858  41.041  0.00  0.00    +0.000 A 
ATOM     21  C   UNL     1      17.867   7.530  40.771  0.00  0.00    +0.000 A 
ATOM     22  F   UNL     1      18.935   6.853  40.275  0.00  0.00    +0.000 F 
ENDBRANCH  15  16
ENDBRANCH   8  13
TORSDOF 2
ENDMDL
MODEL 8
REMARK VINA RESULT:      -5.9     23.893     26.384
REMARK  Name = 
REMARK  2 active torsions:
REMARK  status: ('A' for Active; 'I' for Inactive)
REMARK    1  A    between atoms: C_8  and  C_9
REMARK    2  A    between atoms: N_11  and  C_12
REMARK                            x       y       z     vdW  Elec       q    Type
REMARK                         _______ _______ _______ _____ _____    ______ ____
ROOT
ATOM      1  C   UNL     1      27.301  25.934  30.492  0.00  0.00    +0.000 C 
ATOM      2  C   UNL     1      25.932  25.308  30.366  0.00  0.00    +0.000 C 
ATOM      3  C   UNL     1      25.126  25.739  31.564  0.00  0.00    +0.000 C 
ATOM      4  C   UNL     1      25.243  25.792  29.122  0.00  0.00    +0.000 C 
ATOM      5  C   UNL     1      25.560  24.986  27.937  0.00  0.00    +0.000 C 
ATOM      6  O   UNL     1      24.970  25.253  26.858  0.00  0.00    +0.000 OA
ATOM      7  C   UNL     1      26.528  23.896  27.971  0.00  0.00    +0.000 A 
ATOM      8  C   UNL     1      27.294  23.325  26.982  0.00  0.00    +0.000 A 
ATOM      9  C   UNL     1      28.006  22.326  27.659  0.00  0.00    +0.000 A 
ATOM     10  N   UNL     1      27.665  22.330  28.960  0.00  0.00    +0.000 NA
ATOM     11  C   UNL     1      26.754  23.287  29.189  0.00  0.00    +0.000 A 
ATOM     12  C   UNL     1      25.994  23.801  30.356  0.00  0.00    +0.000 C 
ENDROOT
BRANCH   8  13
ATOM     13  C   UNL     1      27.387  23.639  25.568  0.00  0.00    +0.000 C 
ATOM     14  O   UNL     1      26.720  22.996  24.718  0.00  0.00    +0.000 OA
ATOM     15  N   UNL     1      28.213  24.664  25.059  0.00  0.00    +0.000 NA
BRANCH  15  16
ATOM     16  C   UNL     1      28.312  24.978  23.680  0.00  0.00    +0.000 A 
ATOM     17  C   UNL     1      27.487  25.938  23.150  0.00  0.00    +0.000 A 
ATOM     18  C   UNL     1      27.579  26.254  21.793  0.00  0.00    +0.000 A 
ATOM     19  C   UNL     1      28.508  25.581  21.027  0.00  0.00    +0.000 A 
ATOM     20  C   UNL     1      29.347  24.619  21.522  0.00  0.00    +0.000 A 
ATOM     21  C   UNL     1      29.229  24.325  22.886  0.00  0.00    +0.000 A 
ATOM     22  F   UNL     1      30.025  23.382  23.455  0.00  0.00    +0.000 F 
ENDBRANCH  15  16
ENDBRANCH   8  13
TORSDOF 2
ENDMDL
MODEL 9
REMARK VINA RESULT:      -5.9     21.098     23.052
REMARK  Name = 
REMARK  2 active torsions:
REMARK  status: ('A' for Active; 'I' for Inactive)
REMARK    1  A    between atoms: C_8  and  C_9
REMARK    2  A    between atoms: N_11  and  C_12
REMARK                            x       y       z     vdW  Elec       q    Type
REMARK                         _______ _______ _______ _____ _____    ______ ____
ROOT
ATOM      1  C   UNL     1      32.012  23.669  33.377  0.00  0.00    +0.000 C 
ATOM      2  C   UNL     1      31.199  22.397  33.398  0.00  0.00    +0.000 C 
ATOM      3  C   UNL     1      30.898  22.078  34.841  0.00  0.00    +0.000 C 
ATOM      4  C   UNL     1      29.902  22.586  32.665  0.00  0.00    +0.000 C 
ATOM      5  C   UNL     1      30.010  22.319  31.226  0.00  0.00    +0.000 C 
ATOM      6  O   UNL     1      28.962  22.366  30.531  0.00  0.00    +0.000 OA
ATOM      7  C   UNL     1      31.281  22.005  30.583  0.00  0.00    +0.000 A 
ATOM      8  C   UNL     1      31.708  22.154  29.285  0.00  0.00    +0.000 A 
ATOM      9  C   UNL     1      33.019  21.660  29.316  0.00  0.00    +0.000 A 
ATOM     10  N   UNL     1      33.319  21.254  30.562  0.00  0.00    +0.000 NA
ATOM     11  C   UNL     1      32.270  21.452  31.372  0.00  0.00    +0.000 A 
ATOM     12  C   UNL     1      31.951  21.232  32.805  0.00  0.00    +0.000 C 
ENDROOT
BRANCH   8  13
ATOM     13  C   UNL     1      31.017  22.690  28.126  0.00  0.00    +0.000 C 
ATOM     14  O   UNL     1      30.952  23.930  27.929  0.00  0.00    +0.000 OA
ATOM     15  N   UNL     1      30.384  21.877  27.163  0.00  0.00    +0.000 NA
BRANCH  15  16
ATOM     16  C   UNL     1      29.705  22.390  26.028  0.00  0.00    +0.000 A 
ATOM     17  C   UNL     1      30.422  22.688  24.896  0.00  0.00    +0.000 A 
ATOM     18  C   UNL     1      29.761  23.192  23.774  0.00  0.00    +0.000 A 
ATOM     19  C   UNL     1      28.396  23.375  23.847  0.00  0.00    +0.000 A 
ATOM     20  C   UNL     1      27.650  23.089  24.959  0.00  0.00    +0.000 A 
ATOM     21  C   UNL     1      28.342  22.585  26.067  0.00  0.00    +0.000 A 
ATOM     22  F   UNL     1      27.675  22.276  27.209  0.00  0.00    +0.000 F 
ENDBRANCH  15  16
ENDBRANCH   8  13
TORSDOF 2
ENDMDL
MODEL 10
REMARK VINA RESULT:      -5.9     17.975     19.811
REMARK  Name = 
REMARK  2 active torsions:
REMARK  status: ('A' for Active; 'I' for Inactive)
REMARK    1  A    between atoms: C_8  and  C_9
REMARK    2  A    between atoms: N_11  and  C_12
REMARK                            x       y       z     vdW  Elec       q    Type
REMARK                         _______ _______ _______ _____ _____    ______ ____
ROOT
ATOM      1  C   UNL     1      17.966   6.293  44.714  0.00  0.00    +0.000 C 
ATOM      2  C   UNL     1      16.776   5.684  44.013  0.00  0.00    +0.000 C 
ATOM      3  C   UNL     1      16.100   4.758  44.991  0.00  0.00    +0.000 C 
ATOM      4  C   UNL     1      15.800   6.751  43.605  0.00  0.00    +0.000 C 
ATOM      5  C   UNL     1      16.095   7.329  42.290  0.00  0.00    +0.000 C 
ATOM      6  O   UNL     1      15.290   8.172  41.814  0.00  0.00    +0.000 OA
ATOM      7  C   UNL     1      17.279   6.961  41.522  0.00  0.00    +0.000 A 
ATOM      8  C   UNL     1      17.983   7.632  40.551  0.00  0.00    +0.000 A 
ATOM      9  C   UNL     1      19.006   6.737  40.214  0.00  0.00    +0.000 A 
ATOM     10  N   UNL     1      18.891   5.620  40.952  0.00  0.00    +0.000 NA
ATOM     11  C   UNL     1      17.835   5.721  41.772  0.00  0.00    +0.000 A 
ATOM     12  C   UNL     1      17.179   4.879  42.803  0.00  0.00    +0.000 C 
ENDROOT
BRANCH   8  13
ATOM     13  C   UNL     1      17.768   8.950  39.979  0.00  0.00    +0.000 C 
ATOM     14  O   UNL     1      17.665   9.964  40.715  0.00  0.00    +0.000 OA
ATOM     15  N   UNL     1      17.661   9.179  38.592  0.00  0.00    +0.000 NA
BRANCH  15  16
ATOM     16  C   UNL     1      17.449  10.461  38.023  0.00  0.00    +0.000 A 
ATOM     17  C   UNL     1      16.173  10.847  37.694  0.00  0.00    +0.000 A 
ATOM     18  C   UNL     1      15.956  12.108  37.136  0.00  0.00    +0.000 A 
ATOM     19  C   UNL     1      17.046  12.928  36.932  0.00  0.00    +0.000 A 
ATOM     20  C   UNL     1      18.332  12.576  37.248  0.00  0.00    +0.000 A 
ATOM     21  C   UNL     1      18.516  11.306  37.806  0.00  0.00    +0.000 A 
ATOM     22  F   UNL     1      19.760  10.881  38.148  0.00  0.00    +0.000 F 
ENDBRANCH  15  16
ENDBRANCH   8  13
TORSDOF 2
ENDMDL
