MODEL 1
REMARK VINA RESULT:      -8.2      0.000      0.000
REMARK  Name = 
REMARK  6 active torsions:
REMARK  status: ('A' for Active; 'I' for Inactive)
REMARK    1  A    between atoms: C_3  and  C_4
REMARK    2  A    between atoms: N_6  and  C_7
REMARK    3  A    between atoms: C_7  and  C_8
REMARK    4  A    between atoms: C_17  and  C_18
REMARK    5  A    between atoms: C_18  and  C_19
REMARK    6  A    between atoms: C_19  and  C_20
REMARK                            x       y       z     vdW  Elec       q    Type
REMARK                         _______ _______ _______ _____ _____    ______ ____
ROOT
ATOM      1  N   UNL     1      35.583   3.053  16.695  0.00  0.00    +0.000 NA
ATOM      2  C   UNL     1      36.499   2.558  15.673  0.00  0.00    +0.000 A 
ATOM      3  C   UNL     1      37.303   3.474  15.048  0.00  0.00    +0.000 A 
ATOM      4  S   UNL     1      38.190   2.506  13.958  0.00  0.00    +0.000 S 
ATOM      5  C   UNL     1      37.519   0.977  14.326  0.00  0.00    +0.000 A 
ATOM      6  N   UNL     1      37.745  -0.272  13.847  0.00  0.00    +0.000 NA
ATOM      7  C   UNL     1      37.065  -1.354  14.316  0.00  0.00    +0.000 A 
ATOM      8  C   UNL     1      36.147  -1.083  15.293  0.00  0.00    +0.000 A 
ATOM      9  C   UNL     1      35.898   0.165  15.794  0.00  0.00    +0.000 A 
ATOM     10  C   UNL     1      36.608   1.275  15.304  0.00  0.00    +0.000 A 
ATOM     11  C   UNL     1      34.866   0.322  16.840  0.00  0.00    +0.000 C 
ATOM     12  C   UNL     1      34.748  -0.810  17.792  0.00  0.00    +0.000 C 
ATOM     13  C   UNL     1      35.241  -2.125  17.312  0.00  0.00    +0.000 C 
ATOM     14  C   UNL     1      35.335  -2.209  15.823  0.00  0.00    +0.000 C 
ENDROOT
BRANCH   3  15
ATOM     15  C   UNL     1      37.377   4.940  15.267  0.00  0.00    +0.000 C 
ATOM     16  O   UNL     1      36.786   5.729  14.490  0.00  0.00    +0.000 OA
ATOM     17  N   UNL     1      38.127   5.417  16.370  0.00  0.00    +0.000 NA
BRANCH  17  18
ATOM     18  C   UNL     1      38.174   6.868  16.549  0.00  0.00    +0.000 C 
BRANCH  18  19
ATOM     19  C   UNL     1      38.410   7.245  17.962  0.00  0.00    +0.000 A 
ATOM     20  C   UNL     1      37.671   8.210  18.630  0.00  0.00    +0.000 A 
ATOM     21  C   UNL     1      37.955   8.500  19.946  0.00  0.00    +0.000 A 
ATOM     22  C   UNL     1      38.967   7.857  20.650  0.00  0.00    +0.000 A 
ATOM     23  C   UNL     1      39.693   6.905  19.986  0.00  0.00    +0.000 A 
ATOM     24  C   UNL     1      39.416   6.610  18.670  0.00  0.00    +0.000 A 
ENDBRANCH  18  19
ENDBRANCH  17  18
ENDBRANCH   3  15
BRANCH   7  25
ATOM     25  C   UNL     1      37.304  -2.712  13.844  0.00  0.00    +0.000 C 
BRANCH  25  26
ATOM     26  C   UNL     1      38.404  -3.486  14.368  0.00  0.00    +0.000 C 
BRANCH  26  27
ATOM     27  C   UNL     1      38.489  -3.624  15.809  0.00  0.00    +0.000 A 
ATOM     28  C   UNL     1      38.057  -4.807  16.374  0.00  0.00    +0.000 A 
ATOM     29  C   UNL     1      38.080  -4.997  17.747  0.00  0.00    +0.000 A 
ATOM     30  C   UNL     1      38.544  -3.976  18.532  0.00  0.00    +0.000 A 
ATOM     31  C   UNL     1      38.976  -2.796  17.982  0.00  0.00    +0.000 A 
ATOM     32  C   UNL     1      38.954  -2.610  16.634  0.00  0.00    +0.000 A 
ENDBRANCH  26  27
ENDBRANCH  25  26
ENDBRANCH   7  25
TORSDOF 6
ENDMDL
MODEL 2
REMARK VINA RESULT:      -8.0      1.362      2.270
REMARK  Name = 
REMARK  6 active torsions:
REMARK  status: ('A' for Active; 'I' for Inactive)
REMARK    1  A    between atoms: C_3  and  C_4
REMARK    2  A    between atoms: N_6  and  C_7
REMARK    3  A    between atoms: C_7  and  C_8
REMARK    4  A    between atoms: C_17  and  C_18
REMARK    5  A    between atoms: C_18  and  C_19
REMARK    6  A    between atoms: C_19  and  C_20
REMARK                            x       y       z     vdW  Elec       q    Type
REMARK                         _______ _______ _______ _____ _____    ______ ____
ROOT
ATOM      1  N   UNL     1      36.788   2.719  17.654  0.00  0.00    +0.000 NA
ATOM      2  C   UNL     1      36.866   2.255  16.272  0.00  0.00    +0.000 A 
ATOM      3  C   UNL     1      37.124   3.190  15.306  0.00  0.00    +0.000 A 
ATOM      4  S   UNL     1      37.130   2.255  13.878  0.00  0.00    +0.000 S 
ATOM      5  C   UNL     1      36.807   0.716  14.546  0.00  0.00    +0.000 A 
ATOM      6  N   UNL     1      36.667  -0.519  14.001  0.00  0.00    +0.000 NA
ATOM      7  C   UNL     1      36.406  -1.615  14.765  0.00  0.00    +0.000 A 
ATOM      8  C   UNL     1      36.295  -1.375  16.107  0.00  0.00    +0.000 A 
ATOM      9  C   UNL     1      36.430  -0.142  16.683  0.00  0.00    +0.000 A 
ATOM     10  C   UNL     1      36.703   0.984  15.885  0.00  0.00    +0.000 A 
ATOM     11  C   UNL     1      36.271  -0.016  18.147  0.00  0.00    +0.000 C 
ATOM     12  C   UNL     1      36.749  -1.175  18.941  0.00  0.00    +0.000 C 
ATOM     13  C   UNL     1      36.817  -2.475  18.227  0.00  0.00    +0.000 C 
ATOM     14  C   UNL     1      35.967  -2.516  16.999  0.00  0.00    +0.000 C 
ENDROOT
BRANCH   3  15
ATOM     15  C   UNL     1      37.342   4.649  15.466  0.00  0.00    +0.000 C 
ATOM     16  O   UNL     1      36.606   5.471  14.868  0.00  0.00    +0.000 OA
ATOM     17  N   UNL     1      38.395   5.082  16.310  0.00  0.00    +0.000 NA
BRANCH  17  18
ATOM     18  C   UNL     1      38.576   6.528  16.439  0.00  0.00    +0.000 C 
BRANCH  18  19
ATOM     19  C   UNL     1      38.761   6.939  17.850  0.00  0.00    +0.000 A 
ATOM     20  C   UNL     1      39.685   6.355  18.703  0.00  0.00    +0.000 A 
ATOM     21  C   UNL     1      39.794   6.797  20.002  0.00  0.00    +0.000 A 
ATOM     22  C   UNL     1      39.004   7.823  20.509  0.00  0.00    +0.000 A 
ATOM     23  C   UNL     1      38.093   8.397  19.663  0.00  0.00    +0.000 A 
ATOM     24  C   UNL     1      37.979   7.960  18.363  0.00  0.00    +0.000 A 
ENDBRANCH  18  19
ENDBRANCH  17  18
ENDBRANCH   3  15
BRANCH   7  25
ATOM     25  C   UNL     1      36.280  -2.959  14.214  0.00  0.00    +0.000 C 
BRANCH  25  26
ATOM     26  C   UNL     1      37.453  -3.705  13.827  0.00  0.00    +0.000 C 
BRANCH  26  27
ATOM     27  C   UNL     1      38.724  -3.007  13.867  0.00  0.00    +0.000 A 
ATOM     28  C   UNL     1      39.266  -2.579  12.671  0.00  0.00    +0.000 A 
ATOM     29  C   UNL     1      40.491  -1.932  12.631  0.00  0.00    +0.000 A 
ATOM     30  C   UNL     1      41.153  -1.728  13.812  0.00  0.00    +0.000 A 
ATOM     31  C   UNL     1      40.624  -2.148  15.005  0.00  0.00    +0.000 A 
ATOM     32  C   UNL     1      39.421  -2.783  15.045  0.00  0.00    +0.000 A 
ENDBRANCH  26  27
ENDBRANCH  25  26
ENDBRANCH   7  25
TORSDOF 6
ENDMDL
MODEL 3
REMARK VINA RESULT:      -7.9      3.822      9.613
REMARK  Name = 
REMARK  6 active torsions:
REMARK  status: ('A' for Active; 'I' for Inactive)
REMARK    1  A    between atoms: C_3  and  C_4
REMARK    2  A    between atoms: N_6  and  C_7
REMARK    3  A    between atoms: C_7  and  C_8
REMARK    4  A    between atoms: C_17  and  C_18
REMARK    5  A    between atoms: C_18  and  C_19
REMARK    6  A    between atoms: C_19  and  C_20
REMARK                            x       y       z     vdW  Elec       q    Type
REMARK                         _______ _______ _______ _____ _____    ______ ____
ROOT
ATOM      1  N   UNL     1      39.951   5.317  14.863  0.00  0.00    +0.000 NA
ATOM      2  C   UNL     1      39.687   5.310  16.298  0.00  0.00    +0.000 A 
ATOM      3  C   UNL     1      38.529   4.719  16.725  0.00  0.00    +0.000 A 
ATOM      4  S   UNL     1      38.609   4.925  18.417  0.00  0.00    +0.000 S 
ATOM      5  C   UNL     1      40.103   5.748  18.532  0.00  0.00    +0.000 A 
ATOM      6  N   UNL     1      40.814   6.235  19.580  0.00  0.00    +0.000 NA
ATOM      7  C   UNL     1      42.006   6.867  19.407  0.00  0.00    +0.000 A 
ATOM      8  C   UNL     1      42.424   6.973  18.108  0.00  0.00    +0.000 A 
ATOM      9  C   UNL     1      41.728   6.493  17.033  0.00  0.00    +0.000 A 
ATOM     10  C   UNL     1      40.498   5.839  17.224  0.00  0.00    +0.000 A 
ATOM     11  C   UNL     1      42.285   6.687  15.678  0.00  0.00    +0.000 C 
ATOM     12  C   UNL     1      43.765   6.640  15.585  0.00  0.00    +0.000 C 
ATOM     13  C   UNL     1      44.510   6.940  16.833  0.00  0.00    +0.000 C 
ATOM     14  C   UNL     1      43.696   7.689  17.837  0.00  0.00    +0.000 C 
ENDROOT
BRANCH   3  15
ATOM     15  C   UNL     1      37.470   4.067  15.914  0.00  0.00    +0.000 C 
ATOM     16  O   UNL     1      36.778   4.741  15.113  0.00  0.00    +0.000 OA
ATOM     17  N   UNL     1      37.269   2.673  16.068  0.00  0.00    +0.000 NA
BRANCH  17  18
ATOM     18  C   UNL     1      36.216   2.071  15.251  0.00  0.00    +0.000 C 
BRANCH  18  19
ATOM     19  C   UNL     1      35.796   0.750  15.772  0.00  0.00    +0.000 A 
ATOM     20  C   UNL     1      34.943   0.590  16.854  0.00  0.00    +0.000 A 
ATOM     21  C   UNL     1      34.602  -0.676  17.276  0.00  0.00    +0.000 A 
ATOM     22  C   UNL     1      35.083  -1.824  16.655  0.00  0.00    +0.000 A 
ATOM     23  C   UNL     1      35.925  -1.660  15.588  0.00  0.00    +0.000 A 
ATOM     24  C   UNL     1      36.271  -0.397  15.160  0.00  0.00    +0.000 A 
ENDBRANCH  18  19
ENDBRANCH  17  18
ENDBRANCH   3  15
BRANCH   7  25
ATOM     25  C   UNL     1      42.809   7.374  20.513  0.00  0.00    +0.000 C 
BRANCH  25  26
ATOM     26  C   UNL     1      43.235   6.493  21.573  0.00  0.00    +0.000 C 
BRANCH  26  27
ATOM     27  C   UNL     1      44.472   5.762  21.368  0.00  0.00    +0.000 A 
ATOM     28  C   UNL     1      45.382   6.270  20.463  0.00  0.00    +0.000 A 
ATOM     29  C   UNL     1      46.571   5.610  20.195  0.00  0.00    +0.000 A 
ATOM     30  C   UNL     1      46.819   4.435  20.853  0.00  0.00    +0.000 A 
ATOM     31  C   UNL     1      45.923   3.921  21.754  0.00  0.00    +0.000 A 
ATOM     32  C   UNL     1      44.756   4.570  22.018  0.00  0.00    +0.000 A 
ENDBRANCH  26  27
ENDBRANCH  25  26
ENDBRANCH   7  25
TORSDOF 6
ENDMDL
MODEL 4
REMARK VINA RESULT:      -7.6      5.097      8.974
REMARK  Name = 
REMARK  6 active torsions:
REMARK  status: ('A' for Active; 'I' for Inactive)
REMARK    1  A    between atoms: C_3  and  C_4
REMARK    2  A    between atoms: N_6  and  C_7
REMARK    3  A    between atoms: C_7  and  C_8
REMARK    4  A    between atoms: C_17  and  C_18
REMARK    5  A    between atoms: C_18  and  C_19
REMARK    6  A    between atoms: C_19  and  C_20
REMARK                            x       y       z     vdW  Elec       q    Type
REMARK                         _______ _______ _______ _____ _____    ______ ____
ROOT
ATOM      1  N   UNL     1      34.935   6.063  12.366  0.00  0.00    +0.000 NA
ATOM      2  C   UNL     1      35.904   6.777  13.191  0.00  0.00    +0.000 A 
ATOM      3  C   UNL     1      36.165   8.083  12.874  0.00  0.00    +0.000 A 
ATOM      4  S   UNL     1      37.318   8.527  14.051  0.00  0.00    +0.000 S 
ATOM      5  C   UNL     1      37.434   7.052  14.905  0.00  0.00    +0.000 A 
ATOM      6  N   UNL     1      38.165   6.658  15.979  0.00  0.00    +0.000 NA
ATOM      7  C   UNL     1      38.077   5.398  16.484  0.00  0.00    +0.000 A 
ATOM      8  C   UNL     1      37.206   4.570  15.830  0.00  0.00    +0.000 A 
ATOM      9  C   UNL     1      36.458   4.938  14.747  0.00  0.00    +0.000 A 
ATOM     10  C   UNL     1      36.555   6.244  14.234  0.00  0.00    +0.000 A 
ATOM     11  C   UNL     1      35.564   3.940  14.122  0.00  0.00    +0.000 C 
ATOM     12  C   UNL     1      34.944   2.969  15.057  0.00  0.00    +0.000 C 
ATOM     13  C   UNL     1      35.655   2.751  16.342  0.00  0.00    +0.000 C 
ATOM     14  C   UNL     1      37.089   3.165  16.298  0.00  0.00    +0.000 C 
ENDROOT
BRANCH   3  15
ATOM     15  C   UNL     1      35.587   8.900  11.778  0.00  0.00    +0.000 C 
ATOM     16  O   UNL     1      34.883   9.906  12.039  0.00  0.00    +0.000 OA
ATOM     17  N   UNL     1      35.853   8.515  10.441  0.00  0.00    +0.000 NA
BRANCH  17  18
ATOM     18  C   UNL     1      35.263   9.348   9.392  0.00  0.00    +0.000 C 
BRANCH  18  19
ATOM     19  C   UNL     1      34.529   8.540   8.391  0.00  0.00    +0.000 A 
ATOM     20  C   UNL     1      34.215   7.201   8.569  0.00  0.00    +0.000 A 
ATOM     21  C   UNL     1      33.528   6.523   7.587  0.00  0.00    +0.000 A 
ATOM     22  C   UNL     1      33.127   7.130   6.402  0.00  0.00    +0.000 A 
ATOM     23  C   UNL     1      33.440   8.452   6.231  0.00  0.00    +0.000 A 
ATOM     24  C   UNL     1      34.127   9.137   7.209  0.00  0.00    +0.000 A 
ENDBRANCH  18  19
ENDBRANCH  17  18
ENDBRANCH   3  15
BRANCH   7  25
ATOM     25  C   UNL     1      38.826   4.953  17.653  0.00  0.00    +0.000 C 
BRANCH  25  26
ATOM     26  C   UNL     1      39.145   5.877  18.714  0.00  0.00    +0.000 C 
BRANCH  26  27
ATOM     27  C   UNL     1      40.548   6.174  18.933  0.00  0.00    +0.000 A 
ATOM     28  C   UNL     1      41.004   6.225  20.235  0.00  0.00    +0.000 A 
ATOM     29  C   UNL     1      42.326   6.532  20.520  0.00  0.00    +0.000 A 
ATOM     30  C   UNL     1      43.170   6.785  19.472  0.00  0.00    +0.000 A 
ATOM     31  C   UNL     1      42.728   6.736  18.174  0.00  0.00    +0.000 A 
ATOM     32  C   UNL     1      41.431   6.434  17.895  0.00  0.00    +0.000 A 
ENDBRANCH  26  27
ENDBRANCH  25  26
ENDBRANCH   7  25
TORSDOF 6
ENDMDL
MODEL 5
REMARK VINA RESULT:      -7.6      4.963      6.765
REMARK  Name = 
REMARK  6 active torsions:
REMARK  status: ('A' for Active; 'I' for Inactive)
REMARK    1  A    between atoms: C_3  and  C_4
REMARK    2  A    between atoms: N_6  and  C_7
REMARK    3  A    between atoms: C_7  and  C_8
REMARK    4  A    between atoms: C_17  and  C_18
REMARK    5  A    between atoms: C_18  and  C_19
REMARK    6  A    between atoms: C_19  and  C_20
REMARK                            x       y       z     vdW  Elec       q    Type
REMARK                         _______ _______ _______ _____ _____    ______ ____
ROOT
ATOM      1  N   UNL     1      41.218   1.041  13.962  0.00  0.00    +0.000 NA
ATOM      2  C   UNL     1      40.850  -0.357  14.162  0.00  0.00    +0.000 A 
ATOM      3  C   UNL     1      41.857  -1.284  14.145  0.00  0.00    +0.000 A 
ATOM      4  S   UNL     1      41.019  -2.747  14.409  0.00  0.00    +0.000 S 
ATOM      5  C   UNL     1      39.425  -2.142  14.534  0.00  0.00    +0.000 A 
ATOM      6  N   UNL     1      38.223  -2.735  14.745  0.00  0.00    +0.000 NA
ATOM      7  C   UNL     1      37.069  -2.017  14.805  0.00  0.00    +0.000 A 
ATOM      8  C   UNL     1      37.215  -0.667  14.635  0.00  0.00    +0.000 A 
ATOM      9  C   UNL     1      38.413  -0.043  14.420  0.00  0.00    +0.000 A 
ATOM     10  C   UNL     1      39.600  -0.794  14.362  0.00  0.00    +0.000 A 
ATOM     11  C   UNL     1      38.430   1.424  14.236  0.00  0.00    +0.000 C 
ATOM     12  C   UNL     1      37.422   2.176  15.023  0.00  0.00    +0.000 C 
ATOM     13  C   UNL     1      36.223   1.413  15.452  0.00  0.00    +0.000 C 
ATOM     14  C   UNL     1      35.993   0.177  14.644  0.00  0.00    +0.000 C 
ENDROOT
BRANCH   3  15
ATOM     15  C   UNL     1      43.311  -1.065  13.944  0.00  0.00    +0.000 C 
ATOM     16  O   UNL     1      43.841  -1.298  12.830  0.00  0.00    +0.000 OA
ATOM     17  N   UNL     1      44.076  -0.588  15.037  0.00  0.00    +0.000 NA
BRANCH  17  18
ATOM     18  C   UNL     1      45.505  -0.386  14.796  0.00  0.00    +0.000 C 
BRANCH  18  19
ATOM     19  C   UNL     1      46.199   0.140  15.994  0.00  0.00    +0.000 A 
ATOM     20  C   UNL     1      47.298   0.984  15.932  0.00  0.00    +0.000 A 
ATOM     21  C   UNL     1      47.886   1.430  17.095  0.00  0.00    +0.000 A 
ATOM     22  C   UNL     1      47.420   1.065  18.353  0.00  0.00    +0.000 A 
ATOM     23  C   UNL     1      46.334   0.232  18.409  0.00  0.00    +0.000 A 
ATOM     24  C   UNL     1      45.742  -0.217  17.250  0.00  0.00    +0.000 A 
ENDBRANCH  18  19
ENDBRANCH  17  18
ENDBRANCH   3  15
BRANCH   7  25
ATOM     25  C   UNL     1      35.767  -2.620  15.060  0.00  0.00    +0.000 C 
BRANCH  25  26
ATOM     26  C   UNL     1      35.395  -3.025  16.395  0.00  0.00    +0.000 C 
BRANCH  26  27
ATOM     27  C   UNL     1      35.841  -2.183  17.489  0.00  0.00    +0.000 A 
ATOM     28  C   UNL     1      35.042  -1.117  17.853  0.00  0.00    +0.000 A 
ATOM     29  C   UNL     1      35.420  -0.253  18.869  0.00  0.00    +0.000 A 
ATOM     30  C   UNL     1      36.610  -0.485  19.505  0.00  0.00    +0.000 A 
ATOM     31  C   UNL     1      37.411  -1.541  19.152  0.00  0.00    +0.000 A 
ATOM     32  C   UNL     1      37.040  -2.390  18.155  0.00  0.00    +0.000 A 
ENDBRANCH  26  27
ENDBRANCH  25  26
ENDBRANCH   7  25
TORSDOF 6
ENDMDL
MODEL 6
REMARK VINA RESULT:      -7.5      1.811      2.756
REMARK  Name = 
REMARK  6 active torsions:
REMARK  status: ('A' for Active; 'I' for Inactive)
REMARK    1  A    between atoms: C_3  and  C_4
REMARK    2  A    between atoms: N_6  and  C_7
REMARK    3  A    between atoms: C_7  and  C_8
REMARK    4  A    between atoms: C_17  and  C_18
REMARK    5  A    between atoms: C_18  and  C_19
REMARK    6  A    between atoms: C_19  and  C_20
REMARK                            x       y       z     vdW  Elec       q    Type
REMARK                         _______ _______ _______ _____ _____    ______ ____
ROOT
ATOM      1  N   UNL     1      38.028   4.708  17.360  0.00  0.00    +0.000 NA
ATOM      2  C   UNL     1      38.650   4.334  16.095  0.00  0.00    +0.000 A 
ATOM      3  C   UNL     1      39.678   5.115  15.640  0.00  0.00    +0.000 A 
ATOM      4  S   UNL     1      40.106   4.350  14.176  0.00  0.00    +0.000 S 
ATOM      5  C   UNL     1      38.975   3.069  14.184  0.00  0.00    +0.000 A 
ATOM      6  N   UNL     1      38.726   2.049  13.325  0.00  0.00    +0.000 NA
ATOM      7  C   UNL     1      37.746   1.134  13.563  0.00  0.00    +0.000 A 
ATOM      8  C   UNL     1      37.042   1.325  14.720  0.00  0.00    +0.000 A 
ATOM      9  C   UNL     1      37.271   2.344  15.603  0.00  0.00    +0.000 A 
ATOM     10  C   UNL     1      38.287   3.282  15.349  0.00  0.00    +0.000 A 
ATOM     11  C   UNL     1      36.426   2.445  16.811  0.00  0.00    +0.000 C 
ATOM     12  C   UNL     1      35.985   1.152  17.390  0.00  0.00    +0.000 C 
ATOM     13  C   UNL     1      35.964  -0.008  16.464  0.00  0.00    +0.000 C 
ATOM     14  C   UNL     1      35.927   0.391  15.024  0.00  0.00    +0.000 C 
ENDROOT
BRANCH   3  15
ATOM     15  C   UNL     1      40.267   6.325  16.268  0.00  0.00    +0.000 C 
ATOM     16  O   UNL     1      40.145   7.448  15.721  0.00  0.00    +0.000 OA
ATOM     17  N   UNL     1      40.962   6.174  17.493  0.00  0.00    +0.000 NA
BRANCH  17  18
ATOM     18  C   UNL     1      41.527   7.391  18.077  0.00  0.00    +0.000 C 
BRANCH  18  19
ATOM     19  C   UNL     1      40.605   8.018  19.052  0.00  0.00    +0.000 A 
ATOM     20  C   UNL     1      39.653   7.309  19.770  0.00  0.00    +0.000 A 
ATOM     21  C   UNL     1      38.835   7.968  20.659  0.00  0.00    +0.000 A 
ATOM     22  C   UNL     1      38.919   9.340  20.874  0.00  0.00    +0.000 A 
ATOM     23  C   UNL     1      39.861  10.035  20.163  0.00  0.00    +0.000 A 
ATOM     24  C   UNL     1      40.683   9.382  19.272  0.00  0.00    +0.000 A 
ENDBRANCH  18  19
ENDBRANCH  17  18
ENDBRANCH   3  15
BRANCH   7  25
ATOM     25  C   UNL     1      37.473   0.010  12.676  0.00  0.00    +0.000 C 
BRANCH  25  26
ATOM     26  C   UNL     1      38.334  -1.148  12.673  0.00  0.00    +0.000 C 
BRANCH  26  27
ATOM     27  C   UNL     1      38.335  -1.973  13.866  0.00  0.00    +0.000 A 
ATOM     28  C   UNL     1      37.336  -2.917  14.002  0.00  0.00    +0.000 A 
ATOM     29  C   UNL     1      37.258  -3.720  15.130  0.00  0.00    +0.000 A 
ATOM     30  C   UNL     1      38.201  -3.552  16.108  0.00  0.00    +0.000 A 
ATOM     31  C   UNL     1      39.198  -2.619  15.983  0.00  0.00    +0.000 A 
ATOM     32  C   UNL     1      39.275  -1.831  14.876  0.00  0.00    +0.000 A 
ENDBRANCH  26  27
ENDBRANCH  25  26
ENDBRANCH   7  25
TORSDOF 6
ENDMDL
MODEL 7
REMARK VINA RESULT:      -7.5      2.253     10.007
REMARK  Name = 
REMARK  6 active torsions:
REMARK  status: ('A' for Active; 'I' for Inactive)
REMARK    1  A    between atoms: C_3  and  C_4
REMARK    2  A    between atoms: N_6  and  C_7
REMARK    3  A    between atoms: C_7  and  C_8
REMARK    4  A    between atoms: C_17  and  C_18
REMARK    5  A    between atoms: C_18  and  C_19
REMARK    6  A    between atoms: C_19  and  C_20
REMARK                            x       y       z     vdW  Elec       q    Type
REMARK                         _______ _______ _______ _____ _____    ______ ____
ROOT
ATOM      1  N   UNL     1      39.778   4.296  14.072  0.00  0.00    +0.000 NA
ATOM      2  C   UNL     1      39.045   4.234  15.332  0.00  0.00    +0.000 A 
ATOM      3  C   UNL     1      37.977   3.381  15.401  0.00  0.00    +0.000 A 
ATOM      4  S   UNL     1      37.419   3.611  16.997  0.00  0.00    +0.000 S 
ATOM      5  C   UNL     1      38.552   4.776  17.527  0.00  0.00    +0.000 A 
ATOM      6  N   UNL     1      38.727   5.429  18.704  0.00  0.00    +0.000 NA
ATOM      7  C   UNL     1      39.729   6.333  18.881  0.00  0.00    +0.000 A 
ATOM      8  C   UNL     1      40.533   6.529  17.792  0.00  0.00    +0.000 A 
ATOM      9  C   UNL     1      40.380   5.886  16.595  0.00  0.00    +0.000 A 
ATOM     10  C   UNL     1      39.343   4.952  16.423  0.00  0.00    +0.000 A 
ATOM     11  C   UNL     1      41.311   6.201  15.490  0.00  0.00    +0.000 C 
ATOM     12  C   UNL     1      42.701   6.517  15.901  0.00  0.00    +0.000 C 
ATOM     13  C   UNL     1      42.881   6.999  17.293  0.00  0.00    +0.000 C 
ATOM     14  C   UNL     1      41.622   7.533  17.897  0.00  0.00    +0.000 C 
ENDROOT
BRANCH   3  15
ATOM     15  C   UNL     1      37.441   2.484  14.346  0.00  0.00    +0.000 C 
ATOM     16  O   UNL     1      36.782   2.954  13.387  0.00  0.00    +0.000 OA
ATOM     17  N   UNL     1      37.696   1.094  14.453  0.00  0.00    +0.000 NA
BRANCH  17  18
ATOM     18  C   UNL     1      37.151   0.246  13.393  0.00  0.00    +0.000 C 
BRANCH  18  19
ATOM     19  C   UNL     1      37.128  -1.182  13.783  0.00  0.00    +0.000 A 
ATOM     20  C   UNL     1      37.937  -2.147  13.202  0.00  0.00    +0.000 A 
ATOM     21  C   UNL     1      37.854  -3.455  13.624  0.00  0.00    +0.000 A 
ATOM     22  C   UNL     1      36.979  -3.862  14.625  0.00  0.00    +0.000 A 
ATOM     23  C   UNL     1      36.182  -2.905  15.196  0.00  0.00    +0.000 A 
ATOM     24  C   UNL     1      36.260  -1.595  14.779  0.00  0.00    +0.000 A 
ENDBRANCH  18  19
ENDBRANCH  17  18
ENDBRANCH   3  15
BRANCH   7  25
ATOM     25  C   UNL     1      39.962   7.028  20.141  0.00  0.00    +0.000 C 
BRANCH  25  26
ATOM     26  C   UNL     1      38.973   7.934  20.672  0.00  0.00    +0.000 C 
BRANCH  26  27
ATOM     27  C   UNL     1      38.353   8.857  19.739  0.00  0.00    +0.000 A 
ATOM     28  C   UNL     1      37.044   8.620  19.368  0.00  0.00    +0.000 A 
ATOM     29  C   UNL     1      36.398   9.443  18.458  0.00  0.00    +0.000 A 
ATOM     30  C   UNL     1      37.094  10.500  17.935  0.00  0.00    +0.000 A 
ATOM     31  C   UNL     1      38.394  10.744  18.297  0.00  0.00    +0.000 A 
ATOM     32  C   UNL     1      39.028   9.937  19.191  0.00  0.00    +0.000 A 
ENDBRANCH  26  27
ENDBRANCH  25  26
ENDBRANCH   7  25
TORSDOF 6
ENDMDL
MODEL 8
REMARK VINA RESULT:      -7.5      2.573      3.427
REMARK  Name = 
REMARK  6 active torsions:
REMARK  status: ('A' for Active; 'I' for Inactive)
REMARK    1  A    between atoms: C_3  and  C_4
REMARK    2  A    between atoms: N_6  and  C_7
REMARK    3  A    between atoms: C_7  and  C_8
REMARK    4  A    between atoms: C_17  and  C_18
REMARK    5  A    between atoms: C_18  and  C_19
REMARK    6  A    between atoms: C_19  and  C_20
REMARK                            x       y       z     vdW  Elec       q    Type
REMARK                         _______ _______ _______ _____ _____    ______ ____
ROOT
ATOM      1  N   UNL     1      37.103   1.847  16.537  0.00  0.00    +0.000 NA
ATOM      2  C   UNL     1      37.685   1.835  15.199  0.00  0.00    +0.000 A 
ATOM      3  C   UNL     1      37.828   3.039  14.562  0.00  0.00    +0.000 A 
ATOM      4  S   UNL     1      38.525   2.588  13.071  0.00  0.00    +0.000 S 
ATOM      5  C   UNL     1      38.615   0.897  13.300  0.00  0.00    +0.000 A 
ATOM      6  N   UNL     1      39.067  -0.120  12.522  0.00  0.00    +0.000 NA
ATOM      7  C   UNL     1      39.030  -1.414  12.942  0.00  0.00    +0.000 A 
ATOM      8  C   UNL     1      38.507  -1.605  14.191  0.00  0.00    +0.000 A 
ATOM      9  C   UNL     1      38.045  -0.601  14.996  0.00  0.00    +0.000 A 
ATOM     10  C   UNL     1      38.089   0.734  14.553  0.00  0.00    +0.000 A 
ATOM     11  C   UNL     1      37.488  -0.945  16.321  0.00  0.00    +0.000 C 
ATOM     12  C   UNL     1      38.132  -2.096  17.001  0.00  0.00    +0.000 C 
ATOM     13  C   UNL     1      38.836  -3.066  16.125  0.00  0.00    +0.000 C 
ATOM     14  C   UNL     1      38.395  -2.997  14.699  0.00  0.00    +0.000 C 
ENDROOT
BRANCH   3  15
ATOM     15  C   UNL     1      37.463   4.392  15.050  0.00  0.00    +0.000 C 
ATOM     16  O   UNL     1      36.410   4.948  14.655  0.00  0.00    +0.000 OA
ATOM     17  N   UNL     1      38.332   5.031  15.969  0.00  0.00    +0.000 NA
BRANCH  17  18
ATOM     18  C   UNL     1      37.936   6.364  16.425  0.00  0.00    +0.000 C 
BRANCH  18  19
ATOM     19  C   UNL     1      38.496   6.683  17.758  0.00  0.00    +0.000 A 
ATOM     20  C   UNL     1      38.035   7.721  18.553  0.00  0.00    +0.000 A 
ATOM     21  C   UNL     1      38.612   7.950  19.782  0.00  0.00    +0.000 A 
ATOM     22  C   UNL     1      39.657   7.174  20.272  0.00  0.00    +0.000 A 
ATOM     23  C   UNL     1      40.108   6.151  19.483  0.00  0.00    +0.000 A 
ATOM     24  C   UNL     1      39.536   5.916  18.253  0.00  0.00    +0.000 A 
ENDBRANCH  18  19
ENDBRANCH  17  18
ENDBRANCH   3  15
BRANCH   7  25
ATOM     25  C   UNL     1      39.535  -2.525  12.144  0.00  0.00    +0.000 C 
BRANCH  25  26
ATOM     26  C   UNL     1      40.868  -3.034  12.356  0.00  0.00    +0.000 C 
BRANCH  26  27
ATOM     27  C   UNL     1      41.862  -2.098  12.849  0.00  0.00    +0.000 A 
ATOM     28  C   UNL     1      42.522  -1.309  11.929  0.00  0.00    +0.000 A 
ATOM     29  C   UNL     1      43.504  -0.414  12.325  0.00  0.00    +0.000 A 
ATOM     30  C   UNL     1      43.804  -0.335  13.658  0.00  0.00    +0.000 A 
ATOM     31  C   UNL     1      43.155  -1.114  14.582  0.00  0.00    +0.000 A 
ATOM     32  C   UNL     1      42.190  -1.991  14.192  0.00  0.00    +0.000 A 
ENDBRANCH  26  27
ENDBRANCH  25  26
ENDBRANCH   7  25
TORSDOF 6
ENDMDL
MODEL 9
REMARK VINA RESULT:      -7.4      2.921      3.242
REMARK  Name = 
REMARK  6 active torsions:
REMARK  status: ('A' for Active; 'I' for Inactive)
REMARK    1  A    between atoms: C_3  and  C_4
REMARK    2  A    between atoms: N_6  and  C_7
REMARK    3  A    between atoms: C_7  and  C_8
REMARK    4  A    between atoms: C_17  and  C_18
REMARK    5  A    between atoms: C_18  and  C_19
REMARK    6  A    between atoms: C_19  and  C_20
REMARK                            x       y       z     vdW  Elec       q    Type
REMARK                         _______ _______ _______ _____ _____    ______ ____
ROOT
ATOM      1  N   UNL     1      35.238   3.829  15.159  0.00  0.00    +0.000 NA
ATOM      2  C   UNL     1      36.040   3.028  14.240  0.00  0.00    +0.000 A 
ATOM      3  C   UNL     1      36.657   3.680  13.206  0.00  0.00    +0.000 A 
ATOM      4  S   UNL     1      37.465   2.413  12.398  0.00  0.00    +0.000 S 
ATOM      5  C   UNL     1      36.999   1.102  13.390  0.00  0.00    +0.000 A 
ATOM      6  N   UNL     1      37.269  -0.228  13.353  0.00  0.00    +0.000 NA
ATOM      7  C   UNL     1      36.766  -1.087  14.282  0.00  0.00    +0.000 A 
ATOM      8  C   UNL     1      35.977  -0.511  15.239  0.00  0.00    +0.000 A 
ATOM      9  C   UNL     1      35.688   0.824  15.299  0.00  0.00    +0.000 A 
ATOM     10  C   UNL     1      36.214   1.704  14.337  0.00  0.00    +0.000 A 
ATOM     11  C   UNL     1      34.806   1.316  16.379  0.00  0.00    +0.000 C 
ATOM     12  C   UNL     1      34.931   0.605  17.676  0.00  0.00    +0.000 C 
ATOM     13  C   UNL     1      35.470  -0.777  17.616  0.00  0.00    +0.000 C 
ATOM     14  C   UNL     1      35.357  -1.394  16.260  0.00  0.00    +0.000 C 
ENDROOT
BRANCH   3  15
ATOM     15  C   UNL     1      36.625   5.127  12.877  0.00  0.00    +0.000 C 
ATOM     16  O   UNL     1      37.689   5.790  12.821  0.00  0.00    +0.000 OA
ATOM     17  N   UNL     1      35.368   5.732  12.627  0.00  0.00    +0.000 NA
BRANCH  17  18
ATOM     18  C   UNL     1      35.381   7.159  12.306  0.00  0.00    +0.000 C 
BRANCH  18  19
ATOM     19  C   UNL     1      35.045   7.994  13.482  0.00  0.00    +0.000 A 
ATOM     20  C   UNL     1      35.840   9.037  13.934  0.00  0.00    +0.000 A 
ATOM     21  C   UNL     1      35.454   9.765  15.036  0.00  0.00    +0.000 A 
ATOM     22  C   UNL     1      34.279   9.499  15.732  0.00  0.00    +0.000 A 
ATOM     23  C   UNL     1      33.497   8.468  15.282  0.00  0.00    +0.000 A 
ATOM     24  C   UNL     1      33.878   7.735  14.180  0.00  0.00    +0.000 A 
ENDBRANCH  18  19
ENDBRANCH  17  18
ENDBRANCH   3  15
BRANCH   7  25
ATOM     25  C   UNL     1      37.061  -2.515  14.289  0.00  0.00    +0.000 C 
BRANCH  25  26
ATOM     26  C   UNL     1      38.339  -2.997  14.754  0.00  0.00    +0.000 C 
BRANCH  26  27
ATOM     27  C   UNL     1      38.471  -3.255  16.175  0.00  0.00    +0.000 A 
ATOM     28  C   UNL     1      38.336  -4.557  16.613  0.00  0.00    +0.000 A 
ATOM     29  C   UNL     1      38.420  -4.873  17.960  0.00  0.00    +0.000 A 
ATOM     30  C   UNL     1      38.641  -3.856  18.849  0.00  0.00    +0.000 A 
ATOM     31  C   UNL     1      38.777  -2.558  18.426  0.00  0.00    +0.000 A 
ATOM     32  C   UNL     1      38.695  -2.249  17.103  0.00  0.00    +0.000 A 
ENDBRANCH  26  27
ENDBRANCH  25  26
ENDBRANCH   7  25
TORSDOF 6
ENDMDL
MODEL 10
REMARK VINA RESULT:      -7.4      2.528      3.230
REMARK  Name = 
REMARK  6 active torsions:
REMARK  status: ('A' for Active; 'I' for Inactive)
REMARK    1  A    between atoms: C_3  and  C_4
REMARK    2  A    between atoms: N_6  and  C_7
REMARK    3  A    between atoms: C_7  and  C_8
REMARK    4  A    between atoms: C_17  and  C_18
REMARK    5  A    between atoms: C_18  and  C_19
REMARK    6  A    between atoms: C_19  and  C_20
REMARK                            x       y       z     vdW  Elec       q    Type
REMARK                         _______ _______ _______ _____ _____    ______ ____
ROOT
ATOM      1  N   UNL     1      35.014   3.349  15.585  0.00  0.00    +0.000 NA
ATOM      2  C   UNL     1      36.270   2.827  15.056  0.00  0.00    +0.000 A 
ATOM      3  C   UNL     1      36.943   3.599  14.148  0.00  0.00    +0.000 A 
ATOM      4  S   UNL     1      38.315   2.647  13.796  0.00  0.00    +0.000 S 
ATOM      5  C   UNL     1      37.995   1.305  14.805  0.00  0.00    +0.000 A 
ATOM      6  N   UNL     1      38.662   0.148  15.046  0.00  0.00    +0.000 NA
ATOM      7  C   UNL     1      38.189  -0.785  15.916  0.00  0.00    +0.000 A 
ATOM      8  C   UNL     1      37.002  -0.468  16.519  0.00  0.00    +0.000 A 
ATOM      9  C   UNL     1      36.308   0.690  16.295  0.00  0.00    +0.000 A 
ATOM     10  C   UNL     1      36.808   1.648  15.395  0.00  0.00    +0.000 A 
ATOM     11  C   UNL     1      35.027   0.903  17.001  0.00  0.00    +0.000 C 
ATOM     12  C   UNL     1      34.956   0.341  18.372  0.00  0.00    +0.000 C 
ATOM     13  C   UNL     1      35.888  -0.774  18.674  0.00  0.00    +0.000 C 
ATOM     14  C   UNL     1      36.401  -1.458  17.449  0.00  0.00    +0.000 C 
ENDROOT
BRANCH   3  15
ATOM     15  C   UNL     1      36.568   4.930  13.609  0.00  0.00    +0.000 C 
ATOM     16  O   UNL     1      35.905   5.022  12.547  0.00  0.00    +0.000 OA
ATOM     17  N   UNL     1      36.975   6.084  14.324  0.00  0.00    +0.000 NA
BRANCH  17  18
ATOM     18  C   UNL     1      36.585   7.375  13.757  0.00  0.00    +0.000 C 
BRANCH  18  19
ATOM     19  C   UNL     1      35.721   8.147  14.680  0.00  0.00    +0.000 A 
ATOM     20  C   UNL     1      36.213   9.026  15.634  0.00  0.00    +0.000 A 
ATOM     21  C   UNL     1      35.340   9.706  16.453  0.00  0.00    +0.000 A 
ATOM     22  C   UNL     1      33.961   9.549  16.368  0.00  0.00    +0.000 A 
ATOM     23  C   UNL     1      33.480   8.680  15.424  0.00  0.00    +0.000 A 
ATOM     24  C   UNL     1      34.347   7.997  14.601  0.00  0.00    +0.000 A 
ENDBRANCH  18  19
ENDBRANCH  17  18
ENDBRANCH   3  15
BRANCH   7  25
ATOM     25  C   UNL     1      38.895  -2.023  16.220  0.00  0.00    +0.000 C 
BRANCH  25  26
ATOM     26  C   UNL     1      38.762  -3.173  15.358  0.00  0.00    +0.000 C 
BRANCH  26  27
ATOM     27  C   UNL     1      37.487  -3.863  15.368  0.00  0.00    +0.000 A 
ATOM     28  C   UNL     1      37.282  -4.831  16.332  0.00  0.00    +0.000 A 
ATOM     29  C   UNL     1      36.099  -5.552  16.383  0.00  0.00    +0.000 A 
ATOM     30  C   UNL     1      35.135  -5.279  15.450  0.00  0.00    +0.000 A 
ATOM     31  C   UNL     1      35.327  -4.320  14.489  0.00  0.00    +0.000 A 
ATOM     32  C   UNL     1      36.489  -3.612  14.439  0.00  0.00    +0.000 A 
ENDBRANCH  26  27
ENDBRANCH  25  26
ENDBRANCH   7  25
TORSDOF 6
ENDMDL
