MODEL 1
REMARK VINA RESULT:      -8.2      0.000      0.000
REMARK  Name = 
REMARK  0 active torsions:
REMARK  status: ('A' for Active; 'I' for Inactive)
REMARK                            x       y       z     vdW  Elec       q    Type
REMARK                         _______ _______ _______ _____ _____    ______ ____
ROOT
ATOM      1  C   UNL     1      18.585  -5.631  26.423  0.00  0.00    +0.000 C 
ATOM      2  C   UNL     1      19.293  -6.953  26.445  0.00  0.00    +0.000 C 
ATOM      3  C   UNL     1      20.047  -5.869  25.733  0.00  0.00    +0.000 C 
ATOM      4  C   UNL     1      21.385  -6.161  25.124  0.00  0.00    +0.000 C 
ATOM      5  C   UNL     1      21.971  -7.539  25.225  0.00  0.00    +0.000 C 
ATOM      6  C   UNL     1      23.310  -7.831  24.616  0.00  0.00    +0.000 A 
ATOM      7  C   UNL     1      24.063  -6.747  23.904  0.00  0.00    +0.000 A 
ATOM      8  C   UNL     1      25.402  -7.040  23.294  0.00  0.00    +0.000 A 
ATOM      9  C   UNL     1      25.987  -8.416  23.396  0.00  0.00    +0.000 A 
ATOM     10  O   UNL     1      27.327  -8.710  22.786  0.00  0.00    +0.000 OA
ATOM     11  C   UNL     1      25.235  -9.502  24.108  0.00  0.00    +0.000 A 
ATOM     12  C   UNL     1      23.895  -9.209  24.718  0.00  0.00    +0.000 A 
ATOM     13  C   UNL     1      23.142 -10.293  25.429  0.00  0.00    +0.000 C 
ATOM     14  O   UNL     1      23.728 -11.670  25.531  0.00  0.00    +0.000 OA
ATOM     15  C   UNL     1      21.804 -10.001  26.039  0.00  0.00    +0.000 C 
ATOM     16  C   UNL     1      21.218  -8.623  25.937  0.00  0.00    +0.000 C 
ATOM     17  C   UNL     1      19.879  -8.331  26.547  0.00  0.00    +0.000 C 
ATOM     18  C   UNL     1      18.911  -9.191  27.304  0.00  0.00    +0.000 C 
ATOM     19  C   UNL     1      17.728  -8.346  27.670  0.00  0.00    +0.000 C 
ATOM     20  C   UNL     1      17.964  -6.963  27.139  0.00  0.00    +0.000 C 
ATOM     21  O   UNL     1      17.033  -5.795  27.278  0.00  0.00    +0.000 OA
ENDROOT
TORSDOF 0
ENDMDL
MODEL 2
REMARK VINA RESULT:      -8.1     21.591     23.280
REMARK  Name = 
REMARK  0 active torsions:
REMARK  status: ('A' for Active; 'I' for Inactive)
REMARK                            x       y       z     vdW  Elec       q    Type
REMARK                         _______ _______ _______ _____ _____    ______ ____
ROOT
ATOM      1  C   UNL     1      18.981   8.773  38.292  0.00  0.00    +0.000 C 
ATOM      2  C   UNL     1      17.717   9.579  38.263  0.00  0.00    +0.000 C 
ATOM      3  C   UNL     1      18.399   9.466  36.932  0.00  0.00    +0.000 C 
ATOM      4  C   UNL     1      17.804  10.130  35.726  0.00  0.00    +0.000 C 
ATOM      5  C   UNL     1      16.527  10.907  35.850  0.00  0.00    +0.000 C 
ATOM      6  C   UNL     1      15.932  11.571  34.644  0.00  0.00    +0.000 A 
ATOM      7  C   UNL     1      16.614  11.458  33.313  0.00  0.00    +0.000 A 
ATOM      8  C   UNL     1      16.019  12.122  32.106  0.00  0.00    +0.000 A 
ATOM      9  C   UNL     1      14.743  12.898  32.231  0.00  0.00    +0.000 A 
ATOM     10  O   UNL     1      14.147  13.563  31.024  0.00  0.00    +0.000 OA
ATOM     11  C   UNL     1      14.060  13.012  33.562  0.00  0.00    +0.000 A 
ATOM     12  C   UNL     1      14.655  12.348  34.769  0.00  0.00    +0.000 A 
ATOM     13  C   UNL     1      13.973  12.461  36.100  0.00  0.00    +0.000 C 
ATOM     14  O   UNL     1      12.696  13.238  36.224  0.00  0.00    +0.000 OA
ATOM     15  C   UNL     1      14.568  11.797  37.306  0.00  0.00    +0.000 C 
ATOM     16  C   UNL     1      15.845  11.020  37.181  0.00  0.00    +0.000 C 
ATOM     17  C   UNL     1      16.440  10.356  38.388  0.00  0.00    +0.000 C 
ATOM     18  C   UNL     1      15.997  10.294  39.820  0.00  0.00    +0.000 C 
ATOM     19  C   UNL     1      17.000   9.479  40.580  0.00  0.00    +0.000 C 
ATOM     20  C   UNL     1      18.063   9.037  39.618  0.00  0.00    +0.000 C 
ATOM     21  O   UNL     1      19.262   8.200  39.952  0.00  0.00    +0.000 OA
ENDROOT
TORSDOF 0
ENDMDL
MODEL 3
REMARK VINA RESULT:      -7.9     31.727     32.115
REMARK  Name = 
REMARK  0 active torsions:
REMARK  status: ('A' for Active; 'I' for Inactive)
REMARK                            x       y       z     vdW  Elec       q    Type
REMARK                         _______ _______ _______ _____ _____    ______ ____
ROOT
ATOM      1  C   UNL     1      28.900  23.132  23.264  0.00  0.00    +0.000 C 
ATOM      2  C   UNL     1      28.055  23.136  24.503  0.00  0.00    +0.000 C 
ATOM      3  C   UNL     1      29.520  22.957  24.765  0.00  0.00    +0.000 C 
ATOM      4  C   UNL     1      30.018  22.802  26.171  0.00  0.00    +0.000 C 
ATOM      5  C   UNL     1      29.049  22.827  27.317  0.00  0.00    +0.000 C 
ATOM      6  C   UNL     1      29.546  22.672  28.723  0.00  0.00    +0.000 A 
ATOM      7  C   UNL     1      31.012  22.493  28.985  0.00  0.00    +0.000 A 
ATOM      8  C   UNL     1      31.509  22.338  30.391  0.00  0.00    +0.000 A 
ATOM      9  C   UNL     1      30.541  22.362  31.536  0.00  0.00    +0.000 A 
ATOM     10  O   UNL     1      31.038  22.207  32.943  0.00  0.00    +0.000 OA
ATOM     11  C   UNL     1      29.074  22.541  31.275  0.00  0.00    +0.000 A 
ATOM     12  C   UNL     1      28.577  22.696  29.868  0.00  0.00    +0.000 A 
ATOM     13  C   UNL     1      27.111  22.875  29.606  0.00  0.00    +0.000 C 
ATOM     14  O   UNL     1      26.143  22.899  30.751  0.00  0.00    +0.000 OA
ATOM     15  C   UNL     1      26.614  23.030  28.200  0.00  0.00    +0.000 C 
ATOM     16  C   UNL     1      27.583  23.006  27.055  0.00  0.00    +0.000 C 
ATOM     17  C   UNL     1      27.085  23.161  25.648  0.00  0.00    +0.000 C 
ATOM     18  C   UNL     1      25.708  23.352  25.085  0.00  0.00    +0.000 C 
ATOM     19  C   UNL     1      25.825  23.445  23.593  0.00  0.00    +0.000 C 
ATOM     20  C   UNL     1      27.275  23.312  23.233  0.00  0.00    +0.000 C 
ATOM     21  O   UNL     1      27.846  23.349  21.846  0.00  0.00    +0.000 OA
ENDROOT
TORSDOF 0
ENDMDL
MODEL 4
REMARK VINA RESULT:      -7.3     31.881     32.235
REMARK  Name = 
REMARK  0 active torsions:
REMARK  status: ('A' for Active; 'I' for Inactive)
REMARK                            x       y       z     vdW  Elec       q    Type
REMARK                         _______ _______ _______ _____ _____    ______ ____
ROOT
ATOM      1  C   UNL     1      32.371  21.795  29.688  0.00  0.00    +0.000 C 
ATOM      2  C   UNL     1      30.943  22.232  29.549  0.00  0.00    +0.000 C 
ATOM      3  C   UNL     1      31.653  22.044  28.242  0.00  0.00    +0.000 C 
ATOM      4  C   UNL     1      30.929  22.292  26.952  0.00  0.00    +0.000 C 
ATOM      5  C   UNL     1      29.493  22.728  26.969  0.00  0.00    +0.000 C 
ATOM      6  C   UNL     1      28.770  22.975  25.679  0.00  0.00    +0.000 A 
ATOM      7  C   UNL     1      29.480  22.788  24.372  0.00  0.00    +0.000 A 
ATOM      8  C   UNL     1      28.756  23.035  23.082  0.00  0.00    +0.000 A 
ATOM      9  C   UNL     1      27.322  23.471  23.099  0.00  0.00    +0.000 A 
ATOM     10  O   UNL     1      26.596  23.719  21.809  0.00  0.00    +0.000 OA
ATOM     11  C   UNL     1      26.610  23.659  24.406  0.00  0.00    +0.000 A 
ATOM     12  C   UNL     1      27.334  23.411  25.697  0.00  0.00    +0.000 A 
ATOM     13  C   UNL     1      26.623  23.599  27.004  0.00  0.00    +0.000 C 
ATOM     14  O   UNL     1      25.188  24.035  27.021  0.00  0.00    +0.000 OA
ATOM     15  C   UNL     1      27.347  23.351  28.294  0.00  0.00    +0.000 C 
ATOM     16  C   UNL     1      28.783  22.915  28.276  0.00  0.00    +0.000 C 
ATOM     17  C   UNL     1      29.507  22.668  29.567  0.00  0.00    +0.000 C 
ATOM     18  C   UNL     1      29.071  22.769  30.998  0.00  0.00    +0.000 C 
ATOM     19  C   UNL     1      30.236  22.397  31.865  0.00  0.00    +0.000 C 
ATOM     20  C   UNL     1      31.393  22.064  30.970  0.00  0.00    +0.000 C 
ATOM     21  O   UNL     1      32.760  21.639  31.417  0.00  0.00    +0.000 OA
ENDROOT
TORSDOF 0
ENDMDL
MODEL 5
REMARK VINA RESULT:      -7.3     31.628     32.204
REMARK  Name = 
REMARK  0 active torsions:
REMARK  status: ('A' for Active; 'I' for Inactive)
REMARK                            x       y       z     vdW  Elec       q    Type
REMARK                         _______ _______ _______ _____ _____    ______ ____
ROOT
ATOM      1  C   UNL     1      29.772  22.315  31.880  0.00  0.00    +0.000 C 
ATOM      2  C   UNL     1      30.426  22.397  30.533  0.00  0.00    +0.000 C 
ATOM      3  C   UNL     1      28.929  22.476  30.489  0.00  0.00    +0.000 C 
ATOM      4  C   UNL     1      28.224  22.624  29.174  0.00  0.00    +0.000 C 
ATOM      5  C   UNL     1      29.016  22.693  27.901  0.00  0.00    +0.000 C 
ATOM      6  C   UNL     1      28.310  22.841  26.586  0.00  0.00    +0.000 A 
ATOM      7  C   UNL     1      26.813  22.920  26.543  0.00  0.00    +0.000 A 
ATOM      8  C   UNL     1      26.108  23.068  25.227  0.00  0.00    +0.000 A 
ATOM      9  C   UNL     1      26.899  23.137  23.956  0.00  0.00    +0.000 A 
ATOM     10  O   UNL     1      26.194  23.285  22.639  0.00  0.00    +0.000 OA
ATOM     11  C   UNL     1      28.397  23.058  23.998  0.00  0.00    +0.000 A 
ATOM     12  C   UNL     1      29.103  22.910  25.314  0.00  0.00    +0.000 A 
ATOM     13  C   UNL     1      30.600  22.831  25.357  0.00  0.00    +0.000 C 
ATOM     14  O   UNL     1      31.391  22.900  24.085  0.00  0.00    +0.000 OA
ATOM     15  C   UNL     1      31.305  22.683  26.673  0.00  0.00    +0.000 C 
ATOM     16  C   UNL     1      30.513  22.614  27.945  0.00  0.00    +0.000 C 
ATOM     17  C   UNL     1      31.219  22.466  29.261  0.00  0.00    +0.000 C 
ATOM     18  C   UNL     1      32.673  22.363  29.613  0.00  0.00    +0.000 C 
ATOM     19  C   UNL     1      32.780  22.230  31.103  0.00  0.00    +0.000 C 
ATOM     20  C   UNL     1      31.392  22.252  31.672  0.00  0.00    +0.000 C 
ATOM     21  O   UNL     1      31.032  22.146  33.124  0.00  0.00    +0.000 OA
ENDROOT
TORSDOF 0
ENDMDL
MODEL 6
REMARK VINA RESULT:      -7.1     17.638     18.890
REMARK  Name = 
REMARK  0 active torsions:
REMARK  status: ('A' for Active; 'I' for Inactive)
REMARK                            x       y       z     vdW  Elec       q    Type
REMARK                         _______ _______ _______ _____ _____    ______ ____
ROOT
ATOM      1  C   UNL     1      33.747   5.227  34.622  0.00  0.00    +0.000 C 
ATOM      2  C   UNL     1      33.848   4.169  35.680  0.00  0.00    +0.000 C 
ATOM      3  C   UNL     1      33.720   3.629  34.287  0.00  0.00    +0.000 C 
ATOM      4  C   UNL     1      33.703   2.147  34.056  0.00  0.00    +0.000 C 
ATOM      5  C   UNL     1      33.813   1.205  35.219  0.00  0.00    +0.000 C 
ATOM      6  C   UNL     1      33.795  -0.277  34.988  0.00  0.00    +0.000 A 
ATOM      7  C   UNL     1      33.667  -0.818  33.595  0.00  0.00    +0.000 A 
ATOM      8  C   UNL     1      33.650  -2.299  33.364  0.00  0.00    +0.000 A 
ATOM      9  C   UNL     1      33.760  -3.241  34.526  0.00  0.00    +0.000 A 
ATOM     10  O   UNL     1      33.742  -4.723  34.295  0.00  0.00    +0.000 OA
ATOM     11  C   UNL     1      33.888  -2.701  35.919  0.00  0.00    +0.000 A 
ATOM     12  C   UNL     1      33.906  -1.218  36.151  0.00  0.00    +0.000 A 
ATOM     13  C   UNL     1      34.034  -0.678  37.544  0.00  0.00    +0.000 C 
ATOM     14  O   UNL     1      34.144  -1.620  38.706  0.00  0.00    +0.000 OA
ATOM     15  C   UNL     1      34.052   0.804  37.775  0.00  0.00    +0.000 C 
ATOM     16  C   UNL     1      33.941   1.745  36.612  0.00  0.00    +0.000 C 
ATOM     17  C   UNL     1      33.959   3.228  36.843  0.00  0.00    +0.000 C 
ATOM     18  C   UNL     1      34.073   4.047  38.094  0.00  0.00    +0.000 C 
ATOM     19  C   UNL     1      34.033   5.495  37.705  0.00  0.00    +0.000 C 
ATOM     20  C   UNL     1      33.894   5.570  36.213  0.00  0.00    +0.000 C 
ATOM     21  O   UNL     1      33.815   6.827  35.398  0.00  0.00    +0.000 OA
ENDROOT
TORSDOF 0
ENDMDL
MODEL 7
REMARK VINA RESULT:      -7.0     31.504     33.020
REMARK  Name = 
REMARK  0 active torsions:
REMARK  status: ('A' for Active; 'I' for Inactive)
REMARK                            x       y       z     vdW  Elec       q    Type
REMARK                         _______ _______ _______ _____ _____    ______ ____
ROOT
ATOM      1  C   UNL     1      27.585  23.719  22.101  0.00  0.00    +0.000 C 
ATOM      2  C   UNL     1      27.825  23.535  23.570  0.00  0.00    +0.000 C 
ATOM      3  C   UNL     1      29.046  23.935  22.798  0.00  0.00    +0.000 C 
ATOM      4  C   UNL     1      30.356  24.116  23.507  0.00  0.00    +0.000 C 
ATOM      5  C   UNL     1      30.444  23.896  24.989  0.00  0.00    +0.000 C 
ATOM      6  C   UNL     1      31.753  24.077  25.697  0.00  0.00    +0.000 A 
ATOM      7  C   UNL     1      32.975  24.477  24.925  0.00  0.00    +0.000 A 
ATOM      8  C   UNL     1      34.284  24.658  25.633  0.00  0.00    +0.000 A 
ATOM      9  C   UNL     1      34.372  24.438  27.114  0.00  0.00    +0.000 A 
ATOM     10  O   UNL     1      35.682  24.619  27.824  0.00  0.00    +0.000 OA
ATOM     11  C   UNL     1      33.151  24.037  27.887  0.00  0.00    +0.000 A 
ATOM     12  C   UNL     1      31.841  23.856  27.178  0.00  0.00    +0.000 A 
ATOM     13  C   UNL     1      30.619  23.456  27.951  0.00  0.00    +0.000 C 
ATOM     14  O   UNL     1      30.707  23.236  29.432  0.00  0.00    +0.000 OA
ATOM     15  C   UNL     1      29.309  23.275  27.242  0.00  0.00    +0.000 C 
ATOM     16  C   UNL     1      29.222  23.495  25.761  0.00  0.00    +0.000 C 
ATOM     17  C   UNL     1      27.912  23.315  25.052  0.00  0.00    +0.000 C 
ATOM     18  C   UNL     1      26.549  22.927  25.545  0.00  0.00    +0.000 C 
ATOM     19  C   UNL     1      25.619  22.908  24.368  0.00  0.00    +0.000 C 
ATOM     20  C   UNL     1      26.407  23.283  23.148  0.00  0.00    +0.000 C 
ATOM     21  O   UNL     1      25.872  23.389  21.751  0.00  0.00    +0.000 OA
ENDROOT
TORSDOF 0
ENDMDL
MODEL 8
REMARK VINA RESULT:      -6.8     23.163     24.048
REMARK  Name = 
REMARK  0 active torsions:
REMARK  status: ('A' for Active; 'I' for Inactive)
REMARK                            x       y       z     vdW  Elec       q    Type
REMARK                         _______ _______ _______ _____ _____    ______ ____
ROOT
ATOM      1  C   UNL     1      19.780   8.341  41.443  0.00  0.00    +0.000 C 
ATOM      2  C   UNL     1      18.309   8.606  41.317  0.00  0.00    +0.000 C 
ATOM      3  C   UNL     1      19.133   9.200  40.213  0.00  0.00    +0.000 C 
ATOM      4  C   UNL     1      18.469   9.977  39.116  0.00  0.00    +0.000 C 
ATOM      5  C   UNL     1      16.979  10.161  39.122  0.00  0.00    +0.000 C 
ATOM      6  C   UNL     1      16.315  10.938  38.025  0.00  0.00    +0.000 A 
ATOM      7  C   UNL     1      17.139  11.533  36.922  0.00  0.00    +0.000 A 
ATOM      8  C   UNL     1      16.475  12.310  35.825  0.00  0.00    +0.000 A 
ATOM      9  C   UNL     1      14.987  12.493  35.831  0.00  0.00    +0.000 A 
ATOM     10  O   UNL     1      14.321  13.271  34.733  0.00  0.00    +0.000 OA
ATOM     11  C   UNL     1      14.161  11.899  36.934  0.00  0.00    +0.000 A 
ATOM     12  C   UNL     1      14.826  11.121  38.032  0.00  0.00    +0.000 A 
ATOM     13  C   UNL     1      14.002  10.527  39.135  0.00  0.00    +0.000 C 
ATOM     14  O   UNL     1      12.513  10.711  39.140  0.00  0.00    +0.000 OA
ATOM     15  C   UNL     1      14.666   9.750  40.232  0.00  0.00    +0.000 C 
ATOM     16  C   UNL     1      16.155   9.567  40.225  0.00  0.00    +0.000 C 
ATOM     17  C   UNL     1      16.820   8.789  41.323  0.00  0.00    +0.000 C 
ATOM     18  C   UNL     1      16.272   8.092  42.533  0.00  0.00    +0.000 C 
ATOM     19  C   UNL     1      17.422   7.479  43.275  0.00  0.00    +0.000 C 
ATOM     20  C   UNL     1      18.681   7.796  42.523  0.00  0.00    +0.000 C 
ATOM     21  O   UNL     1      20.068   7.377  42.910  0.00  0.00    +0.000 OA
ENDROOT
TORSDOF 0
ENDMDL
MODEL 9
REMARK VINA RESULT:      -6.5     21.320     23.275
REMARK  Name = 
REMARK  0 active torsions:
REMARK  status: ('A' for Active; 'I' for Inactive)
REMARK                            x       y       z     vdW  Elec       q    Type
REMARK                         _______ _______ _______ _____ _____    ______ ____
ROOT
ATOM      1  C   UNL     1      22.690   9.758  36.658  0.00  0.00    +0.000 C 
ATOM      2  C   UNL     1      21.934   9.425  37.910  0.00  0.00    +0.000 C 
ATOM      3  C   UNL     1      21.087  10.028  36.829  0.00  0.00    +0.000 C 
ATOM      4  C   UNL     1      19.621  10.246  37.058  0.00  0.00    +0.000 C 
ATOM      5  C   UNL     1      19.001   9.861  38.369  0.00  0.00    +0.000 C 
ATOM      6  C   UNL     1      17.535  10.079  38.598  0.00  0.00    +0.000 A 
ATOM      7  C   UNL     1      16.689  10.681  37.517  0.00  0.00    +0.000 A 
ATOM      8  C   UNL     1      15.222  10.899  37.745  0.00  0.00    +0.000 A 
ATOM      9  C   UNL     1      14.603  10.514  39.056  0.00  0.00    +0.000 A 
ATOM     10  O   UNL     1      13.136  10.732  39.285  0.00  0.00    +0.000 OA
ATOM     11  C   UNL     1      15.449   9.912  40.138  0.00  0.00    +0.000 A 
ATOM     12  C   UNL     1      16.916   9.694  39.909  0.00  0.00    +0.000 A 
ATOM     13  C   UNL     1      17.762   9.091  40.990  0.00  0.00    +0.000 C 
ATOM     14  O   UNL     1      17.142   8.706  42.301  0.00  0.00    +0.000 OA
ATOM     15  C   UNL     1      19.228   8.873  40.761  0.00  0.00    +0.000 C 
ATOM     16  C   UNL     1      19.848   9.258  39.450  0.00  0.00    +0.000 C 
ATOM     17  C   UNL     1      21.315   9.040  39.221  0.00  0.00    +0.000 C 
ATOM     18  C   UNL     1      22.393   8.470  40.095  0.00  0.00    +0.000 C 
ATOM     19  C   UNL     1      23.679   8.503  39.324  0.00  0.00    +0.000 C 
ATOM     20  C   UNL     1      23.396   9.093  37.974  0.00  0.00    +0.000 C 
ATOM     21  O   UNL     1      24.398   9.313  36.880  0.00  0.00    +0.000 OA
ENDROOT
TORSDOF 0
ENDMDL
MODEL 10
REMARK VINA RESULT:      -6.5     30.348     33.464
REMARK  Name = 
REMARK  0 active torsions:
REMARK  status: ('A' for Active; 'I' for Inactive)
REMARK                            x       y       z     vdW  Elec       q    Type
REMARK                         _______ _______ _______ _____ _____    ______ ____
ROOT
ATOM      1  C   UNL     1      11.475  19.680  20.048  0.00  0.00    +0.000 C 
ATOM      2  C   UNL     1      11.007  20.870  20.833  0.00  0.00    +0.000 C 
ATOM      3  C   UNL     1      12.420  20.980  20.343  0.00  0.00    +0.000 C 
ATOM      4  C   UNL     1      13.228  22.205  20.652  0.00  0.00    +0.000 C 
ATOM      5  C   UNL     1      12.622  23.321  21.452  0.00  0.00    +0.000 C 
ATOM      6  C   UNL     1      13.430  24.546  21.761  0.00  0.00    +0.000 A 
ATOM      7  C   UNL     1      14.843  24.657  21.271  0.00  0.00    +0.000 A 
ATOM      8  C   UNL     1      15.651  25.882  21.580  0.00  0.00    +0.000 A 
ATOM      9  C   UNL     1      15.046  26.997  22.380  0.00  0.00    +0.000 A 
ATOM     10  O   UNL     1      15.853  28.223  22.690  0.00  0.00    +0.000 OA
ATOM     11  C   UNL     1      13.632  26.887  22.871  0.00  0.00    +0.000 A 
ATOM     12  C   UNL     1      12.824  25.661  22.561  0.00  0.00    +0.000 A 
ATOM     13  C   UNL     1      11.411  25.551  23.052  0.00  0.00    +0.000 C 
ATOM     14  O   UNL     1      10.806  26.666  23.852  0.00  0.00    +0.000 OA
ATOM     15  C   UNL     1      10.603  24.326  22.743  0.00  0.00    +0.000 C 
ATOM     16  C   UNL     1      11.209  23.211  21.943  0.00  0.00    +0.000 C 
ATOM     17  C   UNL     1      10.401  21.985  21.633  0.00  0.00    +0.000 C 
ATOM     18  C   UNL     1       8.994  21.596  21.980  0.00  0.00    +0.000 C 
ATOM     19  C   UNL     1       8.731  20.241  21.394  0.00  0.00    +0.000 C 
ATOM     20  C   UNL     1       9.974  19.792  20.686  0.00  0.00    +0.000 C 
ATOM     21  O   UNL     1      10.153  18.493  19.957  0.00  0.00    +0.000 OA
ENDROOT
TORSDOF 0
ENDMDL
