MODEL 1
REMARK VINA RESULT:      -7.5      0.000      0.000
REMARK  Name = 
REMARK  9 active torsions:
REMARK  status: ('A' for Active; 'I' for Inactive)
REMARK    1  A    between atoms: C_2  and  O_5
REMARK    2  A    between atoms: O_5  and  C_6
REMARK    3  A    between atoms: N_8  and  C_9
REMARK    4  A    between atoms: C_9  and  C_10
REMARK    5  A    between atoms: C_9  and  C_20
REMARK    6  A    between atoms: C_10  and  C_11
REMARK    7  A    between atoms: C_20  and  O_22
REMARK    8  A    between atoms: O_22  and  C_23
REMARK    9  A    between atoms: C_23  and  C_24
REMARK                            x       y       z     vdW  Elec       q    Type
REMARK                         _______ _______ _______ _____ _____    ______ ____
ROOT
ATOM      1  C   UNL     1      36.694   1.453  15.263  0.00  0.00    +0.000 C 
ENDROOT
BRANCH   1   4
ATOM      2  C   UNL     1      39.007   0.683  14.512  0.00  0.00    +0.000 C 
ATOM      3  O   UNL     1      38.886   1.191  13.387  0.00  0.00    +0.000 OA
ATOM      4  N   UNL     1      38.001   0.771  15.463  0.00  0.00    +0.000 NA
BRANCH   2   5
ATOM      5  O   UNL     1      40.220   0.023  14.748  0.00  0.00    +0.000 OA
BRANCH   5   7
ATOM      6  C   UNL     1      39.545  -1.705  13.264  0.00  0.00    +0.000 C 
ATOM      7  C   UNL     1      40.321  -1.367  14.518  0.00  0.00    +0.000 C 
ATOM      8  C   UNL     1      41.776  -1.781  14.346  0.00  0.00    +0.000 C 
ATOM      9  C   UNL     1      39.757  -2.119  15.722  0.00  0.00    +0.000 C 
ENDBRANCH   5   7
ENDBRANCH   2   5
ENDBRANCH   1   4
BRANCH   1  10
ATOM     10  C   UNL     1      36.684   2.604  16.274  0.00  0.00    +0.000 C 
ATOM     11  O   UNL     1      35.578   2.942  16.690  0.00  0.00    +0.000 OA
BRANCH  10  12
ATOM     12  O   UNL     1      37.815   3.227  16.700  0.00  0.00    +0.000 OA
BRANCH  12  13
ATOM     13  C   UNL     1      38.316   4.407  16.117  0.00  0.00    +0.000 C 
BRANCH  13  14
ATOM     14  C   UNL     1      39.219   5.144  17.047  0.00  0.00    +0.000 A 
ATOM     15  C   UNL     1      38.979   5.198  18.404  0.00  0.00    +0.000 A 
ATOM     16  C   UNL     1      39.844   5.892  19.229  0.00  0.00    +0.000 A 
ATOM     17  C   UNL     1      40.956   6.539  18.694  0.00  0.00    +0.000 A 
ATOM     18  C   UNL     1      41.191   6.482  17.335  0.00  0.00    +0.000 A 
ATOM     19  C   UNL     1      40.316   5.781  16.511  0.00  0.00    +0.000 A 
ENDBRANCH  13  14
ENDBRANCH  12  13
ENDBRANCH  10  12
ENDBRANCH   1  10
BRANCH   1  20
ATOM     20  C   UNL     1      35.563   0.507  15.742  0.00  0.00    +0.000 C 
BRANCH  20  21
ATOM     21  C   UNL     1      35.838  -0.637  16.520  0.00  0.00    +0.000 A 
ATOM     22  C   UNL     1      35.948  -0.854  17.902  0.00  0.00    +0.000 A 
ATOM     23  N   UNL     1      36.256  -2.135  18.132  0.00  0.00    +0.000 NA
ATOM     24  C   UNL     1      36.361  -2.813  16.978  0.00  0.00    +0.000 A 
ATOM     25  C   UNL     1      36.648  -4.152  16.713  0.00  0.00    +0.000 A 
ATOM     26  C   UNL     1      36.671  -4.566  15.399  0.00  0.00    +0.000 A 
ATOM     27  C   UNL     1      36.417  -3.668  14.383  0.00  0.00    +0.000 A 
ATOM     28  C   UNL     1      36.144  -2.375  14.685  0.00  0.00    +0.000 A 
ATOM     29  C   UNL     1      36.109  -1.910  15.994  0.00  0.00    +0.000 A 
ENDBRANCH  20  21
ENDBRANCH   1  20
TORSDOF 9
ENDMDL
MODEL 2
REMARK VINA RESULT:      -7.4      1.319      1.867
REMARK  Name = 
REMARK  9 active torsions:
REMARK  status: ('A' for Active; 'I' for Inactive)
REMARK    1  A    between atoms: C_2  and  O_5
REMARK    2  A    between atoms: O_5  and  C_6
REMARK    3  A    between atoms: N_8  and  C_9
REMARK    4  A    between atoms: C_9  and  C_10
REMARK    5  A    between atoms: C_9  and  C_20
REMARK    6  A    between atoms: C_10  and  C_11
REMARK    7  A    between atoms: C_20  and  O_22
REMARK    8  A    between atoms: O_22  and  C_23
REMARK    9  A    between atoms: C_23  and  C_24
REMARK                            x       y       z     vdW  Elec       q    Type
REMARK                         _______ _______ _______ _____ _____    ______ ____
ROOT
ATOM      1  C   UNL     1      35.693   0.469  15.670  0.00  0.00    +0.000 C 
ENDROOT
BRANCH   1   4
ATOM      2  C   UNL     1      37.545   0.119  13.951  0.00  0.00    +0.000 C 
ATOM      3  O   UNL     1      36.774   0.262  12.991  0.00  0.00    +0.000 OA
ATOM      4  N   UNL     1      37.099   0.208  15.263  0.00  0.00    +0.000 NA
BRANCH   2   5
ATOM      5  O   UNL     1      38.882  -0.134  13.620  0.00  0.00    +0.000 OA
BRANCH   5   7
ATOM      6  C   UNL     1      39.849  -1.631  15.191  0.00  0.00    +0.000 C 
ATOM      7  C   UNL     1      39.406  -1.439  13.758  0.00  0.00    +0.000 C 
ATOM      8  C   UNL     1      38.355  -2.481  13.403  0.00  0.00    +0.000 C 
ATOM      9  C   UNL     1      40.583  -1.613  12.800  0.00  0.00    +0.000 C 
ENDBRANCH   5   7
ENDBRANCH   2   5
ENDBRANCH   1   4
BRANCH   1  10
ATOM     10  C   UNL     1      35.716   1.852  16.330  0.00  0.00    +0.000 C 
ATOM     11  O   UNL     1      34.620   2.334  16.604  0.00  0.00    +0.000 OA
BRANCH  10  12
ATOM     12  O   UNL     1      36.867   2.521  16.606  0.00  0.00    +0.000 OA
BRANCH  12  13
ATOM     13  C   UNL     1      37.314   3.633  15.865  0.00  0.00    +0.000 C 
BRANCH  13  14
ATOM     14  C   UNL     1      38.303   4.445  16.628  0.00  0.00    +0.000 A 
ATOM     15  C   UNL     1      38.249   4.558  18.001  0.00  0.00    +0.000 A 
ATOM     16  C   UNL     1      39.188   5.322  18.668  0.00  0.00    +0.000 A 
ATOM     17  C   UNL     1      40.189   5.980  17.957  0.00  0.00    +0.000 A 
ATOM     18  C   UNL     1      40.239   5.864  16.582  0.00  0.00    +0.000 A 
ATOM     19  C   UNL     1      39.290   5.093  15.919  0.00  0.00    +0.000 A 
ENDBRANCH  13  14
ENDBRANCH  12  13
ENDBRANCH  10  12
ENDBRANCH   1  10
BRANCH   1  20
ATOM     20  C   UNL     1      35.322  -0.502  16.820  0.00  0.00    +0.000 C 
BRANCH  20  21
ATOM     21  C   UNL     1      36.303  -1.031  17.685  0.00  0.00    +0.000 A 
ATOM     22  C   UNL     1      36.925  -0.542  18.844  0.00  0.00    +0.000 A 
ATOM     23  N   UNL     1      37.822  -1.432  19.281  0.00  0.00    +0.000 NA
ATOM     24  C   UNL     1      37.850  -2.511  18.482  0.00  0.00    +0.000 A 
ATOM     25  C   UNL     1      38.601  -3.685  18.537  0.00  0.00    +0.000 A 
ATOM     26  C   UNL     1      38.393  -4.637  17.564  0.00  0.00    +0.000 A 
ATOM     27  C   UNL     1      37.463  -4.422  16.567  0.00  0.00    +0.000 A 
ATOM     28  C   UNL     1      36.755  -3.265  16.551  0.00  0.00    +0.000 A 
ATOM     29  C   UNL     1      36.931  -2.275  17.510  0.00  0.00    +0.000 A 
ENDBRANCH  20  21
ENDBRANCH   1  20
TORSDOF 9
ENDMDL
MODEL 3
REMARK VINA RESULT:      -7.3      2.101      7.769
REMARK  Name = 
REMARK  9 active torsions:
REMARK  status: ('A' for Active; 'I' for Inactive)
REMARK    1  A    between atoms: C_2  and  O_5
REMARK    2  A    between atoms: O_5  and  C_6
REMARK    3  A    between atoms: N_8  and  C_9
REMARK    4  A    between atoms: C_9  and  C_10
REMARK    5  A    between atoms: C_9  and  C_20
REMARK    6  A    between atoms: C_10  and  C_11
REMARK    7  A    between atoms: C_20  and  O_22
REMARK    8  A    between atoms: O_22  and  C_23
REMARK    9  A    between atoms: C_23  and  C_24
REMARK                            x       y       z     vdW  Elec       q    Type
REMARK                         _______ _______ _______ _____ _____    ______ ____
ROOT
ATOM      1  C   UNL     1      37.226   3.508  16.191  0.00  0.00    +0.000 C 
ENDROOT
BRANCH   1   4
ATOM      2  C   UNL     1      35.406   1.878  16.923  0.00  0.00    +0.000 C 
ATOM      3  O   UNL     1      34.546   2.409  16.205  0.00  0.00    +0.000 OA
ATOM      4  N   UNL     1      36.711   2.347  16.967  0.00  0.00    +0.000 NA
BRANCH   2   5
ATOM      5  O   UNL     1      34.968   0.782  17.678  0.00  0.00    +0.000 OA
BRANCH   5   7
ATOM      6  C   UNL     1      34.104  -1.422  17.474  0.00  0.00    +0.000 C 
ATOM      7  C   UNL     1      35.309  -0.529  17.277  0.00  0.00    +0.000 C 
ATOM      8  C   UNL     1      35.729  -0.553  15.814  0.00  0.00    +0.000 C 
ATOM      9  C   UNL     1      36.488  -1.021  18.114  0.00  0.00    +0.000 C 
ENDBRANCH   5   7
ENDBRANCH   2   5
ENDBRANCH   1   4
BRANCH   1  10
ATOM     10  C   UNL     1      38.077   2.896  15.073  0.00  0.00    +0.000 C 
ATOM     11  O   UNL     1      38.252   3.605  14.085  0.00  0.00    +0.000 OA
BRANCH  10  12
ATOM     12  O   UNL     1      38.616   1.651  15.148  0.00  0.00    +0.000 OA
BRANCH  12  13
ATOM     13  C   UNL     1      39.743   1.248  14.405  0.00  0.00    +0.000 C 
BRANCH  13  14
ATOM     14  C   UNL     1      40.077  -0.186  14.642  0.00  0.00    +0.000 A 
ATOM     15  C   UNL     1      39.241  -1.022  15.350  0.00  0.00    +0.000 A 
ATOM     16  C   UNL     1      39.591  -2.345  15.544  0.00  0.00    +0.000 A 
ATOM     17  C   UNL     1      40.788  -2.836  15.029  0.00  0.00    +0.000 A 
ATOM     18  C   UNL     1      41.623  -1.994  14.321  0.00  0.00    +0.000 A 
ATOM     19  C   UNL     1      41.263  -0.664  14.129  0.00  0.00    +0.000 A 
ENDBRANCH  13  14
ENDBRANCH  12  13
ENDBRANCH  10  12
ENDBRANCH   1  10
BRANCH   1  20
ATOM     20  C   UNL     1      38.243   4.279  17.072  0.00  0.00    +0.000 C 
BRANCH  20  21
ATOM     21  C   UNL     1      38.317   5.688  17.051  0.00  0.00    +0.000 A 
ATOM     22  C   UNL     1      37.949   6.654  16.102  0.00  0.00    +0.000 A 
ATOM     23  N   UNL     1      38.259   7.872  16.560  0.00  0.00    +0.000 NA
ATOM     24  C   UNL     1      38.821   7.795  17.777  0.00  0.00    +0.000 A 
ATOM     25  C   UNL     1      39.292   8.780  18.644  0.00  0.00    +0.000 A 
ATOM     26  C   UNL     1      39.813   8.386  19.857  0.00  0.00    +0.000 A 
ATOM     27  C   UNL     1      39.862   7.048  20.191  0.00  0.00    +0.000 A 
ATOM     28  C   UNL     1      39.394   6.123  19.317  0.00  0.00    +0.000 A 
ATOM     29  C   UNL     1      38.861   6.472  18.082  0.00  0.00    +0.000 A 
ENDBRANCH  20  21
ENDBRANCH   1  20
TORSDOF 9
ENDMDL
MODEL 4
REMARK VINA RESULT:      -7.3      2.414      5.996
REMARK  Name = 
REMARK  9 active torsions:
REMARK  status: ('A' for Active; 'I' for Inactive)
REMARK    1  A    between atoms: C_2  and  O_5
REMARK    2  A    between atoms: O_5  and  C_6
REMARK    3  A    between atoms: N_8  and  C_9
REMARK    4  A    between atoms: C_9  and  C_10
REMARK    5  A    between atoms: C_9  and  C_20
REMARK    6  A    between atoms: C_10  and  C_11
REMARK    7  A    between atoms: C_20  and  O_22
REMARK    8  A    between atoms: O_22  and  C_23
REMARK    9  A    between atoms: C_23  and  C_24
REMARK                            x       y       z     vdW  Elec       q    Type
REMARK                         _______ _______ _______ _____ _____    ______ ____
ROOT
ATOM      1  C   UNL     1      37.713   3.033  14.810  0.00  0.00    +0.000 C 
ENDROOT
BRANCH   1   4
ATOM      2  C   UNL     1      39.219   4.920  15.632  0.00  0.00    +0.000 C 
ATOM      3  O   UNL     1      38.916   5.665  14.688  0.00  0.00    +0.000 OA
ATOM      4  N   UNL     1      38.681   3.647  15.758  0.00  0.00    +0.000 NA
BRANCH   2   5
ATOM      5  O   UNL     1      40.133   5.452  16.551  0.00  0.00    +0.000 OA
BRANCH   5   7
ATOM      6  C   UNL     1      40.871   6.348  18.624  0.00  0.00    +0.000 C 
ATOM      7  C   UNL     1      39.673   5.962  17.785  0.00  0.00    +0.000 C 
ATOM      8  C   UNL     1      38.787   7.181  17.568  0.00  0.00    +0.000 C 
ATOM      9  C   UNL     1      38.839   4.894  18.491  0.00  0.00    +0.000 C 
ENDBRANCH   5   7
ENDBRANCH   2   5
ENDBRANCH   1   4
BRANCH   1  10
ATOM     10  C   UNL     1      36.331   3.305  15.415  0.00  0.00    +0.000 C 
ATOM     11  O   UNL     1      35.599   4.049  14.766  0.00  0.00    +0.000 OA
BRANCH  10  12
ATOM     12  O   UNL     1      35.920   2.767  16.593  0.00  0.00    +0.000 OA
BRANCH  12  13
ATOM     13  C   UNL     1      34.884   1.817  16.692  0.00  0.00    +0.000 C 
BRANCH  13  14
ATOM     14  C   UNL     1      35.365   0.535  17.282  0.00  0.00    +0.000 A 
ATOM     15  C   UNL     1      36.164   0.503  18.404  0.00  0.00    +0.000 A 
ATOM     16  C   UNL     1      36.586  -0.709  18.917  0.00  0.00    +0.000 A 
ATOM     17  C   UNL     1      36.207  -1.900  18.302  0.00  0.00    +0.000 A 
ATOM     18  C   UNL     1      35.407  -1.863  17.177  0.00  0.00    +0.000 A 
ATOM     19  C   UNL     1      34.986  -0.639  16.668  0.00  0.00    +0.000 A 
ENDBRANCH  13  14
ENDBRANCH  12  13
ENDBRANCH  10  12
ENDBRANCH   1  10
BRANCH   1  20
ATOM     20  C   UNL     1      37.866   1.491  14.875  0.00  0.00    +0.000 C 
BRANCH  20  21
ATOM     21  C   UNL     1      39.073   0.854  14.518  0.00  0.00    +0.000 A 
ATOM     22  C   UNL     1      40.173   1.248  13.742  0.00  0.00    +0.000 A 
ATOM     23  N   UNL     1      41.063   0.252  13.686  0.00  0.00    +0.000 NA
ATOM     24  C   UNL     1      40.633  -0.810  14.388  0.00  0.00    +0.000 A 
ATOM     25  C   UNL     1      41.210  -2.056  14.629  0.00  0.00    +0.000 A 
ATOM     26  C   UNL     1      40.521  -2.952  15.416  0.00  0.00    +0.000 A 
ATOM     27  C   UNL     1      39.294  -2.611  15.945  0.00  0.00    +0.000 A 
ATOM     28  C   UNL     1      38.769  -1.389  15.685  0.00  0.00    +0.000 A 
ATOM     29  C   UNL     1      39.425  -0.452  14.896  0.00  0.00    +0.000 A 
ENDBRANCH  20  21
ENDBRANCH   1  20
TORSDOF 9
ENDMDL
MODEL 5
REMARK VINA RESULT:      -7.2      1.583      5.548
REMARK  Name = 
REMARK  9 active torsions:
REMARK  status: ('A' for Active; 'I' for Inactive)
REMARK    1  A    between atoms: C_2  and  O_5
REMARK    2  A    between atoms: O_5  and  C_6
REMARK    3  A    between atoms: N_8  and  C_9
REMARK    4  A    between atoms: C_9  and  C_10
REMARK    5  A    between atoms: C_9  and  C_20
REMARK    6  A    between atoms: C_10  and  C_11
REMARK    7  A    between atoms: C_20  and  O_22
REMARK    8  A    between atoms: O_22  and  C_23
REMARK    9  A    between atoms: C_23  and  C_24
REMARK                            x       y       z     vdW  Elec       q    Type
REMARK                         _______ _______ _______ _____ _____    ______ ____
ROOT
ATOM      1  C   UNL     1      36.813   2.205  15.975  0.00  0.00    +0.000 C 
ENDROOT
BRANCH   1   4
ATOM      2  C   UNL     1      38.042   4.438  16.066  0.00  0.00    +0.000 C 
ATOM      3  O   UNL     1      39.041   3.989  15.485  0.00  0.00    +0.000 OA
ATOM      4  N   UNL     1      36.935   3.644  16.333  0.00  0.00    +0.000 NA
BRANCH   2   5
ATOM      5  O   UNL     1      38.110   5.790  16.429  0.00  0.00    +0.000 OA
BRANCH   5   7
ATOM      6  C   UNL     1      38.135   7.327  18.240  0.00  0.00    +0.000 C 
ATOM      7  C   UNL     1      38.849   6.175  17.570  0.00  0.00    +0.000 C 
ATOM      8  C   UNL     1      38.977   5.014  18.546  0.00  0.00    +0.000 C 
ATOM      9  C   UNL     1      40.257   6.587  17.142  0.00  0.00    +0.000 C 
ENDBRANCH   5   7
ENDBRANCH   2   5
ENDBRANCH   1   4
BRANCH   1  10
ATOM     10  C   UNL     1      36.137   2.190  14.600  0.00  0.00    +0.000 C 
ATOM     11  O   UNL     1      35.129   2.884  14.491  0.00  0.00    +0.000 OA
BRANCH  10  12
ATOM     12  O   UNL     1      36.606   1.462  13.552  0.00  0.00    +0.000 OA
BRANCH  12  13
ATOM     13  C   UNL     1      37.977   1.289  13.281  0.00  0.00    +0.000 C 
BRANCH  13  14
ATOM     14  C   UNL     1      38.458  -0.059  13.699  0.00  0.00    +0.000 A 
ATOM     15  C   UNL     1      39.122  -0.258  14.890  0.00  0.00    +0.000 A 
ATOM     16  C   UNL     1      39.550  -1.526  15.238  0.00  0.00    +0.000 A 
ATOM     17  C   UNL     1      39.312  -2.603  14.387  0.00  0.00    +0.000 A 
ATOM     18  C   UNL     1      38.647  -2.399  13.195  0.00  0.00    +0.000 A 
ATOM     19  C   UNL     1      38.220  -1.119  12.853  0.00  0.00    +0.000 A 
ENDBRANCH  13  14
ENDBRANCH  12  13
ENDBRANCH  10  12
ENDBRANCH   1  10
BRANCH   1  20
ATOM     20  C   UNL     1      35.776   1.546  16.922  0.00  0.00    +0.000 C 
BRANCH  20  21
ATOM     21  C   UNL     1      36.043   0.323  17.571  0.00  0.00    +0.000 A 
ATOM     22  C   UNL     1      36.421  -0.006  18.882  0.00  0.00    +0.000 A 
ATOM     23  N   UNL     1      36.578  -1.330  18.985  0.00  0.00    +0.000 NA
ATOM     24  C   UNL     1      36.325  -1.932  17.811  0.00  0.00    +0.000 A 
ATOM     25  C   UNL     1      36.344  -3.275  17.435  0.00  0.00    +0.000 A 
ATOM     26  C   UNL     1      36.016  -3.593  16.136  0.00  0.00    +0.000 A 
ATOM     27  C   UNL     1      35.680  -2.598  15.241  0.00  0.00    +0.000 A 
ATOM     28  C   UNL     1      35.675  -1.305  15.648  0.00  0.00    +0.000 A 
ATOM     29  C   UNL     1      35.999  -0.935  16.948  0.00  0.00    +0.000 A 
ENDBRANCH  20  21
ENDBRANCH   1  20
TORSDOF 9
ENDMDL
MODEL 6
REMARK VINA RESULT:      -7.2      2.126      6.520
REMARK  Name = 
REMARK  9 active torsions:
REMARK  status: ('A' for Active; 'I' for Inactive)
REMARK    1  A    between atoms: C_2  and  O_5
REMARK    2  A    between atoms: O_5  and  C_6
REMARK    3  A    between atoms: N_8  and  C_9
REMARK    4  A    between atoms: C_9  and  C_10
REMARK    5  A    between atoms: C_9  and  C_20
REMARK    6  A    between atoms: C_10  and  C_11
REMARK    7  A    between atoms: C_20  and  O_22
REMARK    8  A    between atoms: O_22  and  C_23
REMARK    9  A    between atoms: C_23  and  C_24
REMARK                            x       y       z     vdW  Elec       q    Type
REMARK                         _______ _______ _______ _____ _____    ______ ____
ROOT
ATOM      1  C   UNL     1      37.413   3.517  16.060  0.00  0.00    +0.000 C 
ENDROOT
BRANCH   1   4
ATOM      2  C   UNL     1      39.109   5.098  17.123  0.00  0.00    +0.000 C 
ATOM      3  O   UNL     1      39.416   5.609  16.036  0.00  0.00    +0.000 OA
ATOM      4  N   UNL     1      38.156   4.093  17.213  0.00  0.00    +0.000 NA
BRANCH   2   5
ATOM      5  O   UNL     1      39.787   5.604  18.240  0.00  0.00    +0.000 OA
BRANCH   5   7
ATOM      6  C   UNL     1      39.866   7.015  20.150  0.00  0.00    +0.000 C 
ATOM      7  C   UNL     1      39.534   6.923  18.677  0.00  0.00    +0.000 C 
ATOM      8  C   UNL     1      40.382   7.920  17.900  0.00  0.00    +0.000 C 
ATOM      9  C   UNL     1      38.065   7.262  18.432  0.00  0.00    +0.000 C 
ENDBRANCH   5   7
ENDBRANCH   2   5
ENDBRANCH   1   4
BRANCH   1  10
ATOM     10  C   UNL     1      36.359   2.595  16.684  0.00  0.00    +0.000 C 
ATOM     11  O   UNL     1      35.195   2.817  16.360  0.00  0.00    +0.000 OA
BRANCH  10  12
ATOM     12  O   UNL     1      36.670   1.589  17.542  0.00  0.00    +0.000 OA
BRANCH  12  13
ATOM     13  C   UNL     1      35.729   0.650  18.009  0.00  0.00    +0.000 C 
BRANCH  13  14
ATOM     14  C   UNL     1      35.959  -0.702  17.423  0.00  0.00    +0.000 A 
ATOM     15  C   UNL     1      35.256  -1.149  16.325  0.00  0.00    +0.000 A 
ATOM     16  C   UNL     1      35.503  -2.410  15.815  0.00  0.00    +0.000 A 
ATOM     17  C   UNL     1      36.459  -3.231  16.409  0.00  0.00    +0.000 A 
ATOM     18  C   UNL     1      37.159  -2.780  17.509  0.00  0.00    +0.000 A 
ATOM     19  C   UNL     1      36.905  -1.509  18.016  0.00  0.00    +0.000 A 
ENDBRANCH  13  14
ENDBRANCH  12  13
ENDBRANCH  10  12
ENDBRANCH   1  10
BRANCH   1  20
ATOM     20  C   UNL     1      38.358   2.558  15.291  0.00  0.00    +0.000 C 
BRANCH  20  21
ATOM     21  C   UNL     1      37.856   1.575  14.413  0.00  0.00    +0.000 A 
ATOM     22  C   UNL     1      36.851   1.586  13.434  0.00  0.00    +0.000 A 
ATOM     23  N   UNL     1      36.742   0.369  12.889  0.00  0.00    +0.000 NA
ATOM     24  C   UNL     1      37.624  -0.480  13.442  0.00  0.00    +0.000 A 
ATOM     25  C   UNL     1      37.890  -1.827  13.198  0.00  0.00    +0.000 A 
ATOM     26  C   UNL     1      38.885  -2.437  13.929  0.00  0.00    +0.000 A 
ATOM     27  C   UNL     1      39.592  -1.721  14.874  0.00  0.00    +0.000 A 
ATOM     28  C   UNL     1      39.300  -0.414  15.079  0.00  0.00    +0.000 A 
ATOM     29  C   UNL     1      38.304   0.245  14.368  0.00  0.00    +0.000 A 
ENDBRANCH  20  21
ENDBRANCH   1  20
TORSDOF 9
ENDMDL
MODEL 7
REMARK VINA RESULT:      -7.0      2.014      6.114
REMARK  Name = 
REMARK  9 active torsions:
REMARK  status: ('A' for Active; 'I' for Inactive)
REMARK    1  A    between atoms: C_2  and  O_5
REMARK    2  A    between atoms: O_5  and  C_6
REMARK    3  A    between atoms: N_8  and  C_9
REMARK    4  A    between atoms: C_9  and  C_10
REMARK    5  A    between atoms: C_9  and  C_20
REMARK    6  A    between atoms: C_10  and  C_11
REMARK    7  A    between atoms: C_20  and  O_22
REMARK    8  A    between atoms: O_22  and  C_23
REMARK    9  A    between atoms: C_23  and  C_24
REMARK                            x       y       z     vdW  Elec       q    Type
REMARK                         _______ _______ _______ _____ _____    ______ ____
ROOT
ATOM      1  C   UNL     1      36.278   1.481  15.514  0.00  0.00    +0.000 C 
ENDROOT
BRANCH   1   4
ATOM      2  C   UNL     1      37.745   3.566  15.447  0.00  0.00    +0.000 C 
ATOM      3  O   UNL     1      36.842   4.270  14.972  0.00  0.00    +0.000 OA
ATOM      4  N   UNL     1      37.548   2.223  15.736  0.00  0.00    +0.000 NA
BRANCH   2   5
ATOM      5  O   UNL     1      38.965   4.220  15.670  0.00  0.00    +0.000 OA
BRANCH   5   7
ATOM      6  C   UNL     1      38.612   4.716  17.967  0.00  0.00    +0.000 C 
ATOM      7  C   UNL     1      39.040   5.261  16.622  0.00  0.00    +0.000 C 
ATOM      8  C   UNL     1      40.461   5.801  16.719  0.00  0.00    +0.000 C 
ATOM      9  C   UNL     1      38.130   6.407  16.188  0.00  0.00    +0.000 C 
ENDBRANCH   5   7
ENDBRANCH   2   5
ENDBRANCH   1   4
BRANCH   1  10
ATOM     10  C   UNL     1      35.678   1.288  16.911  0.00  0.00    +0.000 C 
ATOM     11  O   UNL     1      34.488   1.571  17.026  0.00  0.00    +0.000 OA
BRANCH  10  12
ATOM     12  O   UNL     1      36.397   0.832  17.970  0.00  0.00    +0.000 OA
BRANCH  12  13
ATOM     13  C   UNL     1      36.008  -0.273  18.753  0.00  0.00    +0.000 C 
BRANCH  13  14
ATOM     14  C   UNL     1      36.756  -1.507  18.378  0.00  0.00    +0.000 A 
ATOM     15  C   UNL     1      37.988  -1.806  18.921  0.00  0.00    +0.000 A 
ATOM     16  C   UNL     1      38.645  -2.962  18.545  0.00  0.00    +0.000 A 
ATOM     17  C   UNL     1      38.068  -3.825  17.617  0.00  0.00    +0.000 A 
ATOM     18  C   UNL     1      36.835  -3.521  17.075  0.00  0.00    +0.000 A 
ATOM     19  C   UNL     1      36.180  -2.356  17.460  0.00  0.00    +0.000 A 
ENDBRANCH  13  14
ENDBRANCH  12  13
ENDBRANCH  10  12
ENDBRANCH   1  10
BRANCH   1  20
ATOM     20  C   UNL     1      36.621   0.045  15.039  0.00  0.00    +0.000 C 
BRANCH  20  21
ATOM     21  C   UNL     1      37.518  -0.186  13.975  0.00  0.00    +0.000 A 
ATOM     22  C   UNL     1      37.491   0.138  12.610  0.00  0.00    +0.000 A 
ATOM     23  N   UNL     1      38.589  -0.339  12.014  0.00  0.00    +0.000 NA
ATOM     24  C   UNL     1      39.374  -0.973  12.900  0.00  0.00    +0.000 A 
ATOM     25  C   UNL     1      40.606  -1.611  12.757  0.00  0.00    +0.000 A 
ATOM     26  C   UNL     1      41.185  -2.169  13.875  0.00  0.00    +0.000 A 
ATOM     27  C   UNL     1      40.552  -2.090  15.098  0.00  0.00    +0.000 A 
ATOM     28  C   UNL     1      39.354  -1.461  15.193  0.00  0.00    +0.000 A 
ATOM     29  C   UNL     1      38.730  -0.885  14.093  0.00  0.00    +0.000 A 
ENDBRANCH  20  21
ENDBRANCH   1  20
TORSDOF 9
ENDMDL
MODEL 8
REMARK VINA RESULT:      -7.0      1.586      6.723
REMARK  Name = 
REMARK  9 active torsions:
REMARK  status: ('A' for Active; 'I' for Inactive)
REMARK    1  A    between atoms: C_2  and  O_5
REMARK    2  A    between atoms: O_5  and  C_6
REMARK    3  A    between atoms: N_8  and  C_9
REMARK    4  A    between atoms: C_9  and  C_10
REMARK    5  A    between atoms: C_9  and  C_20
REMARK    6  A    between atoms: C_10  and  C_11
REMARK    7  A    between atoms: C_20  and  O_22
REMARK    8  A    between atoms: O_22  and  C_23
REMARK    9  A    between atoms: C_23  and  C_24
REMARK                            x       y       z     vdW  Elec       q    Type
REMARK                         _______ _______ _______ _____ _____    ______ ____
ROOT
ATOM      1  C   UNL     1      36.816   1.803  16.516  0.00  0.00    +0.000 C 
ENDROOT
BRANCH   1   4
ATOM      2  C   UNL     1      38.195   0.671  14.693  0.00  0.00    +0.000 C 
ATOM      3  O   UNL     1      39.267   1.105  15.140  0.00  0.00    +0.000 OA
ATOM      4  N   UNL     1      36.981   0.962  15.300  0.00  0.00    +0.000 NA
BRANCH   2   5
ATOM      5  O   UNL     1      38.297  -0.123  13.543  0.00  0.00    +0.000 OA
BRANCH   5   7
ATOM      6  C   UNL     1      39.344  -1.944  12.431  0.00  0.00    +0.000 C 
ATOM      7  C   UNL     1      38.589  -1.500  13.665  0.00  0.00    +0.000 C 
ATOM      8  C   UNL     1      39.433  -1.765  14.903  0.00  0.00    +0.000 C 
ATOM      9  C   UNL     1      37.284  -2.280  13.810  0.00  0.00    +0.000 C 
ENDBRANCH   5   7
ENDBRANCH   2   5
ENDBRANCH   1   4
BRANCH   1  10
ATOM     10  C   UNL     1      35.457   1.401  17.099  0.00  0.00    +0.000 C 
ATOM     11  O   UNL     1      34.478   1.964  16.616  0.00  0.00    +0.000 OA
BRANCH  10  12
ATOM     12  O   UNL     1      35.319   0.480  18.089  0.00  0.00    +0.000 OA
BRANCH  12  13
ATOM     13  C   UNL     1      35.002  -0.872  17.852  0.00  0.00    +0.000 C 
BRANCH  13  14
ATOM     14  C   UNL     1      36.202  -1.750  17.960  0.00  0.00    +0.000 A 
ATOM     15  C   UNL     1      37.248  -1.452  18.808  0.00  0.00    +0.000 A 
ATOM     16  C   UNL     1      38.342  -2.295  18.876  0.00  0.00    +0.000 A 
ATOM     17  C   UNL     1      38.391  -3.444  18.090  0.00  0.00    +0.000 A 
ATOM     18  C   UNL     1      37.342  -3.737  17.242  0.00  0.00    +0.000 A 
ATOM     19  C   UNL     1      36.245  -2.884  17.180  0.00  0.00    +0.000 A 
ENDBRANCH  13  14
ENDBRANCH  12  13
ENDBRANCH  10  12
ENDBRANCH   1  10
BRANCH   1  20
ATOM     20  C   UNL     1      36.625   3.278  16.075  0.00  0.00    +0.000 C 
BRANCH  20  21
ATOM     21  C   UNL     1      37.725   4.096  15.743  0.00  0.00    +0.000 A 
ATOM     22  C   UNL     1      38.298   4.485  14.523  0.00  0.00    +0.000 A 
ATOM     23  N   UNL     1      39.362   5.261  14.755  0.00  0.00    +0.000 NA
ATOM     24  C   UNL     1      39.551   5.430  16.074  0.00  0.00    +0.000 A 
ATOM     25  C   UNL     1      40.505   6.153  16.789  0.00  0.00    +0.000 A 
ATOM     26  C   UNL     1      40.431   6.148  18.163  0.00  0.00    +0.000 A 
ATOM     27  C   UNL     1      39.433   5.441  18.803  0.00  0.00    +0.000 A 
ATOM     28  C   UNL     1      38.526   4.751  18.070  0.00  0.00    +0.000 A 
ATOM     29  C   UNL     1      38.560   4.725  16.681  0.00  0.00    +0.000 A 
ENDBRANCH  20  21
ENDBRANCH   1  20
TORSDOF 9
ENDMDL
MODEL 9
REMARK VINA RESULT:      -6.9      1.358      2.224
REMARK  Name = 
REMARK  9 active torsions:
REMARK  status: ('A' for Active; 'I' for Inactive)
REMARK    1  A    between atoms: C_2  and  O_5
REMARK    2  A    between atoms: O_5  and  C_6
REMARK    3  A    between atoms: N_8  and  C_9
REMARK    4  A    between atoms: C_9  and  C_10
REMARK    5  A    between atoms: C_9  and  C_20
REMARK    6  A    between atoms: C_10  and  C_11
REMARK    7  A    between atoms: C_20  and  O_22
REMARK    8  A    between atoms: O_22  and  C_23
REMARK    9  A    between atoms: C_23  and  C_24
REMARK                            x       y       z     vdW  Elec       q    Type
REMARK                         _______ _______ _______ _____ _____    ______ ____
ROOT
ATOM      1  C   UNL     1      37.286   0.637  14.908  0.00  0.00    +0.000 C 
ENDROOT
BRANCH   1   4
ATOM      2  C   UNL     1      39.719   0.372  14.189  0.00  0.00    +0.000 C 
ATOM      3  O   UNL     1      39.499   0.805  13.048  0.00  0.00    +0.000 OA
ATOM      4  N   UNL     1      38.709   0.266  15.135  0.00  0.00    +0.000 NA
BRANCH   2   5
ATOM      5  O   UNL     1      41.045   0.004  14.451  0.00  0.00    +0.000 OA
BRANCH   5   7
ATOM      6  C   UNL     1      40.698  -2.296  14.932  0.00  0.00    +0.000 C 
ATOM      7  C   UNL     1      41.492  -1.295  14.122  0.00  0.00    +0.000 C 
ATOM      8  C   UNL     1      41.300  -1.571  12.638  0.00  0.00    +0.000 C 
ATOM      9  C   UNL     1      42.983  -1.408  14.433  0.00  0.00    +0.000 C 
ENDBRANCH   5   7
ENDBRANCH   2   5
ENDBRANCH   1   4
BRANCH   1  10
ATOM     10  C   UNL     1      37.059   1.892  15.757  0.00  0.00    +0.000 C 
ATOM     11  O   UNL     1      35.932   2.024  16.227  0.00  0.00    +0.000 OA
BRANCH  10  12
ATOM     12  O   UNL     1      38.029   2.815  15.988  0.00  0.00    +0.000 OA
BRANCH  12  13
ATOM     13  C   UNL     1      37.792   4.204  15.993  0.00  0.00    +0.000 C 
BRANCH  13  14
ATOM     14  C   UNL     1      38.828   4.939  16.773  0.00  0.00    +0.000 A 
ATOM     15  C   UNL     1      39.908   5.542  16.163  0.00  0.00    +0.000 A 
ATOM     16  C   UNL     1      40.845   6.213  16.926  0.00  0.00    +0.000 A 
ATOM     17  C   UNL     1      40.702   6.282  18.310  0.00  0.00    +0.000 A 
ATOM     18  C   UNL     1      39.620   5.677  18.916  0.00  0.00    +0.000 A 
ATOM     19  C   UNL     1      38.681   5.003  18.141  0.00  0.00    +0.000 A 
ENDBRANCH  13  14
ENDBRANCH  12  13
ENDBRANCH  10  12
ENDBRANCH   1  10
BRANCH   1  20
ATOM     20  C   UNL     1      36.383  -0.441  15.564  0.00  0.00    +0.000 C 
BRANCH  20  21
ATOM     21  C   UNL     1      36.720  -1.810  15.523  0.00  0.00    +0.000 A 
ATOM     22  C   UNL     1      36.511  -2.822  14.574  0.00  0.00    +0.000 A 
ATOM     23  N   UNL     1      37.008  -3.976  15.032  0.00  0.00    +0.000 NA
ATOM     24  C   UNL     1      37.551  -3.811  16.249  0.00  0.00    +0.000 A 
ATOM     25  C   UNL     1      38.190  -4.704  17.108  0.00  0.00    +0.000 A 
ATOM     26  C   UNL     1      38.665  -4.227  18.309  0.00  0.00    +0.000 A 
ATOM     27  C   UNL     1      38.506  -2.898  18.641  0.00  0.00    +0.000 A 
ATOM     28  C   UNL     1      37.877  -2.063  17.777  0.00  0.00    +0.000 A 
ATOM     29  C   UNL     1      37.380  -2.498  16.554  0.00  0.00    +0.000 A 
ENDBRANCH  20  21
ENDBRANCH   1  20
TORSDOF 9
ENDMDL
MODEL 10
REMARK VINA RESULT:      -6.7      2.239      4.332
REMARK  Name = 
REMARK  9 active torsions:
REMARK  status: ('A' for Active; 'I' for Inactive)
REMARK    1  A    between atoms: C_2  and  O_5
REMARK    2  A    between atoms: O_5  and  C_6
REMARK    3  A    between atoms: N_8  and  C_9
REMARK    4  A    between atoms: C_9  and  C_10
REMARK    5  A    between atoms: C_9  and  C_20
REMARK    6  A    between atoms: C_10  and  C_11
REMARK    7  A    between atoms: C_20  and  O_22
REMARK    8  A    between atoms: O_22  and  C_23
REMARK    9  A    between atoms: C_23  and  C_24
REMARK                            x       y       z     vdW  Elec       q    Type
REMARK                         _______ _______ _______ _____ _____    ______ ____
ROOT
ATOM      1  C   UNL     1      36.777  -0.357  16.790  0.00  0.00    +0.000 C 
ENDROOT
BRANCH   1   4
ATOM      2  C   UNL     1      35.584  -2.607  16.644  0.00  0.00    +0.000 C 
ATOM      3  O   UNL     1      36.327  -3.132  17.486  0.00  0.00    +0.000 OA
ATOM      4  N   UNL     1      35.738  -1.282  16.262  0.00  0.00    +0.000 NA
BRANCH   2   5
ATOM      5  O   UNL     1      34.590  -3.439  16.113  0.00  0.00    +0.000 OA
BRANCH   5   7
ATOM      6  C   UNL     1      35.234  -5.708  15.820  0.00  0.00    +0.000 C 
ATOM      7  C   UNL     1      34.927  -4.397  15.130  0.00  0.00    +0.000 C 
ATOM      8  C   UNL     1      33.777  -4.592  14.152  0.00  0.00    +0.000 C 
ATOM      9  C   UNL     1      36.138  -3.904  14.341  0.00  0.00    +0.000 C 
ENDBRANCH   5   7
ENDBRANCH   2   5
ENDBRANCH   1   4
BRANCH   1  10
ATOM     10  C   UNL     1      36.087   1.008  16.888  0.00  0.00    +0.000 C 
ATOM     11  O   UNL     1      34.889   1.023  16.616  0.00  0.00    +0.000 OA
BRANCH  10  12
ATOM     12  O   UNL     1      36.740   2.143  17.251  0.00  0.00    +0.000 OA
BRANCH  12  13
ATOM     13  C   UNL     1      36.743   3.318  16.474  0.00  0.00    +0.000 C 
BRANCH  13  14
ATOM     14  C   UNL     1      37.917   4.183  16.783  0.00  0.00    +0.000 A 
ATOM     15  C   UNL     1      38.745   4.669  15.794  0.00  0.00    +0.000 A 
ATOM     16  C   UNL     1      39.822   5.469  16.127  0.00  0.00    +0.000 A 
ATOM     17  C   UNL     1      40.075   5.784  17.460  0.00  0.00    +0.000 A 
ATOM     18  C   UNL     1      39.244   5.294  18.447  0.00  0.00    +0.000 A 
ATOM     19  C   UNL     1      38.161   4.491  18.103  0.00  0.00    +0.000 A 
ENDBRANCH  13  14
ENDBRANCH  12  13
ENDBRANCH  10  12
ENDBRANCH   1  10
BRANCH   1  20
ATOM     20  C   UNL     1      37.865  -0.163  15.701  0.00  0.00    +0.000 C 
BRANCH  20  21
ATOM     21  C   UNL     1      38.742  -1.207  15.341  0.00  0.00    +0.000 A 
ATOM     22  C   UNL     1      39.420  -2.189  16.079  0.00  0.00    +0.000 A 
ATOM     23  N   UNL     1      40.163  -2.936  15.256  0.00  0.00    +0.000 NA
ATOM     24  C   UNL     1      40.031  -2.519  13.986  0.00  0.00    +0.000 A 
ATOM     25  C   UNL     1      40.590  -2.984  12.796  0.00  0.00    +0.000 A 
ATOM     26  C   UNL     1      40.247  -2.348  11.623  0.00  0.00    +0.000 A 
ATOM     27  C   UNL     1      39.373  -1.280  11.641  0.00  0.00    +0.000 A 
ATOM     28  C   UNL     1      38.854  -0.860  12.821  0.00  0.00    +0.000 A 
ATOM     29  C   UNL     1      39.171  -1.469  14.029  0.00  0.00    +0.000 A 
ENDBRANCH  20  21
ENDBRANCH   1  20
TORSDOF 9
ENDMDL
