MODEL 1
REMARK VINA RESULT:      -8.0      0.000      0.000
REMARK  Name = 
REMARK  7 active torsions:
REMARK  status: ('A' for Active; 'I' for Inactive)
REMARK    1  A    between atoms: C_5  and  S_6
REMARK    2  A    between atoms: S_6  and  C_7
REMARK    3  A    between atoms: C_8  and  N_9
REMARK    4  A    between atoms: N_9  and  C_10
REMARK    5  A    between atoms: N_20  and  C_21
REMARK    6  A    between atoms: C_21  and  C_22
REMARK    7  A    between atoms: C_22  and  C_23
REMARK                            x       y       z     vdW  Elec       q    Type
REMARK                         _______ _______ _______ _____ _____    ______ ____
ROOT
ATOM      1  C   UNL     1      37.987   6.528  15.100  0.00  0.00    +0.000 C 
ATOM      2  C   UNL     1      38.812   5.530  15.461  0.00  0.00    +0.000 C 
ATOM      3  C   UNL     1      38.133   4.252  15.279  0.00  0.00    +0.000 C 
ATOM      4  O   UNL     1      38.661   3.134  15.536  0.00  0.00    +0.000 OA
ATOM      5  N   UNL     1      36.846   4.548  14.785  0.00  0.00    +0.000 N 
ATOM      6  C   UNL     1      36.740   5.958  14.668  0.00  0.00    +0.000 C 
ATOM      7  O   UNL     1      35.722   6.613  14.253  0.00  0.00    +0.000 OA
ENDROOT
BRANCH   1   8
ATOM      8  S   UNL     1      38.380   8.266  15.151  0.00  0.00    +0.000 S 
BRANCH   8  13
ATOM      9  C   UNL     1      38.501   9.972  20.988  0.00  0.00    +0.000 C 
ATOM     10  C   UNL     1      38.466   9.550  19.554  0.00  0.00    +0.000 A 
ATOM     11  C   UNL     1      39.527   9.802  18.710  0.00  0.00    +0.000 A 
ATOM     12  C   UNL     1      39.536   9.430  17.382  0.00  0.00    +0.000 A 
ATOM     13  C   UNL     1      38.443   8.777  16.856  0.00  0.00    +0.000 A 
ATOM     14  C   UNL     1      37.369   8.516  17.683  0.00  0.00    +0.000 A 
ATOM     15  C   UNL     1      37.373   8.893  19.010  0.00  0.00    +0.000 A 
ENDBRANCH   8  13
ENDBRANCH   1   8
BRANCH   2  16
ATOM     16  N   UNL     1      40.121   5.759  15.935  0.00  0.00    +0.000 NA
BRANCH  16  17
ATOM     17  C   UNL     1      40.453   6.000  17.275  0.00  0.00    +0.000 A 
ATOM     18  C   UNL     1      39.512   5.815  18.256  0.00  0.00    +0.000 A 
ATOM     19  C   UNL     1      39.814   6.046  19.600  0.00  0.00    +0.000 A 
ATOM     20  C   UNL     1      41.072   6.465  19.941  0.00  0.00    +0.000 A 
ATOM     21  C   UNL     1      42.040   6.658  18.980  0.00  0.00    +0.000 A 
ATOM     22  C   UNL     1      43.380   7.107  19.382  0.00  0.00    +0.000 C 
ATOM     23  C   UNL     1      41.710   6.420  17.648  0.00  0.00    +0.000 A 
ATOM     24  C   UNL     1      42.773   6.638  16.635  0.00  0.00    +0.000 C 
ENDBRANCH  16  17
ENDBRANCH   2  16
BRANCH   5  25
ATOM     25  C   UNL     1      35.824   3.601  14.456  0.00  0.00    +0.000 C 
BRANCH  25  26
ATOM     26  C   UNL     1      35.068   3.117  15.686  0.00  0.00    +0.000 C 
BRANCH  26  27
ATOM     27  C   UNL     1      35.315   1.669  15.854  0.00  0.00    +0.000 A 
ATOM     28  C   UNL     1      36.033   0.917  14.961  0.00  0.00    +0.000 A 
ATOM     29  C   UNL     1      36.230  -0.437  15.175  0.00  0.00    +0.000 A 
ATOM     30  C   UNL     1      35.698  -1.028  16.299  0.00  0.00    +0.000 A 
ATOM     31  C   UNL     1      34.976  -0.289  17.205  0.00  0.00    +0.000 A 
ATOM     32  C   UNL     1      34.798   1.049  16.965  0.00  0.00    +0.000 A 
ENDBRANCH  26  27
ENDBRANCH  25  26
ENDBRANCH   5  25
TORSDOF 7
ENDMDL
MODEL 2
REMARK VINA RESULT:      -7.9      3.346      8.704
REMARK  Name = 
REMARK  7 active torsions:
REMARK  status: ('A' for Active; 'I' for Inactive)
REMARK    1  A    between atoms: C_5  and  S_6
REMARK    2  A    between atoms: S_6  and  C_7
REMARK    3  A    between atoms: C_8  and  N_9
REMARK    4  A    between atoms: N_9  and  C_10
REMARK    5  A    between atoms: N_20  and  C_21
REMARK    6  A    between atoms: C_21  and  C_22
REMARK    7  A    between atoms: C_22  and  C_23
REMARK                            x       y       z     vdW  Elec       q    Type
REMARK                         _______ _______ _______ _____ _____    ______ ____
ROOT
ATOM      1  C   UNL     1      37.267   2.073  14.759  0.00  0.00    +0.000 C 
ATOM      2  C   UNL     1      38.458   2.446  14.260  0.00  0.00    +0.000 C 
ATOM      3  C   UNL     1      38.925   3.637  14.960  0.00  0.00    +0.000 C 
ATOM      4  O   UNL     1      40.018   4.216  14.706  0.00  0.00    +0.000 OA
ATOM      5  N   UNL     1      37.936   3.956  15.913  0.00  0.00    +0.000 N 
ATOM      6  C   UNL     1      36.899   2.994  15.801  0.00  0.00    +0.000 C 
ATOM      7  O   UNL     1      35.827   2.945  16.497  0.00  0.00    +0.000 OA
ENDROOT
BRANCH   1   8
ATOM      8  S   UNL     1      36.309   0.671  14.217  0.00  0.00    +0.000 S 
BRANCH   8  13
ATOM      9  C   UNL     1      38.588  -4.272  16.932  0.00  0.00    +0.000 C 
ATOM     10  C   UNL     1      38.029  -3.054  16.269  0.00  0.00    +0.000 A 
ATOM     11  C   UNL     1      37.562  -3.097  14.972  0.00  0.00    +0.000 A 
ATOM     12  C   UNL     1      37.039  -1.998  14.324  0.00  0.00    +0.000 A 
ATOM     13  C   UNL     1      36.971  -0.792  14.987  0.00  0.00    +0.000 A 
ATOM     14  C   UNL     1      37.433  -0.726  16.286  0.00  0.00    +0.000 A 
ATOM     15  C   UNL     1      37.954  -1.833  16.922  0.00  0.00    +0.000 A 
ENDBRANCH   8  13
ENDBRANCH   1   8
BRANCH   2  16
ATOM     16  N   UNL     1      39.099   1.742  13.217  0.00  0.00    +0.000 NA
BRANCH  16  17
ATOM     17  C   UNL     1      39.713   0.491  13.360  0.00  0.00    +0.000 A 
ATOM     18  C   UNL     1      40.424   0.204  14.498  0.00  0.00    +0.000 A 
ATOM     19  C   UNL     1      41.045  -1.035  14.668  0.00  0.00    +0.000 A 
ATOM     20  C   UNL     1      40.942  -1.977  13.680  0.00  0.00    +0.000 A 
ATOM     21  C   UNL     1      40.235  -1.721  12.527  0.00  0.00    +0.000 A 
ATOM     22  C   UNL     1      40.144  -2.755  11.487  0.00  0.00    +0.000 C 
ATOM     23  C   UNL     1      39.626  -0.476  12.385  0.00  0.00    +0.000 A 
ATOM     24  C   UNL     1      38.870  -0.228  11.130  0.00  0.00    +0.000 C 
ENDBRANCH  16  17
ENDBRANCH   2  16
BRANCH   5  25
ATOM     25  C   UNL     1      37.965   5.052  16.833  0.00  0.00    +0.000 C 
BRANCH  25  26
ATOM     26  C   UNL     1      38.844   4.768  18.043  0.00  0.00    +0.000 C 
BRANCH  26  27
ATOM     27  C   UNL     1      39.062   6.032  18.778  0.00  0.00    +0.000 A 
ATOM     28  C   UNL     1      38.213   7.106  18.702  0.00  0.00    +0.000 A 
ATOM     29  C   UNL     1      38.473   8.263  19.416  0.00  0.00    +0.000 A 
ATOM     30  C   UNL     1      39.595   8.330  20.210  0.00  0.00    +0.000 A 
ATOM     31  C   UNL     1      40.456   7.263  20.300  0.00  0.00    +0.000 A 
ATOM     32  C   UNL     1      40.172   6.131  19.580  0.00  0.00    +0.000 A 
ENDBRANCH  26  27
ENDBRANCH  25  26
ENDBRANCH   5  25
TORSDOF 7
ENDMDL
MODEL 3
REMARK VINA RESULT:      -7.8      2.631      5.898
REMARK  Name = 
REMARK  7 active torsions:
REMARK  status: ('A' for Active; 'I' for Inactive)
REMARK    1  A    between atoms: C_5  and  S_6
REMARK    2  A    between atoms: S_6  and  C_7
REMARK    3  A    between atoms: C_8  and  N_9
REMARK    4  A    between atoms: N_9  and  C_10
REMARK    5  A    between atoms: N_20  and  C_21
REMARK    6  A    between atoms: C_21  and  C_22
REMARK    7  A    between atoms: C_22  and  C_23
REMARK                            x       y       z     vdW  Elec       q    Type
REMARK                         _______ _______ _______ _____ _____    ______ ____
ROOT
ATOM      1  C   UNL     1      37.915   3.370  14.747  0.00  0.00    +0.000 C 
ATOM      2  C   UNL     1      36.640   3.749  14.552  0.00  0.00    +0.000 C 
ATOM      3  C   UNL     1      35.762   2.597  14.720  0.00  0.00    +0.000 C 
ATOM      4  O   UNL     1      34.506   2.648  14.597  0.00  0.00    +0.000 OA
ATOM      5  N   UNL     1      36.593   1.500  15.027  0.00  0.00    +0.000 N 
ATOM      6  C   UNL     1      37.934   1.964  15.048  0.00  0.00    +0.000 C 
ATOM      7  O   UNL     1      38.977   1.266  15.290  0.00  0.00    +0.000 OA
ENDROOT
BRANCH   1   8
ATOM      8  S   UNL     1      39.340   4.437  14.647  0.00  0.00    +0.000 S 
BRANCH   8  13
ATOM      9  C   UNL     1      40.299   6.712  20.206  0.00  0.00    +0.000 C 
ATOM     10  C   UNL     1      40.058   6.150  18.841  0.00  0.00    +0.000 A 
ATOM     11  C   UNL     1      40.886   6.465  17.783  0.00  0.00    +0.000 A 
ATOM     12  C   UNL     1      40.700   5.969  16.510  0.00  0.00    +0.000 A 
ATOM     13  C   UNL     1      39.644   5.118  16.264  0.00  0.00    +0.000 A 
ATOM     14  C   UNL     1      38.804   4.790  17.309  0.00  0.00    +0.000 A 
ATOM     15  C   UNL     1      39.001   5.293  18.577  0.00  0.00    +0.000 A 
ENDBRANCH   8  13
ENDBRANCH   1   8
BRANCH   2  16
ATOM     16  N   UNL     1      36.281   5.078  14.238  0.00  0.00    +0.000 NA
BRANCH  16  17
ATOM     17  C   UNL     1      35.967   5.534  12.951  0.00  0.00    +0.000 A 
ATOM     18  C   UNL     1      36.772   5.201  11.891  0.00  0.00    +0.000 A 
ATOM     19  C   UNL     1      36.482   5.641  10.598  0.00  0.00    +0.000 A 
ATOM     20  C   UNL     1      35.377   6.419  10.387  0.00  0.00    +0.000 A 
ATOM     21  C   UNL     1      34.548   6.771  11.429  0.00  0.00    +0.000 A 
ATOM     22  C   UNL     1      33.369   7.608  11.167  0.00  0.00    +0.000 C 
ATOM     23  C   UNL     1      34.861   6.318  12.708  0.00  0.00    +0.000 A 
ATOM     24  C   UNL     1      33.950   6.714  13.812  0.00  0.00    +0.000 C 
ENDBRANCH  16  17
ENDBRANCH   2  16
BRANCH   5  25
ATOM     25  C   UNL     1      36.168   0.156  15.276  0.00  0.00    +0.000 C 
BRANCH  25  26
ATOM     26  C   UNL     1      35.602  -0.021  16.679  0.00  0.00    +0.000 C 
BRANCH  26  27
ATOM     27  C   UNL     1      36.538  -0.851  17.466  0.00  0.00    +0.000 A 
ATOM     28  C   UNL     1      36.459  -0.995  18.827  0.00  0.00    +0.000 A 
ATOM     29  C   UNL     1      37.367  -1.789  19.507  0.00  0.00    +0.000 A 
ATOM     30  C   UNL     1      38.356  -2.439  18.804  0.00  0.00    +0.000 A 
ATOM     31  C   UNL     1      38.450  -2.307  17.440  0.00  0.00    +0.000 A 
ATOM     32  C   UNL     1      37.536  -1.514  16.795  0.00  0.00    +0.000 A 
ENDBRANCH  26  27
ENDBRANCH  25  26
ENDBRANCH   5  25
TORSDOF 7
ENDMDL
MODEL 4
REMARK VINA RESULT:      -7.8      3.327      9.171
REMARK  Name = 
REMARK  7 active torsions:
REMARK  status: ('A' for Active; 'I' for Inactive)
REMARK    1  A    between atoms: C_5  and  S_6
REMARK    2  A    between atoms: S_6  and  C_7
REMARK    3  A    between atoms: C_8  and  N_9
REMARK    4  A    between atoms: N_9  and  C_10
REMARK    5  A    between atoms: N_20  and  C_21
REMARK    6  A    between atoms: C_21  and  C_22
REMARK    7  A    between atoms: C_22  and  C_23
REMARK                            x       y       z     vdW  Elec       q    Type
REMARK                         _______ _______ _______ _____ _____    ______ ____
ROOT
ATOM      1  C   UNL     1      36.972   1.496  14.394  0.00  0.00    +0.000 C 
ATOM      2  C   UNL     1      36.588   1.051  15.603  0.00  0.00    +0.000 C 
ATOM      3  C   UNL     1      36.734   2.121  16.582  0.00  0.00    +0.000 C 
ATOM      4  O   UNL     1      36.449   1.995  17.806  0.00  0.00    +0.000 OA
ATOM      5  N   UNL     1      37.232   3.240  15.883  0.00  0.00    +0.000 N 
ATOM      6  C   UNL     1      37.385   2.868  14.522  0.00  0.00    +0.000 C 
ATOM      7  O   UNL     1      37.812   3.612  13.573  0.00  0.00    +0.000 OA
ENDROOT
BRANCH   1   8
ATOM      8  S   UNL     1      36.968   0.543  12.888  0.00  0.00    +0.000 S 
BRANCH   8  13
ATOM      9  C   UNL     1      41.681  -3.297  13.110  0.00  0.00    +0.000 C 
ATOM     10  C   UNL     1      40.525  -2.349  13.056  0.00  0.00    +0.000 A 
ATOM     11  C   UNL     1      39.242  -2.799  12.827  0.00  0.00    +0.000 A 
ATOM     12  C   UNL     1      38.150  -1.959  12.770  0.00  0.00    +0.000 A 
ATOM     13  C   UNL     1      38.330  -0.605  12.948  0.00  0.00    +0.000 A 
ATOM     14  C   UNL     1      39.606  -0.133  13.179  0.00  0.00    +0.000 A 
ATOM     15  C   UNL     1      40.689  -0.984  13.233  0.00  0.00    +0.000 A 
ENDBRANCH   8  13
ENDBRANCH   1   8
BRANCH   2  16
ATOM     16  N   UNL     1      36.125  -0.266  15.815  0.00  0.00    +0.000 NA
BRANCH  16  17
ATOM     17  C   UNL     1      36.949  -1.369  16.069  0.00  0.00    +0.000 A 
ATOM     18  C   UNL     1      38.276  -1.179  16.364  0.00  0.00    +0.000 A 
ATOM     19  C   UNL     1      39.121  -2.260  16.623  0.00  0.00    +0.000 A 
ATOM     20  C   UNL     1      38.615  -3.531  16.580  0.00  0.00    +0.000 A 
ATOM     21  C   UNL     1      37.288  -3.756  16.288  0.00  0.00    +0.000 A 
ATOM     22  C   UNL     1      36.778  -5.134  16.252  0.00  0.00    +0.000 C 
ATOM     23  C   UNL     1      36.468  -2.659  16.035  0.00  0.00    +0.000 A 
ATOM     24  C   UNL     1      35.042  -2.933  15.723  0.00  0.00    +0.000 C 
ENDBRANCH  16  17
ENDBRANCH   2  16
BRANCH   5  25
ATOM     25  C   UNL     1      37.531   4.524  16.439  0.00  0.00    +0.000 C 
BRANCH  25  26
ATOM     26  C   UNL     1      38.969   4.621  16.931  0.00  0.00    +0.000 C 
BRANCH  26  27
ATOM     27  C   UNL     1      39.041   5.657  17.982  0.00  0.00    +0.000 A 
ATOM     28  C   UNL     1      39.970   5.647  18.991  0.00  0.00    +0.000 A 
ATOM     29  C   UNL     1      39.986   6.648  19.947  0.00  0.00    +0.000 A 
ATOM     30  C   UNL     1      39.058   7.663  19.878  0.00  0.00    +0.000 A 
ATOM     31  C   UNL     1      38.120   7.691  18.874  0.00  0.00    +0.000 A 
ATOM     32  C   UNL     1      38.130   6.684  17.942  0.00  0.00    +0.000 A 
ENDBRANCH  26  27
ENDBRANCH  25  26
ENDBRANCH   5  25
TORSDOF 7
ENDMDL
MODEL 5
REMARK VINA RESULT:      -7.7      3.460      8.713
REMARK  Name = 
REMARK  7 active torsions:
REMARK  status: ('A' for Active; 'I' for Inactive)
REMARK    1  A    between atoms: C_5  and  S_6
REMARK    2  A    between atoms: S_6  and  C_7
REMARK    3  A    between atoms: C_8  and  N_9
REMARK    4  A    between atoms: N_9  and  C_10
REMARK    5  A    between atoms: N_20  and  C_21
REMARK    6  A    between atoms: C_21  and  C_22
REMARK    7  A    between atoms: C_22  and  C_23
REMARK                            x       y       z     vdW  Elec       q    Type
REMARK                         _______ _______ _______ _____ _____    ______ ____
ROOT
ATOM      1  C   UNL     1      37.293   1.421  14.147  0.00  0.00    +0.000 C 
ATOM      2  C   UNL     1      36.888   1.261  15.419  0.00  0.00    +0.000 C 
ATOM      3  C   UNL     1      37.053   2.518  16.140  0.00  0.00    +0.000 C 
ATOM      4  O   UNL     1      36.755   2.672  17.357  0.00  0.00    +0.000 OA
ATOM      5  N   UNL     1      37.583   3.444  15.218  0.00  0.00    +0.000 N 
ATOM      6  C   UNL     1      37.737   2.778  13.974  0.00  0.00    +0.000 C 
ATOM      7  O   UNL     1      38.190   3.284  12.890  0.00  0.00    +0.000 OA
ENDROOT
BRANCH   1   8
ATOM      8  S   UNL     1      37.277   0.159  12.888  0.00  0.00    +0.000 S 
BRANCH   8  13
ATOM      9  C   UNL     1      42.583  -2.815  12.969  0.00  0.00    +0.000 C 
ATOM     10  C   UNL     1      41.276  -2.088  12.947  0.00  0.00    +0.000 A 
ATOM     11  C   UNL     1      41.167  -0.799  13.426  0.00  0.00    +0.000 A 
ATOM     12  C   UNL     1      39.982  -0.095  13.424  0.00  0.00    +0.000 A 
ATOM     13  C   UNL     1      38.844  -0.688  12.925  0.00  0.00    +0.000 A 
ATOM     14  C   UNL     1      38.930  -1.978  12.440  0.00  0.00    +0.000 A 
ATOM     15  C   UNL     1      40.122  -2.672  12.448  0.00  0.00    +0.000 A 
ENDBRANCH   8  13
ENDBRANCH   1   8
BRANCH   2  16
ATOM     16  N   UNL     1      36.391   0.035  15.910  0.00  0.00    +0.000 NA
BRANCH  16  17
ATOM     17  C   UNL     1      37.133  -0.876  16.674  0.00  0.00    +0.000 A 
ATOM     18  C   UNL     1      38.144  -1.596  16.090  0.00  0.00    +0.000 A 
ATOM     19  C   UNL     1      38.899  -2.510  16.827  0.00  0.00    +0.000 A 
ATOM     20  C   UNL     1      38.624  -2.689  18.156  0.00  0.00    +0.000 A 
ATOM     21  C   UNL     1      37.617  -1.981  18.773  0.00  0.00    +0.000 A 
ATOM     22  C   UNL     1      37.349  -2.198  20.201  0.00  0.00    +0.000 C 
ATOM     23  C   UNL     1      36.880  -1.076  18.013  0.00  0.00    +0.000 A 
ATOM     24  C   UNL     1      35.800  -0.327  18.705  0.00  0.00    +0.000 C 
ENDBRANCH  16  17
ENDBRANCH   2  16
BRANCH   5  25
ATOM     25  C   UNL     1      37.909   4.812  15.480  0.00  0.00    +0.000 C 
BRANCH  25  26
ATOM     26  C   UNL     1      39.412   5.055  15.504  0.00  0.00    +0.000 C 
BRANCH  26  27
ATOM     27  C   UNL     1      39.797   5.513  16.855  0.00  0.00    +0.000 A 
ATOM     28  C   UNL     1      38.989   5.383  17.956  0.00  0.00    +0.000 A 
ATOM     29  C   UNL     1      39.408   5.833  19.197  0.00  0.00    +0.000 A 
ATOM     30  C   UNL     1      40.649   6.415  19.321  0.00  0.00    +0.000 A 
ATOM     31  C   UNL     1      41.472   6.553  18.229  0.00  0.00    +0.000 A 
ATOM     32  C   UNL     1      41.029   6.099  17.014  0.00  0.00    +0.000 A 
ENDBRANCH  26  27
ENDBRANCH  25  26
ENDBRANCH   5  25
TORSDOF 7
ENDMDL
MODEL 6
REMARK VINA RESULT:      -7.3      1.757      3.247
REMARK  Name = 
REMARK  7 active torsions:
REMARK  status: ('A' for Active; 'I' for Inactive)
REMARK    1  A    between atoms: C_5  and  S_6
REMARK    2  A    between atoms: S_6  and  C_7
REMARK    3  A    between atoms: C_8  and  N_9
REMARK    4  A    between atoms: N_9  and  C_10
REMARK    5  A    between atoms: N_20  and  C_21
REMARK    6  A    between atoms: C_21  and  C_22
REMARK    7  A    between atoms: C_22  and  C_23
REMARK                            x       y       z     vdW  Elec       q    Type
REMARK                         _______ _______ _______ _____ _____    ______ ____
ROOT
ATOM      1  C   UNL     1      38.841   5.298  15.167  0.00  0.00    +0.000 C 
ATOM      2  C   UNL     1      38.088   5.090  16.261  0.00  0.00    +0.000 C 
ATOM      3  C   UNL     1      37.708   3.684  16.326  0.00  0.00    +0.000 C 
ATOM      4  O   UNL     1      36.999   3.190  17.246  0.00  0.00    +0.000 OA
ATOM      5  N   UNL     1      38.282   3.060  15.198  0.00  0.00    +0.000 N 
ATOM      6  C   UNL     1      38.989   4.050  14.468  0.00  0.00    +0.000 C 
ATOM      7  O   UNL     1      39.644   3.874  13.384  0.00  0.00    +0.000 OA
ENDROOT
BRANCH   1   8
ATOM      8  S   UNL     1      39.537   6.863  14.671  0.00  0.00    +0.000 S 
BRANCH   8  13
ATOM      9  C   UNL     1      43.950   8.387  18.570  0.00  0.00    +0.000 C 
ATOM     10  C   UNL     1      42.863   8.017  17.612  0.00  0.00    +0.000 A 
ATOM     11  C   UNL     1      42.840   6.781  17.000  0.00  0.00    +0.000 A 
ATOM     12  C   UNL     1      41.857   6.401  16.112  0.00  0.00    +0.000 A 
ATOM     13  C   UNL     1      40.842   7.282  15.809  0.00  0.00    +0.000 A 
ATOM     14  C   UNL     1      40.845   8.525  16.410  0.00  0.00    +0.000 A 
ATOM     15  C   UNL     1      41.835   8.893  17.297  0.00  0.00    +0.000 A 
ENDBRANCH   8  13
ENDBRANCH   1   8
BRANCH   2  16
ATOM     16  N   UNL     1      37.757   6.123  17.164  0.00  0.00    +0.000 NA
BRANCH  16  17
ATOM     17  C   UNL     1      38.544   6.507  18.258  0.00  0.00    +0.000 A 
ATOM     18  C   UNL     1      39.580   5.708  18.670  0.00  0.00    +0.000 A 
ATOM     19  C   UNL     1      40.381   6.066  19.756  0.00  0.00    +0.000 A 
ATOM     20  C   UNL     1      40.126   7.236  20.420  0.00  0.00    +0.000 A 
ATOM     21  C   UNL     1      39.094   8.061  20.031  0.00  0.00    +0.000 A 
ATOM     22  C   UNL     1      38.848   9.309  20.766  0.00  0.00    +0.000 C 
ATOM     23  C   UNL     1      38.312   7.678  18.944  0.00  0.00    +0.000 A 
ATOM     24  C   UNL     1      37.206   8.588  18.548  0.00  0.00    +0.000 C 
ENDBRANCH  16  17
ENDBRANCH   2  16
BRANCH   5  25
ATOM     25  C   UNL     1      38.175   1.677  14.846  0.00  0.00    +0.000 C 
BRANCH  25  26
ATOM     26  C   UNL     1      36.809   1.331  14.271  0.00  0.00    +0.000 C 
BRANCH  26  27
ATOM     27  C   UNL     1      36.235   0.215  15.052  0.00  0.00    +0.000 A 
ATOM     28  C   UNL     1      36.473  -1.106  14.770  0.00  0.00    +0.000 A 
ATOM     29  C   UNL     1      35.905  -2.106  15.541  0.00  0.00    +0.000 A 
ATOM     30  C   UNL     1      35.095  -1.765  16.601  0.00  0.00    +0.000 A 
ATOM     31  C   UNL     1      34.846  -0.447  16.898  0.00  0.00    +0.000 A 
ATOM     32  C   UNL     1      35.422   0.520  16.116  0.00  0.00    +0.000 A 
ENDBRANCH  26  27
ENDBRANCH  25  26
ENDBRANCH   5  25
TORSDOF 7
ENDMDL
MODEL 7
REMARK VINA RESULT:      -7.3      1.933      2.835
REMARK  Name = 
REMARK  7 active torsions:
REMARK  status: ('A' for Active; 'I' for Inactive)
REMARK    1  A    between atoms: C_5  and  S_6
REMARK    2  A    between atoms: S_6  and  C_7
REMARK    3  A    between atoms: C_8  and  N_9
REMARK    4  A    between atoms: N_9  and  C_10
REMARK    5  A    between atoms: N_20  and  C_21
REMARK    6  A    between atoms: C_21  and  C_22
REMARK    7  A    between atoms: C_22  and  C_23
REMARK                            x       y       z     vdW  Elec       q    Type
REMARK                         _______ _______ _______ _____ _____    ______ ____
ROOT
ATOM      1  C   UNL     1      37.146   6.301  14.763  0.00  0.00    +0.000 C 
ATOM      2  C   UNL     1      37.770   5.750  15.817  0.00  0.00    +0.000 C 
ATOM      3  C   UNL     1      37.660   4.298  15.740  0.00  0.00    +0.000 C 
ATOM      4  O   UNL     1      38.152   3.510  16.596  0.00  0.00    +0.000 OA
ATOM      5  N   UNL     1      36.927   4.012  14.569  0.00  0.00    +0.000 N 
ATOM      6  C   UNL     1      36.600   5.247  13.950  0.00  0.00    +0.000 C 
ATOM      7  O   UNL     1      35.941   5.404  12.866  0.00  0.00    +0.000 OA
ENDROOT
BRANCH   1   8
ATOM      8  S   UNL     1      37.018   8.048  14.431  0.00  0.00    +0.000 S 
BRANCH   8  13
ATOM      9  C   UNL     1      32.626  10.331  17.968  0.00  0.00    +0.000 C 
ATOM     10  C   UNL     1      33.702   9.768  17.095  0.00  0.00    +0.000 A 
ATOM     11  C   UNL     1      35.035   9.923  17.414  0.00  0.00    +0.000 A 
ATOM     12  C   UNL     1      36.057   9.420  16.637  0.00  0.00    +0.000 A 
ATOM     13  C   UNL     1      35.752   8.727  15.486  0.00  0.00    +0.000 A 
ATOM     14  C   UNL     1      34.425   8.561  15.147  0.00  0.00    +0.000 A 
ATOM     15  C   UNL     1      33.412   9.069  15.933  0.00  0.00    +0.000 A 
ENDBRANCH   8  13
ENDBRANCH   1   8
BRANCH   2  16
ATOM     16  N   UNL     1      38.413   6.522  16.809  0.00  0.00    +0.000 NA
BRANCH  16  17
ATOM     17  C   UNL     1      39.791   6.506  17.061  0.00  0.00    +0.000 A 
ATOM     18  C   UNL     1      40.679   6.506  16.015  0.00  0.00    +0.000 A 
ATOM     19  C   UNL     1      42.057   6.492  16.237  0.00  0.00    +0.000 A 
ATOM     20  C   UNL     1      42.529   6.477  17.521  0.00  0.00    +0.000 A 
ATOM     21  C   UNL     1      41.665   6.477  18.594  0.00  0.00    +0.000 A 
ATOM     22  C   UNL     1      42.205   6.462  19.960  0.00  0.00    +0.000 C 
ATOM     23  C   UNL     1      40.295   6.492  18.343  0.00  0.00    +0.000 A 
ATOM     24  C   UNL     1      39.387   6.492  19.519  0.00  0.00    +0.000 C 
ENDBRANCH  16  17
ENDBRANCH   2  16
BRANCH   5  25
ATOM     25  C   UNL     1      36.573   2.713  14.084  0.00  0.00    +0.000 C 
BRANCH  25  26
ATOM     26  C   UNL     1      35.232   2.239  14.627  0.00  0.00    +0.000 C 
BRANCH  26  27
ATOM     27  C   UNL     1      35.475   1.189  15.639  0.00  0.00    +0.000 A 
ATOM     28  C   UNL     1      34.972   1.238  16.914  0.00  0.00    +0.000 A 
ATOM     29  C   UNL     1      35.236   0.222  17.817  0.00  0.00    +0.000 A 
ATOM     30  C   UNL     1      36.010  -0.847  17.424  0.00  0.00    +0.000 A 
ATOM     31  C   UNL     1      36.522  -0.913  16.150  0.00  0.00    +0.000 A 
ATOM     32  C   UNL     1      36.244   0.109  15.280  0.00  0.00    +0.000 A 
ENDBRANCH  26  27
ENDBRANCH  25  26
ENDBRANCH   5  25
TORSDOF 7
ENDMDL
MODEL 8
REMARK VINA RESULT:      -7.2      5.404      9.360
REMARK  Name = 
REMARK  7 active torsions:
REMARK  status: ('A' for Active; 'I' for Inactive)
REMARK    1  A    between atoms: C_5  and  S_6
REMARK    2  A    between atoms: S_6  and  C_7
REMARK    3  A    between atoms: C_8  and  N_9
REMARK    4  A    between atoms: N_9  and  C_10
REMARK    5  A    between atoms: N_20  and  C_21
REMARK    6  A    between atoms: C_21  and  C_22
REMARK    7  A    between atoms: C_22  and  C_23
REMARK                            x       y       z     vdW  Elec       q    Type
REMARK                         _______ _______ _______ _____ _____    ______ ____
ROOT
ATOM      1  C   UNL     1      36.486   0.267  16.435  0.00  0.00    +0.000 C 
ATOM      2  C   UNL     1      37.474   0.506  15.555  0.00  0.00    +0.000 C 
ATOM      3  C   UNL     1      37.122   1.659  14.734  0.00  0.00    +0.000 C 
ATOM      4  O   UNL     1      37.859   2.119  13.819  0.00  0.00    +0.000 OA
ATOM      5  N   UNL     1      35.857   2.097  15.179  0.00  0.00    +0.000 N 
ATOM      6  C   UNL     1      35.449   1.243  16.236  0.00  0.00    +0.000 C 
ATOM      7  O   UNL     1      34.357   1.319  16.898  0.00  0.00    +0.000 OA
ENDROOT
BRANCH   1   8
ATOM      8  S   UNL     1      36.471  -1.042  17.645  0.00  0.00    +0.000 S 
BRANCH   8  13
ATOM      9  C   UNL     1      34.571  -6.111  14.872  0.00  0.00    +0.000 C 
ATOM     10  C   UNL     1      35.033  -4.862  15.552  0.00  0.00    +0.000 A 
ATOM     11  C   UNL     1      36.222  -4.828  16.252  0.00  0.00    +0.000 A 
ATOM     12  C   UNL     1      36.684  -3.699  16.893  0.00  0.00    +0.000 A 
ATOM     13  C   UNL     1      35.939  -2.541  16.843  0.00  0.00    +0.000 A 
ATOM     14  C   UNL     1      34.746  -2.553  16.148  0.00  0.00    +0.000 A 
ATOM     15  C   UNL     1      34.295  -3.690  15.512  0.00  0.00    +0.000 A 
ENDBRANCH   8  13
ENDBRANCH   1   8
BRANCH   2  16
ATOM     16  N   UNL     1      38.644  -0.281  15.493  0.00  0.00    +0.000 NA
BRANCH  16  17
ATOM     17  C   UNL     1      39.014  -1.072  14.398  0.00  0.00    +0.000 A 
ATOM     18  C   UNL     1      38.221  -2.123  14.012  0.00  0.00    +0.000 A 
ATOM     19  C   UNL     1      38.565  -2.927  12.924  0.00  0.00    +0.000 A 
ATOM     20  C   UNL     1      39.715  -2.661  12.231  0.00  0.00    +0.000 A 
ATOM     21  C   UNL     1      40.533  -1.613  12.591  0.00  0.00    +0.000 A 
ATOM     22  C   UNL     1      41.759  -1.355  11.825  0.00  0.00    +0.000 C 
ATOM     23  C   UNL     1      40.164  -0.827  13.681  0.00  0.00    +0.000 A 
ATOM     24  C   UNL     1      41.066   0.295  14.046  0.00  0.00    +0.000 C 
ENDBRANCH  16  17
ENDBRANCH   2  16
BRANCH   5  25
ATOM     25  C   UNL     1      35.113   3.205  14.663  0.00  0.00    +0.000 C 
BRANCH  25  26
ATOM     26  C   UNL     1      35.935   4.487  14.626  0.00  0.00    +0.000 C 
BRANCH  26  27
ATOM     27  C   UNL     1      35.253   5.462  13.749  0.00  0.00    +0.000 A 
ATOM     28  C   UNL     1      34.165   6.199  14.141  0.00  0.00    +0.000 A 
ATOM     29  C   UNL     1      33.570   7.097  13.271  0.00  0.00    +0.000 A 
ATOM     30  C   UNL     1      34.081   7.249  12.002  0.00  0.00    +0.000 A 
ATOM     31  C   UNL     1      35.171   6.519  11.592  0.00  0.00    +0.000 A 
ATOM     32  C   UNL     1      35.738   5.637  12.476  0.00  0.00    +0.000 A 
ENDBRANCH  26  27
ENDBRANCH  25  26
ENDBRANCH   5  25
TORSDOF 7
ENDMDL
MODEL 9
REMARK VINA RESULT:      -7.2     23.628     26.928
REMARK  Name = 
REMARK  7 active torsions:
REMARK  status: ('A' for Active; 'I' for Inactive)
REMARK    1  A    between atoms: C_5  and  S_6
REMARK    2  A    between atoms: S_6  and  C_7
REMARK    3  A    between atoms: C_8  and  N_9
REMARK    4  A    between atoms: N_9  and  C_10
REMARK    5  A    between atoms: N_20  and  C_21
REMARK    6  A    between atoms: C_21  and  C_22
REMARK    7  A    between atoms: C_22  and  C_23
REMARK                            x       y       z     vdW  Elec       q    Type
REMARK                         _______ _______ _______ _____ _____    ______ ____
ROOT
ATOM      1  C   UNL     1      26.396  14.246  40.551  0.00  0.00    +0.000 C 
ATOM      2  C   UNL     1      27.670  14.564  40.260  0.00  0.00    +0.000 C 
ATOM      3  C   UNL     1      27.728  15.155  38.929  0.00  0.00    +0.000 C 
ATOM      4  O   UNL     1      28.796  15.554  38.384  0.00  0.00    +0.000 OA
ATOM      5  N   UNL     1      26.407  15.171  38.437  0.00  0.00    +0.000 N 
ATOM      6  C   UNL     1      25.567  14.609  39.434  0.00  0.00    +0.000 C 
ATOM      7  O   UNL     1      24.300  14.451  39.361  0.00  0.00    +0.000 OA
ENDROOT
BRANCH   1   8
ATOM      8  S   UNL     1      25.836  13.498  42.069  0.00  0.00    +0.000 S 
BRANCH   8  13
ATOM      9  C   UNL     1      27.851   7.759  42.131  0.00  0.00    +0.000 C 
ATOM     10  C   UNL     1      27.355   9.170  42.110  0.00  0.00    +0.000 A 
ATOM     11  C   UNL     1      27.083   9.849  43.280  0.00  0.00    +0.000 A 
ATOM     12  C   UNL     1      26.626  11.149  43.305  0.00  0.00    +0.000 A 
ATOM     13  C   UNL     1      26.425  11.818  42.117  0.00  0.00    +0.000 A 
ATOM     14  C   UNL     1      26.690  11.157  40.935  0.00  0.00    +0.000 A 
ATOM     15  C   UNL     1      27.147   9.856  40.924  0.00  0.00    +0.000 A 
ENDBRANCH   8  13
ENDBRANCH   1   8
BRANCH   2  16
ATOM     16  N   UNL     1      28.735  14.332  41.157  0.00  0.00    +0.000 NA
BRANCH  16  17
ATOM     17  C   UNL     1      29.467  13.141  41.233  0.00  0.00    +0.000 A 
ATOM     18  C   UNL     1      29.827  12.484  40.083  0.00  0.00    +0.000 A 
ATOM     19  C   UNL     1      30.557  11.295  40.129  0.00  0.00    +0.000 A 
ATOM     20  C   UNL     1      30.920  10.778  41.343  0.00  0.00    +0.000 A 
ATOM     21  C   UNL     1      30.576  11.412  42.515  0.00  0.00    +0.000 A 
ATOM     22  C   UNL     1      30.982  10.829  43.801  0.00  0.00    +0.000 C 
ATOM     23  C   UNL     1      29.847  12.597  42.439  0.00  0.00    +0.000 A 
ATOM     24  C   UNL     1      29.490  13.259  43.720  0.00  0.00    +0.000 C 
ENDBRANCH  16  17
ENDBRANCH   2  16
BRANCH   5  25
ATOM     25  C   UNL     1      25.980  15.664  37.163  0.00  0.00    +0.000 C 
BRANCH  25  26
ATOM     26  C   UNL     1      26.491  14.809  36.012  0.00  0.00    +0.000 C 
BRANCH  26  27
ATOM     27  C   UNL     1      25.871  15.284  34.757  0.00  0.00    +0.000 A 
ATOM     28  C   UNL     1      25.450  16.575  34.564  0.00  0.00    +0.000 A 
ATOM     29  C   UNL     1      24.876  16.959  33.364  0.00  0.00    +0.000 A 
ATOM     30  C   UNL     1      24.729  16.031  32.357  0.00  0.00    +0.000 A 
ATOM     31  C   UNL     1      25.145  14.733  32.533  0.00  0.00    +0.000 A 
ATOM     32  C   UNL     1      25.710  14.384  33.733  0.00  0.00    +0.000 A 
ENDBRANCH  26  27
ENDBRANCH  25  26
ENDBRANCH   5  25
TORSDOF 7
ENDMDL
MODEL 10
REMARK VINA RESULT:      -7.2      3.429      8.649
REMARK  Name = 
REMARK  7 active torsions:
REMARK  status: ('A' for Active; 'I' for Inactive)
REMARK    1  A    between atoms: C_5  and  S_6
REMARK    2  A    between atoms: S_6  and  C_7
REMARK    3  A    between atoms: C_8  and  N_9
REMARK    4  A    between atoms: N_9  and  C_10
REMARK    5  A    between atoms: N_20  and  C_21
REMARK    6  A    between atoms: C_21  and  C_22
REMARK    7  A    between atoms: C_22  and  C_23
REMARK                            x       y       z     vdW  Elec       q    Type
REMARK                         _______ _______ _______ _____ _____    ______ ____
ROOT
ATOM      1  C   UNL     1      38.330   2.215  14.358  0.00  0.00    +0.000 C 
ATOM      2  C   UNL     1      37.267   1.944  15.136  0.00  0.00    +0.000 C 
ATOM      3  C   UNL     1      37.095   3.015  16.110  0.00  0.00    +0.000 C 
ATOM      4  O   UNL     1      36.176   3.035  16.976  0.00  0.00    +0.000 OA
ATOM      5  N   UNL     1      38.124   3.948  15.868  0.00  0.00    +0.000 N 
ATOM      6  C   UNL     1      38.900   3.466  14.782  0.00  0.00    +0.000 C 
ATOM      7  O   UNL     1      39.924   4.033  14.265  0.00  0.00    +0.000 OA
ENDROOT
BRANCH   1   8
ATOM      8  S   UNL     1      38.927   1.192  13.026  0.00  0.00    +0.000 S 
BRANCH   8  13
ATOM      9  C   UNL     1      44.057  -1.520  14.851  0.00  0.00    +0.000 C 
ATOM     10  C   UNL     1      42.793  -0.858  14.405  0.00  0.00    +0.000 A 
ATOM     11  C   UNL     1      42.815   0.358  13.754  0.00  0.00    +0.000 A 
ATOM     12  C   UNL     1      41.674   1.003  13.326  0.00  0.00    +0.000 A 
ATOM     13  C   UNL     1      40.446   0.421  13.550  0.00  0.00    +0.000 A 
ATOM     14  C   UNL     1      40.400  -0.796  14.200  0.00  0.00    +0.000 A 
ATOM     15  C   UNL     1      41.550  -1.430  14.623  0.00  0.00    +0.000 A 
ENDBRANCH   8  13
ENDBRANCH   1   8
BRANCH   2  16
ATOM     16  N   UNL     1      36.485   0.780  14.975  0.00  0.00    +0.000 NA
BRANCH  16  17
ATOM     17  C   UNL     1      36.565  -0.353  15.794  0.00  0.00    +0.000 A 
ATOM     18  C   UNL     1      36.392  -0.232  17.149  0.00  0.00    +0.000 A 
ATOM     19  C   UNL     1      36.465  -1.345  17.989  0.00  0.00    +0.000 A 
ATOM     20  C   UNL     1      36.716  -2.577  17.449  0.00  0.00    +0.000 A 
ATOM     21  C   UNL     1      36.894  -2.733  16.092  0.00  0.00    +0.000 A 
ATOM     22  C   UNL     1      37.160  -4.070  15.545  0.00  0.00    +0.000 C 
ATOM     23  C   UNL     1      36.814  -1.605  15.278  0.00  0.00    +0.000 A 
ATOM     24  C   UNL     1      37.011  -1.804  13.819  0.00  0.00    +0.000 C 
ENDBRANCH  16  17
ENDBRANCH   2  16
BRANCH   5  25
ATOM     25  C   UNL     1      38.352   5.167  16.583  0.00  0.00    +0.000 C 
BRANCH  25  26
ATOM     26  C   UNL     1      38.696   4.922  18.046  0.00  0.00    +0.000 C 
BRANCH  26  27
ATOM     27  C   UNL     1      39.916   5.688  18.380  0.00  0.00    +0.000 A 
ATOM     28  C   UNL     1      40.214   6.118  19.648  0.00  0.00    +0.000 A 
ATOM     29  C   UNL     1      41.374   6.832  19.897  0.00  0.00    +0.000 A 
ATOM     30  C   UNL     1      42.234   7.108  18.857  0.00  0.00    +0.000 A 
ATOM     31  C   UNL     1      41.951   6.685  17.581  0.00  0.00    +0.000 A 
ATOM     32  C   UNL     1      40.794   5.980  17.366  0.00  0.00    +0.000 A 
ENDBRANCH  26  27
ENDBRANCH  25  26
ENDBRANCH   5  25
TORSDOF 7
ENDMDL
