MODEL 1
REMARK VINA RESULT:      -5.8      0.000      0.000
REMARK  Name = 
REMARK  4 active torsions:
REMARK  status: ('A' for Active; 'I' for Inactive)
REMARK    1  A    between atoms: O_2  and  C_3
REMARK    2  A    between atoms: C_3  and  C_4
REMARK    3  A    between atoms: C_4  and  N_5
REMARK    4  A    between atoms: C_8  and  C_9
REMARK                            x       y       z     vdW  Elec       q    Type
REMARK                         _______ _______ _______ _____ _____    ______ ____
ROOT
ATOM      1  N   UNL     1      34.371  22.907  10.488  0.00  0.00    +0.000 NA
ATOM      2  C   UNL     1      33.267  22.158  11.050  0.00  0.00    +0.000 A 
ATOM      3  N   UNL     1      31.985  22.502  11.026  0.00  0.00    +0.000 NA
ATOM      4  C   UNL     1      31.110  21.736  11.586  0.00  0.00    +0.000 A 
ATOM      5  C   UNL     1      31.567  20.585  12.185  0.00  0.00    +0.000 A 
ATOM      6  S   UNL     1      33.244  20.678  11.904  0.00  0.00    +0.000 S 
ENDROOT
BRANCH   4   7
ATOM      7  C   UNL     1      29.656  22.049  11.603  0.00  0.00    +0.000 A 
ATOM      8  C   UNL     1      28.732  21.569  10.713  0.00  0.00    +0.000 A 
ATOM      9  N   UNL     1      27.531  22.069  11.046  0.00  0.00    +0.000 NA
ATOM     10  C   UNL     1      27.672  22.853  12.122  0.00  0.00    +0.000 A 
ATOM     11  C   UNL     1      26.742  23.581  12.831  0.00  0.00    +0.000 A 
ATOM     12  C   UNL     1      27.150  24.324  13.928  0.00  0.00    +0.000 A 
ATOM     13  C   UNL     1      28.479  24.327  14.296  0.00  0.00    +0.000 A 
ATOM     14  C   UNL     1      29.419  23.604  13.596  0.00  0.00    +0.000 A 
ATOM     15  C   UNL     1      28.993  22.858  12.491  0.00  0.00    +0.000 A 
ENDBRANCH   4   7
BRANCH   1  16
ATOM     16  C   UNL     1      35.711  22.513  10.497  0.00  0.00    +0.000 C 
BRANCH  16  17
ATOM     17  C   UNL     1      36.046  21.606   9.358  0.00  0.00    +0.000 C 
BRANCH  17  19
ATOM     18  C   UNL     1      35.426  21.167   7.187  0.00  0.00    +0.000 C 
ATOM     19  O   UNL     1      35.618  22.133   8.156  0.00  0.00    +0.000 OA
ENDBRANCH  17  19
ENDBRANCH  16  17
ENDBRANCH   1  16
TORSDOF 4
ENDMDL
MODEL 2
REMARK VINA RESULT:      -5.6      2.416      3.061
REMARK  Name = 
REMARK  4 active torsions:
REMARK  status: ('A' for Active; 'I' for Inactive)
REMARK    1  A    between atoms: O_2  and  C_3
REMARK    2  A    between atoms: C_3  and  C_4
REMARK    3  A    between atoms: C_4  and  N_5
REMARK    4  A    between atoms: C_8  and  C_9
REMARK                            x       y       z     vdW  Elec       q    Type
REMARK                         _______ _______ _______ _____ _____    ______ ____
ROOT
ATOM      1  N   UNL     1      32.532  22.649   7.931  0.00  0.00    +0.000 NA
ATOM      2  C   UNL     1      32.048  22.034   9.147  0.00  0.00    +0.000 A 
ATOM      3  N   UNL     1      31.197  22.566  10.018  0.00  0.00    +0.000 NA
ATOM      4  C   UNL     1      30.867  21.899  11.073  0.00  0.00    +0.000 A 
ATOM      5  C   UNL     1      31.427  20.653  11.236  0.00  0.00    +0.000 A 
ATOM      6  S   UNL     1      32.404  20.517   9.847  0.00  0.00    +0.000 S 
ENDROOT
BRANCH   4   7
ATOM      7  C   UNL     1      29.921  22.422  12.095  0.00  0.00    +0.000 A 
ATOM      8  C   UNL     1      30.276  22.936  13.313  0.00  0.00    +0.000 A 
ATOM      9  N   UNL     1      29.155  23.303  13.955  0.00  0.00    +0.000 NA
ATOM     10  C   UNL     1      28.102  23.034  13.175  0.00  0.00    +0.000 A 
ATOM     11  C   UNL     1      26.754  23.228  13.387  0.00  0.00    +0.000 A 
ATOM     12  C   UNL     1      25.850  22.859  12.403  0.00  0.00    +0.000 A 
ATOM     13  C   UNL     1      26.307  22.303  11.227  0.00  0.00    +0.000 A 
ATOM     14  C   UNL     1      27.651  22.105  11.002  0.00  0.00    +0.000 A 
ATOM     15  C   UNL     1      28.553  22.482  12.003  0.00  0.00    +0.000 A 
ENDBRANCH   4   7
BRANCH   1  16
ATOM     16  C   UNL     1      33.405  22.061   7.012  0.00  0.00    +0.000 C 
BRANCH  16  17
ATOM     17  C   UNL     1      32.682  21.339   5.921  0.00  0.00    +0.000 C 
BRANCH  17  19
ATOM     18  C   UNL     1      30.988  21.783   4.430  0.00  0.00    +0.000 C 
ATOM     19  O   UNL     1      31.410  21.844   5.745  0.00  0.00    +0.000 OA
ENDBRANCH  17  19
ENDBRANCH  16  17
ENDBRANCH   1  16
TORSDOF 4
ENDMDL
MODEL 3
REMARK VINA RESULT:      -5.5     29.531     31.813
REMARK  Name = 
REMARK  4 active torsions:
REMARK  status: ('A' for Active; 'I' for Inactive)
REMARK    1  A    between atoms: O_2  and  C_3
REMARK    2  A    between atoms: C_3  and  C_4
REMARK    3  A    between atoms: C_4  and  N_5
REMARK    4  A    between atoms: C_8  and  C_9
REMARK                            x       y       z     vdW  Elec       q    Type
REMARK                         _______ _______ _______ _____ _____    ______ ____
ROOT
ATOM      1  N   UNL     1      15.401  12.326  34.605  0.00  0.00    +0.000 NA
ATOM      2  C   UNL     1      16.366  11.338  35.036  0.00  0.00    +0.000 A 
ATOM      3  N   UNL     1      16.896  11.228  36.250  0.00  0.00    +0.000 NA
ATOM      4  C   UNL     1      17.762  10.300  36.483  0.00  0.00    +0.000 A 
ATOM      5  C   UNL     1      18.092   9.464  35.442  0.00  0.00    +0.000 A 
ATOM      6  S   UNL     1      17.125  10.072  34.177  0.00  0.00    +0.000 S 
ENDROOT
BRANCH   4   7
ATOM      7  C   UNL     1      18.401  10.109  37.813  0.00  0.00    +0.000 A 
ATOM      8  C   UNL     1      19.749  10.104  38.051  0.00  0.00    +0.000 A 
ATOM      9  N   UNL     1      19.942   9.904  39.364  0.00  0.00    +0.000 NA
ATOM     10  C   UNL     1      18.751   9.782  39.963  0.00  0.00    +0.000 A 
ATOM     11  C   UNL     1      18.428   9.568  41.285  0.00  0.00    +0.000 A 
ATOM     12  C   UNL     1      17.095   9.478  41.654  0.00  0.00    +0.000 A 
ATOM     13  C   UNL     1      16.110   9.603  40.698  0.00  0.00    +0.000 A 
ATOM     14  C   UNL     1      16.419   9.818  39.374  0.00  0.00    +0.000 A 
ATOM     15  C   UNL     1      17.769   9.906  39.014  0.00  0.00    +0.000 A 
ENDBRANCH   4   7
BRANCH   1  16
ATOM     16  C   UNL     1      14.833  12.407  33.331  0.00  0.00    +0.000 C 
BRANCH  16  17
ATOM     17  C   UNL     1      13.935  13.593  33.183  0.00  0.00    +0.000 C 
BRANCH  17  19
ATOM     18  C   UNL     1      13.753  13.476  30.893  0.00  0.00    +0.000 C 
ATOM     19  O   UNL     1      14.147  14.234  31.980  0.00  0.00    +0.000 OA
ENDBRANCH  17  19
ENDBRANCH  16  17
ENDBRANCH   1  16
TORSDOF 4
ENDMDL
MODEL 4
REMARK VINA RESULT:      -5.4      3.534      4.171
REMARK  Name = 
REMARK  4 active torsions:
REMARK  status: ('A' for Active; 'I' for Inactive)
REMARK    1  A    between atoms: O_2  and  C_3
REMARK    2  A    between atoms: C_3  and  C_4
REMARK    3  A    between atoms: C_4  and  N_5
REMARK    4  A    between atoms: C_8  and  C_9
REMARK                            x       y       z     vdW  Elec       q    Type
REMARK                         _______ _______ _______ _____ _____    ______ ____
ROOT
ATOM      1  N   UNL     1      35.607  18.942  12.747  0.00  0.00    +0.000 NA
ATOM      2  C   UNL     1      34.924  19.956  11.973  0.00  0.00    +0.000 A 
ATOM      3  N   UNL     1      33.620  20.020  11.731  0.00  0.00    +0.000 NA
ATOM      4  C   UNL     1      33.155  20.982  11.005  0.00  0.00    +0.000 A 
ATOM      5  C   UNL     1      34.056  21.901  10.518  0.00  0.00    +0.000 A 
ATOM      6  S   UNL     1      35.531  21.318  11.139  0.00  0.00    +0.000 S 
ENDROOT
BRANCH   4   7
ATOM      7  C   UNL     1      31.709  21.126  10.688  0.00  0.00    +0.000 A 
ATOM      8  C   UNL     1      31.086  20.612   9.583  0.00  0.00    +0.000 A 
ATOM      9  N   UNL     1      29.787  20.947   9.641  0.00  0.00    +0.000 NA
ATOM     10  C   UNL     1      29.573  21.660  10.753  0.00  0.00    +0.000 A 
ATOM     11  C   UNL     1      28.418  22.224  11.251  0.00  0.00    +0.000 A 
ATOM     12  C   UNL     1      28.463  22.926  12.445  0.00  0.00    +0.000 A 
ATOM     13  C   UNL     1      29.659  23.053  13.120  0.00  0.00    +0.000 A 
ATOM     14  C   UNL     1      30.819  22.494  12.634  0.00  0.00    +0.000 A 
ATOM     15  C   UNL     1      30.760  21.788  11.427  0.00  0.00    +0.000 A 
ENDBRANCH   4   7
BRANCH   1  16
ATOM     16  C   UNL     1      36.977  18.907  13.016  0.00  0.00    +0.000 C 
BRANCH  16  17
ATOM     17  C   UNL     1      37.356  17.759  13.895  0.00  0.00    +0.000 C 
BRANCH  17  19
ATOM     18  C   UNL     1      36.182  16.755  15.598  0.00  0.00    +0.000 C 
ATOM     19  O   UNL     1      36.252  17.008  14.241  0.00  0.00    +0.000 OA
ENDBRANCH  17  19
ENDBRANCH  16  17
ENDBRANCH   1  16
TORSDOF 4
ENDMDL
MODEL 5
REMARK VINA RESULT:      -5.4     29.277     30.513
REMARK  Name = 
REMARK  4 active torsions:
REMARK  status: ('A' for Active; 'I' for Inactive)
REMARK    1  A    between atoms: O_2  and  C_3
REMARK    2  A    between atoms: C_3  and  C_4
REMARK    3  A    between atoms: C_4  and  N_5
REMARK    4  A    between atoms: C_8  and  C_9
REMARK                            x       y       z     vdW  Elec       q    Type
REMARK                         _______ _______ _______ _____ _____    ______ ____
ROOT
ATOM      1  N   UNL     1      21.099  11.423  38.222  0.00  0.00    +0.000 NA
ATOM      2  C   UNL     1      19.730  10.990  38.038  0.00  0.00    +0.000 A 
ATOM      3  N   UNL     1      18.827  11.544  37.237  0.00  0.00    +0.000 NA
ATOM      4  C   UNL     1      17.634  11.053  37.191  0.00  0.00    +0.000 A 
ATOM      5  C   UNL     1      17.364   9.965  37.988  0.00  0.00    +0.000 A 
ATOM      6  S   UNL     1      18.859   9.712  38.764  0.00  0.00    +0.000 S 
ENDROOT
BRANCH   4   7
ATOM      7  C   UNL     1      16.564  11.614  36.321  0.00  0.00    +0.000 A 
ATOM      8  C   UNL     1      15.570  12.459  36.734  0.00  0.00    +0.000 A 
ATOM      9  N   UNL     1      14.799  12.748  35.673  0.00  0.00    +0.000 NA
ATOM     10  C   UNL     1      15.280  12.106  34.601  0.00  0.00    +0.000 A 
ATOM     11  C   UNL     1      14.840  12.084  33.295  0.00  0.00    +0.000 A 
ATOM     12  C   UNL     1      15.527  11.327  32.359  0.00  0.00    +0.000 A 
ATOM     13  C   UNL     1      16.637  10.606  32.742  0.00  0.00    +0.000 A 
ATOM     14  C   UNL     1      17.088  10.620  34.043  0.00  0.00    +0.000 A 
ATOM     15  C   UNL     1      16.386  11.388  34.979  0.00  0.00    +0.000 A 
ENDBRANCH   4   7
BRANCH   1  16
ATOM     16  C   UNL     1      22.044  10.808  39.047  0.00  0.00    +0.000 C 
BRANCH  16  17
ATOM     17  C   UNL     1      23.333  10.544  38.338  0.00  0.00    +0.000 C 
BRANCH  17  19
ATOM     18  C   UNL     1      23.424   9.057  36.585  0.00  0.00    +0.000 C 
ATOM     19  O   UNL     1      23.432   9.221  37.957  0.00  0.00    +0.000 OA
ENDBRANCH  17  19
ENDBRANCH  16  17
ENDBRANCH   1  16
TORSDOF 4
ENDMDL
MODEL 6
REMARK VINA RESULT:      -5.2     30.212     32.292
REMARK  Name = 
REMARK  4 active torsions:
REMARK  status: ('A' for Active; 'I' for Inactive)
REMARK    1  A    between atoms: O_2  and  C_3
REMARK    2  A    between atoms: C_3  and  C_4
REMARK    3  A    between atoms: C_4  and  N_5
REMARK    4  A    between atoms: C_8  and  C_9
REMARK                            x       y       z     vdW  Elec       q    Type
REMARK                         _______ _______ _______ _____ _____    ______ ____
ROOT
ATOM      1  N   UNL     1      18.183   8.057  40.296  0.00  0.00    +0.000 NA
ATOM      2  C   UNL     1      18.372   9.069  39.279  0.00  0.00    +0.000 A 
ATOM      3  N   UNL     1      17.431   9.595  38.503  0.00  0.00    +0.000 NA
ATOM      4  C   UNL     1      17.755  10.484  37.625  0.00  0.00    +0.000 A 
ATOM      5  C   UNL     1      19.081  10.840  37.543  0.00  0.00    +0.000 A 
ATOM      6  S   UNL     1      19.788   9.864  38.747  0.00  0.00    +0.000 S 
ENDROOT
BRANCH   4   7
ATOM      7  C   UNL     1      16.763  11.122  36.719  0.00  0.00    +0.000 A 
ATOM      8  C   UNL     1      15.765  11.973  37.111  0.00  0.00    +0.000 A 
ATOM      9  N   UNL     1      15.075  12.342  36.019  0.00  0.00    +0.000 NA
ATOM     10  C   UNL     1      15.611  11.745  34.947  0.00  0.00    +0.000 A 
ATOM     11  C   UNL     1      15.262  11.807  33.616  0.00  0.00    +0.000 A 
ATOM     12  C   UNL     1      15.991  11.081  32.686  0.00  0.00    +0.000 A 
ATOM     13  C   UNL     1      17.053  10.308  33.102  0.00  0.00    +0.000 A 
ATOM     14  C   UNL     1      17.414  10.238  34.429  0.00  0.00    +0.000 A 
ATOM     15  C   UNL     1      16.670  10.975  35.357  0.00  0.00    +0.000 A 
ENDBRANCH   4   7
BRANCH   1  16
ATOM     16  C   UNL     1      19.181   7.537  41.123  0.00  0.00    +0.000 C 
BRANCH  16  17
ATOM     17  C   UNL     1      19.627   6.177  40.692  0.00  0.00    +0.000 C 
BRANCH  17  19
ATOM     18  C   UNL     1      21.423   4.742  40.610  0.00  0.00    +0.000 C 
ATOM     19  O   UNL     1      20.891   5.891  41.165  0.00  0.00    +0.000 OA
ENDBRANCH  17  19
ENDBRANCH  16  17
ENDBRANCH   1  16
TORSDOF 4
ENDMDL
MODEL 7
REMARK VINA RESULT:      -5.1     30.406     32.409
REMARK  Name = 
REMARK  4 active torsions:
REMARK  status: ('A' for Active; 'I' for Inactive)
REMARK    1  A    between atoms: O_2  and  C_3
REMARK    2  A    between atoms: C_3  and  C_4
REMARK    3  A    between atoms: C_4  and  N_5
REMARK    4  A    between atoms: C_8  and  C_9
REMARK                            x       y       z     vdW  Elec       q    Type
REMARK                         _______ _______ _______ _____ _____    ______ ____
ROOT
ATOM      1  N   UNL     1      18.810   7.362  39.965  0.00  0.00    +0.000 NA
ATOM      2  C   UNL     1      18.866   8.579  39.183  0.00  0.00    +0.000 A 
ATOM      3  N   UNL     1      18.219   8.818  38.048  0.00  0.00    +0.000 NA
ATOM      4  C   UNL     1      18.381   9.951  37.452  0.00  0.00    +0.000 A 
ATOM      5  C   UNL     1      19.229  10.861  38.039  0.00  0.00    +0.000 A 
ATOM      6  S   UNL     1      19.747  10.021  39.427  0.00  0.00    +0.000 S 
ENDROOT
BRANCH   4   7
ATOM      7  C   UNL     1      17.694  10.298  36.178  0.00  0.00    +0.000 A 
ATOM      8  C   UNL     1      18.047   9.840  34.938  0.00  0.00    +0.000 A 
ATOM      9  N   UNL     1      17.200  10.368  34.039  0.00  0.00    +0.000 NA
ATOM     10  C   UNL     1      16.322  11.148  34.680  0.00  0.00    +0.000 A 
ATOM     11  C   UNL     1      15.270  11.898  34.200  0.00  0.00    +0.000 A 
ATOM     12  C   UNL     1      14.497  12.632  35.087  0.00  0.00    +0.000 A 
ATOM     13  C   UNL     1      14.789  12.605  36.434  0.00  0.00    +0.000 A 
ATOM     14  C   UNL     1      15.836  11.859  36.926  0.00  0.00    +0.000 A 
ATOM     15  C   UNL     1      16.608  11.123  36.021  0.00  0.00    +0.000 A 
ENDBRANCH   4   7
BRANCH   1  16
ATOM     16  C   UNL     1      19.475   7.140  41.174  0.00  0.00    +0.000 C 
BRANCH  16  17
ATOM     17  C   UNL     1      20.792   6.460  40.983  0.00  0.00    +0.000 C 
BRANCH  17  19
ATOM     18  C   UNL     1      20.670   4.289  40.233  0.00  0.00    +0.000 C 
ATOM     19  O   UNL     1      20.722   5.127  41.331  0.00  0.00    +0.000 OA
ENDBRANCH  17  19
ENDBRANCH  16  17
ENDBRANCH   1  16
TORSDOF 4
ENDMDL
MODEL 8
REMARK VINA RESULT:      -5.1     36.961     38.604
REMARK  Name = 
REMARK  4 active torsions:
REMARK  status: ('A' for Active; 'I' for Inactive)
REMARK    1  A    between atoms: O_2  and  C_3
REMARK    2  A    between atoms: C_3  and  C_4
REMARK    3  A    between atoms: C_4  and  N_5
REMARK    4  A    between atoms: C_8  and  C_9
REMARK                            x       y       z     vdW  Elec       q    Type
REMARK                         _______ _______ _______ _____ _____    ______ ____
ROOT
ATOM      1  N   UNL     1      17.518 -11.339  30.489  0.00  0.00    +0.000 NA
ATOM      2  C   UNL     1      17.207 -10.657  29.251  0.00  0.00    +0.000 A 
ATOM      3  N   UNL     1      17.755  -9.530  28.811  0.00  0.00    +0.000 NA
ATOM      4  C   UNL     1      17.362  -9.029  27.688  0.00  0.00    +0.000 A 
ATOM      5  C   UNL     1      16.381  -9.705  27.001  0.00  0.00    +0.000 A 
ATOM      6  S   UNL     1      16.080 -11.033  28.024  0.00  0.00    +0.000 S 
ENDROOT
BRANCH   4   7
ATOM      7  C   UNL     1      17.924  -7.772  27.125  0.00  0.00    +0.000 A 
ATOM      8  C   UNL     1      17.297  -6.556  27.120  0.00  0.00    +0.000 A 
ATOM      9  N   UNL     1      18.111  -5.666  26.529  0.00  0.00    +0.000 NA
ATOM     10  C   UNL     1      19.236  -6.289  26.159  0.00  0.00    +0.000 A 
ATOM     11  C   UNL     1      20.361  -5.810  25.523  0.00  0.00    +0.000 A 
ATOM     12  C   UNL     1      21.408  -6.675  25.248  0.00  0.00    +0.000 A 
ATOM     13  C   UNL     1      21.314  -8.002  25.612  0.00  0.00    +0.000 A 
ATOM     14  C   UNL     1      20.196  -8.493  26.248  0.00  0.00    +0.000 A 
ATOM     15  C   UNL     1      19.146  -7.609  26.520  0.00  0.00    +0.000 A 
ENDBRANCH   4   7
BRANCH   1  16
ATOM     16  C   UNL     1      16.952 -12.540  30.922  0.00  0.00    +0.000 C 
BRANCH  16  17
ATOM     17  C   UNL     1      15.901 -12.332  31.963  0.00  0.00    +0.000 C 
BRANCH  17  19
ATOM     18  C   UNL     1      13.899 -11.287  32.401  0.00  0.00    +0.000 C 
ATOM     19  O   UNL     1      14.782 -11.724  31.432  0.00  0.00    +0.000 OA
ENDBRANCH  17  19
ENDBRANCH  16  17
ENDBRANCH   1  16
TORSDOF 4
ENDMDL
MODEL 9
REMARK VINA RESULT:      -5.0     29.853     30.538
REMARK  Name = 
REMARK  4 active torsions:
REMARK  status: ('A' for Active; 'I' for Inactive)
REMARK    1  A    between atoms: O_2  and  C_3
REMARK    2  A    between atoms: C_3  and  C_4
REMARK    3  A    between atoms: C_4  and  N_5
REMARK    4  A    between atoms: C_8  and  C_9
REMARK                            x       y       z     vdW  Elec       q    Type
REMARK                         _______ _______ _______ _____ _____    ______ ____
ROOT
ATOM      1  N   UNL     1      22.386  10.002  37.652  0.00  0.00    +0.000 NA
ATOM      2  C   UNL     1      20.953   9.800  37.674  0.00  0.00    +0.000 A 
ATOM      3  N   UNL     1      20.100  10.082  36.696  0.00  0.00    +0.000 NA
ATOM      4  C   UNL     1      18.840   9.860  36.868  0.00  0.00    +0.000 A 
ATOM      5  C   UNL     1      18.449   9.334  38.077  0.00  0.00    +0.000 A 
ATOM      6  S   UNL     1      19.932   9.190  38.901  0.00  0.00    +0.000 S 
ENDROOT
BRANCH   4   7
ATOM      7  C   UNL     1      17.820  10.147  35.823  0.00  0.00    +0.000 A 
ATOM      8  C   UNL     1      17.726   9.514  34.614  0.00  0.00    +0.000 A 
ATOM      9  N   UNL     1      16.688  10.041  33.944  0.00  0.00    +0.000 NA
ATOM     10  C   UNL     1      16.125  10.992  34.700  0.00  0.00    +0.000 A 
ATOM     11  C   UNL     1      15.043  11.811  34.455  0.00  0.00    +0.000 A 
ATOM     12  C   UNL     1      14.653  12.729  35.418  0.00  0.00    +0.000 A 
ATOM     13  C   UNL     1      15.350  12.814  36.604  0.00  0.00    +0.000 A 
ATOM     14  C   UNL     1      16.431  12.002  36.862  0.00  0.00    +0.000 A 
ATOM     15  C   UNL     1      16.814  11.080  35.882  0.00  0.00    +0.000 A 
ENDBRANCH   4   7
BRANCH   1  16
ATOM     16  C   UNL     1      23.271   9.671  38.681  0.00  0.00    +0.000 C 
BRANCH  16  17
ATOM     17  C   UNL     1      24.614  10.301  38.502  0.00  0.00    +0.000 C 
BRANCH  17  19
ATOM     18  C   UNL     1      26.746   9.608  37.987  0.00  0.00    +0.000 C 
ATOM     19  O   UNL     1      25.407   9.557  37.652  0.00  0.00    +0.000 OA
ENDBRANCH  17  19
ENDBRANCH  16  17
ENDBRANCH   1  16
TORSDOF 4
ENDMDL
MODEL 10
REMARK VINA RESULT:      -5.0     37.313     38.955
REMARK  Name = 
REMARK  4 active torsions:
REMARK  status: ('A' for Active; 'I' for Inactive)
REMARK    1  A    between atoms: O_2  and  C_3
REMARK    2  A    between atoms: C_3  and  C_4
REMARK    3  A    between atoms: C_4  and  N_5
REMARK    4  A    between atoms: C_8  and  C_9
REMARK                            x       y       z     vdW  Elec       q    Type
REMARK                         _______ _______ _______ _____ _____    ______ ____
ROOT
ATOM      1  N   UNL     1      14.993 -11.568  28.904  0.00  0.00    +0.000 NA
ATOM      2  C   UNL     1      16.213 -10.817  29.112  0.00  0.00    +0.000 A 
ATOM      3  N   UNL     1      16.976 -10.274  28.170  0.00  0.00    +0.000 NA
ATOM      4  C   UNL     1      18.050  -9.642  28.509  0.00  0.00    +0.000 A 
ATOM      5  C   UNL     1      18.345  -9.569  29.851  0.00  0.00    +0.000 A 
ATOM      6  S   UNL     1      17.047 -10.422  30.549  0.00  0.00    +0.000 S 
ENDROOT
BRANCH   4   7
ATOM      7  C   UNL     1      18.958  -9.005  27.518  0.00  0.00    +0.000 A 
ATOM      8  C   UNL     1      19.953  -9.645  26.830  0.00  0.00    +0.000 A 
ATOM      9  N   UNL     1      20.555  -8.748  26.032  0.00  0.00    +0.000 NA
ATOM     10  C   UNL     1      19.966  -7.557  26.199  0.00  0.00    +0.000 A 
ATOM     11  C   UNL     1      20.222  -6.338  25.611  0.00  0.00    +0.000 A 
ATOM     12  C   UNL     1      19.454  -5.238  25.961  0.00  0.00    +0.000 A 
ATOM     13  C   UNL     1      18.447  -5.375  26.892  0.00  0.00    +0.000 A 
ATOM     14  C   UNL     1      18.180  -6.588  27.487  0.00  0.00    +0.000 A 
ATOM     15  C   UNL     1      18.962  -7.690  27.124  0.00  0.00    +0.000 A 
ENDBRANCH   4   7
BRANCH   1  16
ATOM     16  C   UNL     1      14.187 -12.108  29.910  0.00  0.00    +0.000 C 
BRANCH  16  17
ATOM     17  C   UNL     1      12.903 -11.361  30.071  0.00  0.00    +0.000 C 
BRANCH  17  19
ATOM     18  C   UNL     1      13.423 -10.344  32.068  0.00  0.00    +0.000 C 
ATOM     19  O   UNL     1      12.576 -11.210  31.403  0.00  0.00    +0.000 OA
ENDBRANCH  17  19
ENDBRANCH  16  17
ENDBRANCH   1  16
TORSDOF 4
ENDMDL
