MODEL 1
REMARK VINA RESULT:      -7.3      0.000      0.000
REMARK  Name = 
REMARK  3 active torsions:
REMARK  status: ('A' for Active; 'I' for Inactive)
REMARK    1  A    between atoms: C_4  and  N_5
REMARK    2  A    between atoms: N_5  and  N_6
REMARK    3  A    between atoms: C_7  and  C_9
REMARK                            x       y       z     vdW  Elec       q    Type
REMARK                         _______ _______ _______ _____ _____    ______ ____
ROOT
ATOM      1  N   UNL     1      17.719  10.443  36.519  0.00  0.00    +0.000 NA
ATOM      2  C   UNL     1      17.192  10.036  35.288  0.00  0.00    +0.000 C 
ATOM      3  O   UNL     1      17.339   8.818  34.965  0.00  0.00    +0.000 OA
ENDROOT
BRANCH   2   4
ATOM      4  C   UNL     1      16.479  10.946  34.355  0.00  0.00    +0.000 A 
ATOM      5  C   UNL     1      16.690  11.151  33.038  0.00  0.00    +0.000 A 
ATOM      6  C   UNL     1      15.923  12.032  32.389  0.00  0.00    +0.000 A 
ATOM      7  C   UNL     1      14.958  12.672  33.134  0.00  0.00    +0.000 A 
ATOM      8  S   UNL     1      15.180  12.007  34.688  0.00  0.00    +0.000 S 
ATOM      9  C   UNL     1      14.055  13.680  32.465  0.00  0.00    +0.000 C 
ATOM     10  C   UNL     1      13.652  13.295  31.090  0.00  0.00    +0.000 C 
ATOM     11  C   UNL     1      14.480  12.187  30.493  0.00  0.00    +0.000 C 
ATOM     12  C   UNL     1      15.926  12.467  30.928  0.00  0.00    +0.000 C 
ENDBRANCH   2   4
BRANCH   1  13
ATOM     13  N   UNL     1      18.381   9.725  37.455  0.00  0.00    +0.000 NA
BRANCH  13  17
ATOM     14  C   UNL     1      16.081   9.323  41.983  0.00  0.00    +0.000 C 
ATOM     15  C   UNL     1      17.027   9.228  40.828  0.00  0.00    +0.000 C 
ATOM     16  C   UNL     1      16.928   9.722  39.626  0.00  0.00    +0.000 C 
ATOM     17  C   UNL     1      18.059   9.414  38.776  0.00  0.00    +0.000 C 
ATOM     18  C   UNL     1      18.893   8.680  39.539  0.00  0.00    +0.000 C 
ATOM     19  C   UNL     1      18.314   8.508  40.875  0.00  0.00    +0.000 C 
ENDBRANCH  13  17
ENDBRANCH   1  13
TORSDOF 3
ENDMDL
MODEL 2
REMARK VINA RESULT:      -7.1      2.374      3.458
REMARK  Name = 
REMARK  3 active torsions:
REMARK  status: ('A' for Active; 'I' for Inactive)
REMARK    1  A    between atoms: C_4  and  N_5
REMARK    2  A    between atoms: N_5  and  N_6
REMARK    3  A    between atoms: C_7  and  C_9
REMARK                            x       y       z     vdW  Elec       q    Type
REMARK                         _______ _______ _______ _____ _____    ______ ____
ROOT
ATOM      1  N   UNL     1      17.755  10.548  36.139  0.00  0.00    +0.000 NA
ATOM      2  C   UNL     1      16.558  11.259  36.000  0.00  0.00    +0.000 C 
ATOM      3  O   UNL     1      15.994  11.665  37.062  0.00  0.00    +0.000 OA
ENDROOT
BRANCH   2   4
ATOM      4  C   UNL     1      15.923  11.557  34.690  0.00  0.00    +0.000 A 
ATOM      5  C   UNL     1      15.100  12.573  34.355  0.00  0.00    +0.000 A 
ATOM      6  C   UNL     1      14.638  12.645  33.103  0.00  0.00    +0.000 A 
ATOM      7  C   UNL     1      15.048  11.654  32.240  0.00  0.00    +0.000 A 
ATOM      8  S   UNL     1      16.051  10.688  33.223  0.00  0.00    +0.000 S 
ATOM      9  C   UNL     1      14.564  11.672  30.809  0.00  0.00    +0.000 C 
ATOM     10  C   UNL     1      14.481  13.035  30.228  0.00  0.00    +0.000 C 
ATOM     11  C   UNL     1      14.541  14.144  31.248  0.00  0.00    +0.000 C 
ATOM     12  C   UNL     1      13.709  13.656  32.442  0.00  0.00    +0.000 C 
ENDBRANCH   2   4
BRANCH   1  13
ATOM     13  N   UNL     1      18.436  10.212  37.259  0.00  0.00    +0.000 NA
BRANCH  13  17
ATOM     14  C   UNL     1      23.422   9.345  36.672  0.00  0.00    +0.000 C 
ATOM     15  C   UNL     1      22.048   9.576  37.219  0.00  0.00    +0.000 C 
ATOM     16  C   UNL     1      20.926   9.789  36.592  0.00  0.00    +0.000 C 
ATOM     17  C   UNL     1      19.793   9.970  37.475  0.00  0.00    +0.000 C 
ATOM     18  C   UNL     1      20.286   9.852  38.723  0.00  0.00    +0.000 C 
ATOM     19  C   UNL     1      21.729   9.598  38.660  0.00  0.00    +0.000 C 
ENDBRANCH  13  17
ENDBRANCH   1  13
TORSDOF 3
ENDMDL
MODEL 3
REMARK VINA RESULT:      -7.0      2.703      3.379
REMARK  Name = 
REMARK  3 active torsions:
REMARK  status: ('A' for Active; 'I' for Inactive)
REMARK    1  A    between atoms: C_4  and  N_5
REMARK    2  A    between atoms: N_5  and  N_6
REMARK    3  A    between atoms: C_7  and  C_9
REMARK                            x       y       z     vdW  Elec       q    Type
REMARK                         _______ _______ _______ _____ _____    ______ ____
ROOT
ATOM      1  N   UNL     1      17.514  11.415  36.521  0.00  0.00    +0.000 NA
ATOM      2  C   UNL     1      16.162  11.363  36.168  0.00  0.00    +0.000 C 
ATOM      3  O   UNL     1      15.332  11.060  37.080  0.00  0.00    +0.000 OA
ENDROOT
BRANCH   2   4
ATOM      4  C   UNL     1      15.655  11.641  34.799  0.00  0.00    +0.000 A 
ATOM      5  C   UNL     1      14.885  12.661  34.367  0.00  0.00    +0.000 A 
ATOM      6  C   UNL     1      14.540  12.711  33.078  0.00  0.00    +0.000 A 
ATOM      7  C   UNL     1      15.011  11.695  32.277  0.00  0.00    +0.000 A 
ATOM      8  S   UNL     1      15.902  10.737  33.369  0.00  0.00    +0.000 S 
ATOM      9  C   UNL     1      14.660  11.688  30.808  0.00  0.00    +0.000 C 
ATOM     10  C   UNL     1      14.655  13.038  30.193  0.00  0.00    +0.000 C 
ATOM     11  C   UNL     1      14.641  14.169  31.189  0.00  0.00    +0.000 C 
ATOM     12  C   UNL     1      13.694  13.722  32.312  0.00  0.00    +0.000 C 
ENDBRANCH   2   4
BRANCH   1  13
ATOM     13  N   UNL     1      18.105  11.189  37.718  0.00  0.00    +0.000 NA
BRANCH  13  17
ATOM     14  C   UNL     1      21.792  14.405  39.138  0.00  0.00    +0.000 C 
ATOM     15  C   UNL     1      20.887  13.225  38.971  0.00  0.00    +0.000 C 
ATOM     16  C   UNL     1      19.838  13.081  38.212  0.00  0.00    +0.000 C 
ATOM     17  C   UNL     1      19.215  11.778  38.323  0.00  0.00    +0.000 C 
ATOM     18  C   UNL     1      19.958  11.099  39.219  0.00  0.00    +0.000 C 
ATOM     19  C   UNL     1      21.056  11.949  39.692  0.00  0.00    +0.000 C 
ENDBRANCH  13  17
ENDBRANCH   1  13
TORSDOF 3
ENDMDL
MODEL 4
REMARK VINA RESULT:      -6.8     20.573     23.820
REMARK  Name = 
REMARK  3 active torsions:
REMARK  status: ('A' for Active; 'I' for Inactive)
REMARK    1  A    between atoms: C_4  and  N_5
REMARK    2  A    between atoms: N_5  and  N_6
REMARK    3  A    between atoms: C_7  and  C_9
REMARK                            x       y       z     vdW  Elec       q    Type
REMARK                         _______ _______ _______ _____ _____    ______ ____
ROOT
ATOM      1  N   UNL     1      29.570  24.392  21.990  0.00  0.00    +0.000 NA
ATOM      2  C   UNL     1      28.566  23.650  22.622  0.00  0.00    +0.000 C 
ATOM      3  O   UNL     1      27.554  23.328  21.926  0.00  0.00    +0.000 OA
ENDROOT
BRANCH   2   4
ATOM      4  C   UNL     1      28.625  23.226  24.044  0.00  0.00    +0.000 A 
ATOM      5  C   UNL     1      29.683  22.788  24.759  0.00  0.00    +0.000 A 
ATOM      6  C   UNL     1      29.504  22.451  26.039  0.00  0.00    +0.000 A 
ATOM      7  C   UNL     1      28.226  22.582  26.535  0.00  0.00    +0.000 A 
ATOM      8  S   UNL     1      27.357  23.166  25.190  0.00  0.00    +0.000 S 
ATOM      9  C   UNL     1      27.951  22.220  27.975  0.00  0.00    +0.000 C 
ATOM     10  C   UNL     1      29.042  22.608  28.903  0.00  0.00    +0.000 C 
ATOM     11  C   UNL     1      30.340  22.950  28.219  0.00  0.00    +0.000 C 
ATOM     12  C   UNL     1      30.490  21.933  27.079  0.00  0.00    +0.000 C 
ENDBRANCH   2   4
BRANCH   1  13
ATOM     13  N   UNL     1      29.643  24.837  20.714  0.00  0.00    +0.000 NA
BRANCH  13  17
ATOM     14  C   UNL     1      30.200  29.000  17.829  0.00  0.00    +0.000 C 
ATOM     15  C   UNL     1      29.809  28.011  18.883  0.00  0.00    +0.000 C 
ATOM     16  C   UNL     1      30.150  26.761  19.021  0.00  0.00    +0.000 C 
ATOM     17  C   UNL     1      29.562  26.124  20.181  0.00  0.00    +0.000 C 
ATOM     18  C   UNL     1      28.815  27.075  20.775  0.00  0.00    +0.000 C 
ATOM     19  C   UNL     1      28.912  28.323  20.012  0.00  0.00    +0.000 C 
ENDBRANCH  13  17
ENDBRANCH   1  13
TORSDOF 3
ENDMDL
MODEL 5
REMARK VINA RESULT:      -6.7      1.707      2.097
REMARK  Name = 
REMARK  3 active torsions:
REMARK  status: ('A' for Active; 'I' for Inactive)
REMARK    1  A    between atoms: C_4  and  N_5
REMARK    2  A    between atoms: N_5  and  N_6
REMARK    3  A    between atoms: C_7  and  C_9
REMARK                            x       y       z     vdW  Elec       q    Type
REMARK                         _______ _______ _______ _____ _____    ______ ____
ROOT
ATOM      1  N   UNL     1      17.975  10.064  35.597  0.00  0.00    +0.000 NA
ATOM      2  C   UNL     1      16.729  10.691  35.705  0.00  0.00    +0.000 C 
ATOM      3  O   UNL     1      16.119  10.587  36.814  0.00  0.00    +0.000 OA
ENDROOT
BRANCH   2   4
ATOM      4  C   UNL     1      16.094  11.461  34.605  0.00  0.00    +0.000 A 
ATOM      5  C   UNL     1      16.424  11.507  33.297  0.00  0.00    +0.000 A 
ATOM      6  C   UNL     1      15.709  12.281  32.476  0.00  0.00    +0.000 A 
ATOM      7  C   UNL     1      14.671  12.984  33.045  0.00  0.00    +0.000 A 
ATOM      8  S   UNL     1      14.755  12.522  34.683  0.00  0.00    +0.000 S 
ATOM      9  C   UNL     1      13.820  13.880  32.176  0.00  0.00    +0.000 C 
ATOM     10  C   UNL     1      13.552  13.318  30.829  0.00  0.00    +0.000 C 
ATOM     11  C   UNL     1      14.447  12.165  30.453  0.00  0.00    +0.000 C 
ATOM     12  C   UNL     1      15.842  12.532  30.979  0.00  0.00    +0.000 C 
ENDBRANCH   2   4
BRANCH   1  13
ATOM     13  N   UNL     1      18.663   9.342  36.511  0.00  0.00    +0.000 NA
BRANCH  13  17
ATOM     14  C   UNL     1      20.418  10.513  41.148  0.00  0.00    +0.000 C 
ATOM     15  C   UNL     1      20.261  10.268  39.680  0.00  0.00    +0.000 C 
ATOM     16  C   UNL     1      19.223   9.849  39.012  0.00  0.00    +0.000 C 
ATOM     17  C   UNL     1      19.458   9.734  37.587  0.00  0.00    +0.000 C 
ATOM     18  C   UNL     1      20.736  10.118  37.401  0.00  0.00    +0.000 C 
ATOM     19  C   UNL     1      21.334  10.479  38.690  0.00  0.00    +0.000 C 
ENDBRANCH  13  17
ENDBRANCH   1  13
TORSDOF 3
ENDMDL
MODEL 6
REMARK VINA RESULT:      -6.6      4.427      7.471
REMARK  Name = 
REMARK  3 active torsions:
REMARK  status: ('A' for Active; 'I' for Inactive)
REMARK    1  A    between atoms: C_4  and  N_5
REMARK    2  A    between atoms: N_5  and  N_6
REMARK    3  A    between atoms: C_7  and  C_9
REMARK                            x       y       z     vdW  Elec       q    Type
REMARK                         _______ _______ _______ _____ _____    ______ ____
ROOT
ATOM      1  N   UNL     1      18.004  10.440  38.044  0.00  0.00    +0.000 NA
ATOM      2  C   UNL     1      18.923   9.833  37.181  0.00  0.00    +0.000 C 
ATOM      3  O   UNL     1      18.455   9.150  36.218  0.00  0.00    +0.000 OA
ENDROOT
BRANCH   2   4
ATOM      4  C   UNL     1      20.397   9.947  37.333  0.00  0.00    +0.000 A 
ATOM      5  C   UNL     1      21.365   9.744  36.415  0.00  0.00    +0.000 A 
ATOM      6  C   UNL     1      22.641   9.899  36.776  0.00  0.00    +0.000 A 
ATOM      7  C   UNL     1      22.869  10.262  38.084  0.00  0.00    +0.000 A 
ATOM      8  S   UNL     1      21.294  10.364  38.727  0.00  0.00    +0.000 S 
ATOM      9  C   UNL     1      24.289  10.456  38.562  0.00  0.00    +0.000 C 
ATOM     10  C   UNL     1      25.171  11.097  37.556  0.00  0.00    +0.000 C 
ATOM     11  C   UNL     1      24.606  11.107  36.159  0.00  0.00    +0.000 C 
ATOM     12  C   UNL     1      23.928   9.742  35.975  0.00  0.00    +0.000 C 
ENDBRANCH   2   4
BRANCH   1  13
ATOM     13  N   UNL     1      16.651  10.420  38.020  0.00  0.00    +0.000 NA
BRANCH  13  17
ATOM     14  C   UNL     1      12.447  12.901  36.562  0.00  0.00    +0.000 C 
ATOM     15  C   UNL     1      13.833  12.347  36.681  0.00  0.00    +0.000 C 
ATOM     16  C   UNL     1      14.332  11.534  37.569  0.00  0.00    +0.000 C 
ATOM     17  C   UNL     1      15.729  11.222  37.349  0.00  0.00    +0.000 C 
ATOM     18  C   UNL     1      16.081  11.905  36.242  0.00  0.00    +0.000 C 
ATOM     19  C   UNL     1      14.927  12.658  35.741  0.00  0.00    +0.000 C 
ENDBRANCH  13  17
ENDBRANCH   1  13
TORSDOF 3
ENDMDL
MODEL 7
REMARK VINA RESULT:      -6.6     21.623     24.870
REMARK  Name = 
REMARK  3 active torsions:
REMARK  status: ('A' for Active; 'I' for Inactive)
REMARK    1  A    between atoms: C_4  and  N_5
REMARK    2  A    between atoms: N_5  and  N_6
REMARK    3  A    between atoms: C_7  and  C_9
REMARK                            x       y       z     vdW  Elec       q    Type
REMARK                         _______ _______ _______ _____ _____    ______ ____
ROOT
ATOM      1  N   UNL     1      29.671  25.012  20.835  0.00  0.00    +0.000 NA
ATOM      2  C   UNL     1      28.564  24.861  21.677  0.00  0.00    +0.000 C 
ATOM      3  O   UNL     1      27.471  25.387  21.303  0.00  0.00    +0.000 OA
ENDROOT
BRANCH   2   4
ATOM      4  C   UNL     1      28.603  24.128  22.969  0.00  0.00    +0.000 A 
ATOM      5  C   UNL     1      29.644  23.511  23.566  0.00  0.00    +0.000 A 
ATOM      6  C   UNL     1      29.449  22.901  24.738  0.00  0.00    +0.000 A 
ATOM      7  C   UNL     1      28.173  22.953  25.252  0.00  0.00    +0.000 A 
ATOM      8  S   UNL     1      27.328  23.848  24.073  0.00  0.00    +0.000 S 
ATOM      9  C   UNL     1      27.879  22.285  26.575  0.00  0.00    +0.000 C 
ATOM     10  C   UNL     1      28.975  22.424  27.565  0.00  0.00    +0.000 C 
ATOM     11  C   UNL     1      30.287  22.875  26.974  0.00  0.00    +0.000 C 
ATOM     12  C   UNL     1      30.415  22.135  25.635  0.00  0.00    +0.000 C 
ENDBRANCH   2   4
BRANCH   1  13
ATOM     13  N   UNL     1      29.772  25.646  19.644  0.00  0.00    +0.000 NA
BRANCH  13  17
ATOM     14  C   UNL     1      31.821  29.794  17.512  0.00  0.00    +0.000 C 
ATOM     15  C   UNL     1      31.052  28.838  18.368  0.00  0.00    +0.000 C 
ATOM     16  C   UNL     1      30.992  27.537  18.317  0.00  0.00    +0.000 C 
ATOM     17  C   UNL     1      30.129  26.956  19.325  0.00  0.00    +0.000 C 
ATOM     18  C   UNL     1      29.642  27.998  20.027  0.00  0.00    +0.000 C 
ATOM     19  C   UNL     1      30.180  29.250  19.484  0.00  0.00    +0.000 C 
ENDBRANCH  13  17
ENDBRANCH   1  13
TORSDOF 3
ENDMDL
MODEL 8
REMARK VINA RESULT:      -6.6      2.140      8.346
REMARK  Name = 
REMARK  3 active torsions:
REMARK  status: ('A' for Active; 'I' for Inactive)
REMARK    1  A    between atoms: C_4  and  N_5
REMARK    2  A    between atoms: N_5  and  N_6
REMARK    3  A    between atoms: C_7  and  C_9
REMARK                            x       y       z     vdW  Elec       q    Type
REMARK                         _______ _______ _______ _____ _____    ______ ____
ROOT
ATOM      1  N   UNL     1      17.002  10.958  35.982  0.00  0.00    +0.000 NA
ATOM      2  C   UNL     1      17.576  11.223  37.230  0.00  0.00    +0.000 C 
ATOM      3  O   UNL     1      18.126  12.356  37.389  0.00  0.00    +0.000 OA
ENDROOT
BRANCH   2   4
ATOM      4  C   UNL     1      17.574  10.260  38.361  0.00  0.00    +0.000 A 
ATOM      5  C   UNL     1      16.744  10.196  39.423  0.00  0.00    +0.000 A 
ATOM      6  C   UNL     1      16.931   9.237  40.334  0.00  0.00    +0.000 A 
ATOM      7  C   UNL     1      17.980   8.373  40.108  0.00  0.00    +0.000 A 
ATOM      8  S   UNL     1      18.636   8.950  38.645  0.00  0.00    +0.000 S 
ATOM      9  C   UNL     1      18.251   7.264  41.097  0.00  0.00    +0.000 C 
ATOM     10  C   UNL     1      17.019   6.647  41.648  0.00  0.00    +0.000 C 
ATOM     11  C   UNL     1      15.767   7.451  41.410  0.00  0.00    +0.000 C 
ATOM     12  C   UNL     1      16.170   8.918  41.615  0.00  0.00    +0.000 C 
ENDBRANCH   2   4
BRANCH   1  13
ATOM     13  N   UNL     1      16.931  11.738  34.879  0.00  0.00    +0.000 NA
BRANCH  13  17
ATOM     14  C   UNL     1      14.351  11.957  30.491  0.00  0.00    +0.000 C 
ATOM     15  C   UNL     1      15.262  11.578  31.617  0.00  0.00    +0.000 C 
ATOM     16  C   UNL     1      15.451  12.159  32.768  0.00  0.00    +0.000 C 
ATOM     17  C   UNL     1      16.425  11.488  33.603  0.00  0.00    +0.000 C 
ATOM     18  C   UNL     1      16.842  10.425  32.888  0.00  0.00    +0.000 C 
ATOM     19  C   UNL     1      16.150  10.400  31.596  0.00  0.00    +0.000 C 
ENDBRANCH  13  17
ENDBRANCH   1  13
TORSDOF 3
ENDMDL
MODEL 9
REMARK VINA RESULT:      -6.6     23.116     25.625
REMARK  Name = 
REMARK  3 active torsions:
REMARK  status: ('A' for Active; 'I' for Inactive)
REMARK    1  A    between atoms: C_4  and  N_5
REMARK    2  A    between atoms: N_5  and  N_6
REMARK    3  A    between atoms: C_7  and  C_9
REMARK                            x       y       z     vdW  Elec       q    Type
REMARK                         _______ _______ _______ _____ _____    ______ ____
ROOT
ATOM      1  N   UNL     1      29.547  25.088  20.443  0.00  0.00    +0.000 NA
ATOM      2  C   UNL     1      29.565  26.486  20.488  0.00  0.00    +0.000 C 
ATOM      3  O   UNL     1      29.519  27.033  21.633  0.00  0.00    +0.000 OA
ENDROOT
BRANCH   2   4
ATOM      4  C   UNL     1      29.633  27.350  19.281  0.00  0.00    +0.000 A 
ATOM      5  C   UNL     1      30.377  27.197  18.166  0.00  0.00    +0.000 A 
ATOM      6  C   UNL     1      30.284  28.110  17.195  0.00  0.00    +0.000 A 
ATOM      7  C   UNL     1      29.417  29.156  17.418  0.00  0.00    +0.000 A 
ATOM      8  S   UNL     1      28.787  28.801  18.962  0.00  0.00    +0.000 S 
ATOM      9  C   UNL     1      29.261  30.226  16.363  0.00  0.00    +0.000 C 
ATOM     10  C   UNL     1      29.286  29.699  14.976  0.00  0.00    +0.000 C 
ATOM     11  C   UNL     1      29.811  28.291  14.862  0.00  0.00    +0.000 C 
ATOM     12  C   UNL     1      30.987  28.204  15.846  0.00  0.00    +0.000 C 
ENDBRANCH   2   4
BRANCH   1  13
ATOM     13  N   UNL     1      29.489  24.190  21.453  0.00  0.00    +0.000 NA
BRANCH  13  17
ATOM     14  C   UNL     1      26.842  22.807  25.580  0.00  0.00    +0.000 C 
ATOM     15  C   UNL     1      27.266  23.259  24.218  0.00  0.00    +0.000 C 
ATOM     16  C   UNL     1      28.463  23.433  23.734  0.00  0.00    +0.000 C 
ATOM     17  C   UNL     1      28.472  23.884  22.357  0.00  0.00    +0.000 C 
ATOM     18  C   UNL     1      27.176  23.982  22.002  0.00  0.00    +0.000 C 
ATOM     19  C   UNL     1      26.326  23.600  23.134  0.00  0.00    +0.000 C 
ENDBRANCH  13  17
ENDBRANCH   1  13
TORSDOF 3
ENDMDL
MODEL 10
REMARK VINA RESULT:      -6.5     21.273     23.359
REMARK  Name = 
REMARK  3 active torsions:
REMARK  status: ('A' for Active; 'I' for Inactive)
REMARK    1  A    between atoms: C_4  and  N_5
REMARK    2  A    between atoms: N_5  and  N_6
REMARK    3  A    between atoms: C_7  and  C_9
REMARK                            x       y       z     vdW  Elec       q    Type
REMARK                         _______ _______ _______ _____ _____    ______ ____
ROOT
ATOM      1  N   UNL     1      33.752  -2.491  33.045  0.00  0.00    +0.000 NA
ATOM      2  C   UNL     1      33.511  -3.837  33.338  0.00  0.00    +0.000 C 
ATOM      3  O   UNL     1      33.140  -4.119  34.519  0.00  0.00    +0.000 OA
ENDROOT
BRANCH   2   4
ATOM      4  C   UNL     1      33.663  -4.937  32.351  0.00  0.00    +0.000 A 
ATOM      5  C   UNL     1      33.252  -4.992  31.067  0.00  0.00    +0.000 A 
ATOM      6  C   UNL     1      33.495  -6.097  30.357  0.00  0.00    +0.000 A 
ATOM      7  C   UNL     1      34.160  -7.111  31.008  0.00  0.00    +0.000 A 
ATOM      8  S   UNL     1      34.405  -6.463  32.565  0.00  0.00    +0.000 S 
ATOM      9  C   UNL     1      34.468  -8.390  30.266  0.00  0.00    +0.000 C 
ATOM     10  C   UNL     1      34.856  -8.175  28.850  0.00  0.00    +0.000 C 
ATOM     11  C   UNL     1      34.530  -6.801  28.324  0.00  0.00    +0.000 C 
ATOM     12  C   UNL     1      33.157  -6.445  28.912  0.00  0.00    +0.000 C 
ENDBRANCH   2   4
BRANCH   1  13
ATOM     13  N   UNL     1      33.651  -1.400  33.840  0.00  0.00    +0.000 NA
BRANCH  13  17
ATOM     14  C   UNL     1      33.204   3.673  33.969  0.00  0.00    +0.000 C 
ATOM     15  C   UNL     1      33.514   2.257  33.597  0.00  0.00    +0.000 C 
ATOM     16  C   UNL     1      33.248   1.151  34.232  0.00  0.00    +0.000 C 
ATOM     17  C   UNL     1      33.713  -0.038  33.548  0.00  0.00    +0.000 C 
ATOM     18  C   UNL     1      34.300   0.403  32.418  0.00  0.00    +0.000 C 
ATOM     19  C   UNL     1      34.221   1.866  32.362  0.00  0.00    +0.000 C 
ENDBRANCH  13  17
ENDBRANCH   1  13
TORSDOF 3
ENDMDL
