MODEL 1
REMARK VINA RESULT:      -7.9      0.000      0.000
REMARK  Name = 
REMARK  8 active torsions:
REMARK  status: ('A' for Active; 'I' for Inactive)
REMARK    1  A    between atoms: C_7  and  N_8
REMARK    2  A    between atoms: C_9  and  C_11
REMARK    3  A    between atoms: C_11  and  C_12
REMARK    4  A    between atoms: C_11  and  N_19
REMARK    5  A    between atoms: C_12  and  C_13
REMARK    6  A    between atoms: C_20  and  O_22
REMARK    7  A    between atoms: O_22  and  C_23
REMARK    8  A    between atoms: C_23  and  C_24
REMARK                            x       y       z     vdW  Elec       q    Type
REMARK                         _______ _______ _______ _____ _____    ______ ____
ROOT
ATOM      1  C   UNL     1      36.794   1.812  15.140  0.00  0.00    +0.000 C 
ENDROOT
BRANCH   1   3
ATOM      2  N   UNL     1      38.099   3.684  15.898  0.00  0.00    +0.000 NA
ATOM      3  C   UNL     1      36.948   3.344  15.362  0.00  0.00    +0.000 C 
ATOM      4  O   UNL     1      36.336   4.288  15.189  0.00  0.00    +0.000 OA
BRANCH   2  11
ATOM      5  C   UNL     1      39.780   6.305  19.656  0.00  0.00    +0.000 C 
ATOM      6  C   UNL     1      39.818   5.894  18.225  0.00  0.00    +0.000 A 
ATOM      7  C   UNL     1      40.758   6.450  17.389  0.00  0.00    +0.000 A 
ATOM      8  C   UNL     1      40.829   6.091  16.037  0.00  0.00    +0.000 A 
ATOM      9  C   UNL     1      39.907   5.145  15.559  0.00  0.00    +0.000 A 
ATOM     10  C   UNL     1      39.924   4.715  14.125  0.00  0.00    +0.000 C 
ATOM     11  C   UNL     1      38.956   4.568  16.359  0.00  0.00    +0.000 A 
ATOM     12  C   UNL     1      38.927   4.955  17.686  0.00  0.00    +0.000 A 
ENDBRANCH   2  11
ENDBRANCH   1   3
BRANCH   1  13
ATOM     13  N   UNL     1      37.044   1.385  16.626  0.00  0.00    +0.000 NA
ATOM     14  C   UNL     1      35.879   1.111  17.387  0.00  0.00    +0.000 C 
ATOM     15  O   UNL     1      34.722   1.205  16.901  0.00  0.00    +0.000 OA
BRANCH  14  16
ATOM     16  O   UNL     1      36.002   0.728  18.707  0.00  0.00    +0.000 OA
BRANCH  16  17
ATOM     17  C   UNL     1      35.579  -0.571  19.079  0.00  0.00    +0.000 C 
BRANCH  17  18
ATOM     18  C   UNL     1      36.481  -1.610  18.569  0.00  0.00    +0.000 A 
ATOM     19  C   UNL     1      37.735  -1.728  19.130  0.00  0.00    +0.000 A 
ATOM     20  C   UNL     1      38.591  -2.706  18.655  0.00  0.00    +0.000 A 
ATOM     21  C   UNL     1      38.158  -3.526  17.640  0.00  0.00    +0.000 A 
ATOM     22  C   UNL     1      36.886  -3.393  17.085  0.00  0.00    +0.000 A 
ATOM     23  C   UNL     1      36.030  -2.420  17.554  0.00  0.00    +0.000 A 
ENDBRANCH  17  18
ENDBRANCH  16  17
ENDBRANCH  14  16
ENDBRANCH   1  13
BRANCH   1  24
ATOM     24  C   UNL     1      38.307   1.460  14.624  0.00  0.00    +0.000 C 
BRANCH  24  25
ATOM     25  C   UNL     1      38.417   0.042  14.415  0.00  0.00    +0.000 A 
ATOM     26  C   UNL     1      39.551  -0.577  14.918  0.00  0.00    +0.000 A 
ATOM     27  C   UNL     1      39.803  -1.922  14.798  0.00  0.00    +0.000 A 
ATOM     28  C   UNL     1      38.874  -2.695  14.143  0.00  0.00    +0.000 A 
ATOM     29  C   UNL     1      37.743  -2.110  13.636  0.00  0.00    +0.000 A 
ATOM     30  C   UNL     1      37.522  -0.782  13.768  0.00  0.00    +0.000 A 
ENDBRANCH  24  25
ENDBRANCH   1  24
TORSDOF 8
ENDMDL
MODEL 2
REMARK VINA RESULT:      -7.5      1.591      6.549
REMARK  Name = 
REMARK  8 active torsions:
REMARK  status: ('A' for Active; 'I' for Inactive)
REMARK    1  A    between atoms: C_7  and  N_8
REMARK    2  A    between atoms: C_9  and  C_11
REMARK    3  A    between atoms: C_11  and  C_12
REMARK    4  A    between atoms: C_11  and  N_19
REMARK    5  A    between atoms: C_12  and  C_13
REMARK    6  A    between atoms: C_20  and  O_22
REMARK    7  A    between atoms: O_22  and  C_23
REMARK    8  A    between atoms: C_23  and  C_24
REMARK                            x       y       z     vdW  Elec       q    Type
REMARK                         _______ _______ _______ _____ _____    ______ ____
ROOT
ATOM      1  C   UNL     1      37.396   3.745  15.912  0.00  0.00    +0.000 C 
ENDROOT
BRANCH   1   3
ATOM      2  N   UNL     1      36.514   1.575  16.457  0.00  0.00    +0.000 NA
ATOM      3  C   UNL     1      36.179   2.792  16.087  0.00  0.00    +0.000 C 
ATOM      4  O   UNL     1      35.046   2.841  15.986  0.00  0.00    +0.000 OA
BRANCH   2  11
ATOM      5  C   UNL     1      35.290  -2.940  15.066  0.00  0.00    +0.000 C 
ATOM      6  C   UNL     1      35.613  -1.936  16.118  0.00  0.00    +0.000 A 
ATOM      7  C   UNL     1      35.608  -2.319  17.439  0.00  0.00    +0.000 A 
ATOM      8  C   UNL     1      35.907  -1.406  18.460  0.00  0.00    +0.000 A 
ATOM      9  C   UNL     1      36.211  -0.085  18.090  0.00  0.00    +0.000 A 
ATOM     10  C   UNL     1      36.539   0.943  19.128  0.00  0.00    +0.000 C 
ATOM     11  C   UNL     1      36.227   0.335  16.787  0.00  0.00    +0.000 A 
ATOM     12  C   UNL     1      35.926  -0.603  15.817  0.00  0.00    +0.000 A 
ENDBRANCH   2  11
ENDBRANCH   1   3
BRANCH   1  13
ATOM     13  N   UNL     1      38.461   2.634  15.622  0.00  0.00    +0.000 NA
ATOM     14  C   UNL     1      39.003   2.635  14.311  0.00  0.00    +0.000 C 
ATOM     15  O   UNL     1      38.652   3.473  13.440  0.00  0.00    +0.000 OA
BRANCH  14  16
ATOM     16  O   UNL     1      39.948   1.691  13.965  0.00  0.00    +0.000 OA
BRANCH  16  17
ATOM     17  C   UNL     1      39.583   0.668  13.057  0.00  0.00    +0.000 C 
BRANCH  17  18
ATOM     18  C   UNL     1      39.349  -0.612  13.737  0.00  0.00    +0.000 A 
ATOM     19  C   UNL     1      39.650  -0.711  15.078  0.00  0.00    +0.000 A 
ATOM     20  C   UNL     1      39.432  -1.915  15.726  0.00  0.00    +0.000 A 
ATOM     21  C   UNL     1      38.923  -2.968  15.006  0.00  0.00    +0.000 A 
ATOM     22  C   UNL     1      38.624  -2.851  13.649  0.00  0.00    +0.000 A 
ATOM     23  C   UNL     1      38.840  -1.654  13.000  0.00  0.00    +0.000 A 
ENDBRANCH  17  18
ENDBRANCH  16  17
ENDBRANCH  14  16
ENDBRANCH   1  13
BRANCH   1  24
ATOM     24  C   UNL     1      37.810   3.946  17.483  0.00  0.00    +0.000 C 
BRANCH  24  25
ATOM     25  C   UNL     1      38.869   4.915  17.572  0.00  0.00    +0.000 A 
ATOM     26  C   UNL     1      39.210   5.351  18.843  0.00  0.00    +0.000 A 
ATOM     27  C   UNL     1      40.197   6.272  19.093  0.00  0.00    +0.000 A 
ATOM     28  C   UNL     1      40.884   6.789  18.019  0.00  0.00    +0.000 A 
ATOM     29  C   UNL     1      40.567   6.375  16.752  0.00  0.00    +0.000 A 
ATOM     30  C   UNL     1      39.590   5.466  16.535  0.00  0.00    +0.000 A 
ENDBRANCH  24  25
ENDBRANCH   1  24
TORSDOF 8
ENDMDL
MODEL 3
REMARK VINA RESULT:      -7.4      2.253      7.747
REMARK  Name = 
REMARK  8 active torsions:
REMARK  status: ('A' for Active; 'I' for Inactive)
REMARK    1  A    between atoms: C_7  and  N_8
REMARK    2  A    between atoms: C_9  and  C_11
REMARK    3  A    between atoms: C_11  and  C_12
REMARK    4  A    between atoms: C_11  and  N_19
REMARK    5  A    between atoms: C_12  and  C_13
REMARK    6  A    between atoms: C_20  and  O_22
REMARK    7  A    between atoms: O_22  and  C_23
REMARK    8  A    between atoms: C_23  and  C_24
REMARK                            x       y       z     vdW  Elec       q    Type
REMARK                         _______ _______ _______ _____ _____    ______ ____
ROOT
ATOM      1  C   UNL     1      36.650   2.482  15.427  0.00  0.00    +0.000 C 
ENDROOT
BRANCH   1   3
ATOM      2  N   UNL     1      36.943   0.406  16.605  0.00  0.00    +0.000 NA
ATOM      3  C   UNL     1      36.084   1.115  15.907  0.00  0.00    +0.000 C 
ATOM      4  O   UNL     1      35.110   0.530  15.828  0.00  0.00    +0.000 OA
BRANCH   2  11
ATOM      5  C   UNL     1      39.267  -3.883  16.756  0.00  0.00    +0.000 C 
ATOM      6  C   UNL     1      38.448  -2.814  17.393  0.00  0.00    +0.000 A 
ATOM      7  C   UNL     1      38.060  -2.954  18.705  0.00  0.00    +0.000 A 
ATOM      8  C   UNL     1      37.289  -1.972  19.342  0.00  0.00    +0.000 A 
ATOM      9  C   UNL     1      36.925  -0.837  18.597  0.00  0.00    +0.000 A 
ATOM     10  C   UNL     1      36.102   0.251  19.214  0.00  0.00    +0.000 C 
ATOM     11  C   UNL     1      37.292  -0.661  17.289  0.00  0.00    +0.000 A 
ATOM     12  C   UNL     1      38.051  -1.658  16.706  0.00  0.00    +0.000 A 
ENDBRANCH   2  11
ENDBRANCH   1   3
BRANCH   1  13
ATOM     13  N   UNL     1      36.987   3.050  16.847  0.00  0.00    +0.000 NA
ATOM     14  C   UNL     1      38.136   3.879  16.916  0.00  0.00    +0.000 C 
ATOM     15  O   UNL     1      38.837   4.139  15.904  0.00  0.00    +0.000 OA
BRANCH  14  16
ATOM     16  O   UNL     1      38.510   4.424  18.127  0.00  0.00    +0.000 OA
BRANCH  16  17
ATOM     17  C   UNL     1      39.437   5.495  18.131  0.00  0.00    +0.000 C 
BRANCH  17  18
ATOM     18  C   UNL     1      38.944   6.645  18.898  0.00  0.00    +0.000 A 
ATOM     19  C   UNL     1      37.865   7.351  18.410  0.00  0.00    +0.000 A 
ATOM     20  C   UNL     1      37.395   8.436  19.128  0.00  0.00    +0.000 A 
ATOM     21  C   UNL     1      38.021   8.770  20.304  0.00  0.00    +0.000 A 
ATOM     22  C   UNL     1      39.112   8.045  20.784  0.00  0.00    +0.000 A 
ATOM     23  C   UNL     1      39.584   6.964  20.072  0.00  0.00    +0.000 A 
ENDBRANCH  17  18
ENDBRANCH  16  17
ENDBRANCH  14  16
ENDBRANCH   1  13
BRANCH   1  24
ATOM     24  C   UNL     1      35.248   3.311  15.261  0.00  0.00    +0.000 C 
BRANCH  24  25
ATOM     25  C   UNL     1      35.412   4.317  14.246  0.00  0.00    +0.000 A 
ATOM     26  C   UNL     1      34.547   5.399  14.295  0.00  0.00    +0.000 A 
ATOM     27  C   UNL     1      34.575   6.439  13.398  0.00  0.00    +0.000 A 
ATOM     28  C   UNL     1      35.518   6.401  12.397  0.00  0.00    +0.000 A 
ATOM     29  C   UNL     1      36.386   5.344  12.326  0.00  0.00    +0.000 A 
ATOM     30  C   UNL     1      36.334   4.333  13.223  0.00  0.00    +0.000 A 
ENDBRANCH  24  25
ENDBRANCH   1  24
TORSDOF 8
ENDMDL
MODEL 4
REMARK VINA RESULT:      -7.3      1.992      7.472
REMARK  Name = 
REMARK  8 active torsions:
REMARK  status: ('A' for Active; 'I' for Inactive)
REMARK    1  A    between atoms: C_7  and  N_8
REMARK    2  A    between atoms: C_9  and  C_11
REMARK    3  A    between atoms: C_11  and  C_12
REMARK    4  A    between atoms: C_11  and  N_19
REMARK    5  A    between atoms: C_12  and  C_13
REMARK    6  A    between atoms: C_20  and  O_22
REMARK    7  A    between atoms: O_22  and  C_23
REMARK    8  A    between atoms: C_23  and  C_24
REMARK                            x       y       z     vdW  Elec       q    Type
REMARK                         _______ _______ _______ _____ _____    ______ ____
ROOT
ATOM      1  C   UNL     1      36.802   2.175  15.899  0.00  0.00    +0.000 C 
ENDROOT
BRANCH   1   3
ATOM      2  N   UNL     1      37.130  -0.139  16.470  0.00  0.00    +0.000 NA
ATOM      3  C   UNL     1      36.300   0.874  16.590  0.00  0.00    +0.000 C 
ATOM      4  O   UNL     1      35.395   0.532  17.189  0.00  0.00    +0.000 OA
BRANCH   2  11
ATOM      5  C   UNL     1      38.759  -3.548  19.557  0.00  0.00    +0.000 C 
ATOM      6  C   UNL     1      38.303  -3.115  18.208  0.00  0.00    +0.000 A 
ATOM      7  C   UNL     1      38.259  -4.032  17.184  0.00  0.00    +0.000 A 
ATOM      8  C   UNL     1      37.835  -3.666  15.899  0.00  0.00    +0.000 A 
ATOM      9  C   UNL     1      37.457  -2.329  15.689  0.00  0.00    +0.000 A 
ATOM     10  C   UNL     1      36.995  -1.868  14.342  0.00  0.00    +0.000 C 
ATOM     11  C   UNL     1      37.487  -1.386  16.682  0.00  0.00    +0.000 A 
ATOM     12  C   UNL     1      37.912  -1.797  17.931  0.00  0.00    +0.000 A 
ENDBRANCH   2  11
ENDBRANCH   1   3
BRANCH   1  13
ATOM     13  N   UNL     1      37.024   3.004  17.209  0.00  0.00    +0.000 NA
ATOM     14  C   UNL     1      38.134   3.888  17.190  0.00  0.00    +0.000 C 
ATOM     15  O   UNL     1      38.889   3.998  16.189  0.00  0.00    +0.000 OA
BRANCH  14  16
ATOM     16  O   UNL     1      38.408   4.659  18.301  0.00  0.00    +0.000 OA
BRANCH  16  17
ATOM     17  C   UNL     1      38.811   6.004  18.111  0.00  0.00    +0.000 C 
BRANCH  17  18
ATOM     18  C   UNL     1      40.190   6.232  18.556  0.00  0.00    +0.000 A 
ATOM     19  C   UNL     1      40.444   6.299  19.910  0.00  0.00    +0.000 A 
ATOM     20  C   UNL     1      41.742   6.514  20.338  0.00  0.00    +0.000 A 
ATOM     21  C   UNL     1      42.733   6.652  19.395  0.00  0.00    +0.000 A 
ATOM     22  C   UNL     1      42.459   6.582  18.030  0.00  0.00    +0.000 A 
ATOM     23  C   UNL     1      41.167   6.369  17.599  0.00  0.00    +0.000 A 
ENDBRANCH  17  18
ENDBRANCH  16  17
ENDBRANCH  14  16
ENDBRANCH   1  13
BRANCH   1  24
ATOM     24  C   UNL     1      35.361   2.858  15.530  0.00  0.00    +0.000 C 
BRANCH  24  25
ATOM     25  C   UNL     1      35.553   3.829  14.487  0.00  0.00    +0.000 A 
ATOM     26  C   UNL     1      36.544   3.558  13.556  0.00  0.00    +0.000 A 
ATOM     27  C   UNL     1      36.848   4.387  12.504  0.00  0.00    +0.000 A 
ATOM     28  C   UNL     1      36.127   5.550  12.370  0.00  0.00    +0.000 A 
ATOM     29  C   UNL     1      35.141   5.843  13.276  0.00  0.00    +0.000 A 
ATOM     30  C   UNL     1      34.863   5.008  14.303  0.00  0.00    +0.000 A 
ENDBRANCH  24  25
ENDBRANCH   1  24
TORSDOF 8
ENDMDL
MODEL 5
REMARK VINA RESULT:      -7.2      2.090      6.595
REMARK  Name = 
REMARK  8 active torsions:
REMARK  status: ('A' for Active; 'I' for Inactive)
REMARK    1  A    between atoms: C_7  and  N_8
REMARK    2  A    between atoms: C_9  and  C_11
REMARK    3  A    between atoms: C_11  and  C_12
REMARK    4  A    between atoms: C_11  and  N_19
REMARK    5  A    between atoms: C_12  and  C_13
REMARK    6  A    between atoms: C_20  and  O_22
REMARK    7  A    between atoms: O_22  and  C_23
REMARK    8  A    between atoms: C_23  and  C_24
REMARK                            x       y       z     vdW  Elec       q    Type
REMARK                         _______ _______ _______ _____ _____    ______ ____
ROOT
ATOM      1  C   UNL     1      36.886   0.898  14.958  0.00  0.00    +0.000 C 
ENDROOT
BRANCH   1   3
ATOM      2  N   UNL     1      38.939  -0.139  14.256  0.00  0.00    +0.000 NA
ATOM      3  C   UNL     1      37.923   0.586  13.842  0.00  0.00    +0.000 C 
ATOM      4  O   UNL     1      38.063   0.808  12.734  0.00  0.00    +0.000 OA
BRANCH   2  11
ATOM      5  C   UNL     1      43.818  -0.067  14.333  0.00  0.00    +0.000 C 
ATOM      6  C   UNL     1      42.523  -0.762  14.095  0.00  0.00    +0.000 A 
ATOM      7  C   UNL     1      42.527  -2.071  13.672  0.00  0.00    +0.000 A 
ATOM      8  C   UNL     1      41.331  -2.761  13.436  0.00  0.00    +0.000 A 
ATOM      9  C   UNL     1      40.123  -2.072  13.645  0.00  0.00    +0.000 A 
ATOM     10  C   UNL     1      38.808  -2.747  13.412  0.00  0.00    +0.000 C 
ATOM     11  C   UNL     1      40.077  -0.769  14.065  0.00  0.00    +0.000 A 
ATOM     12  C   UNL     1      41.284  -0.133  14.284  0.00  0.00    +0.000 A 
ENDBRANCH   2  11
ENDBRANCH   1   3
BRANCH   1  13
ATOM     13  N   UNL     1      37.723   2.007  15.682  0.00  0.00    +0.000 NA
ATOM     14  C   UNL     1      36.974   2.923  16.464  0.00  0.00    +0.000 C 
ATOM     15  O   UNL     1      35.722   2.850  16.569  0.00  0.00    +0.000 OA
BRANCH  14  16
ATOM     16  O   UNL     1      37.627   3.935  17.137  0.00  0.00    +0.000 OA
BRANCH  16  17
ATOM     17  C   UNL     1      38.635   4.661  16.458  0.00  0.00    +0.000 C 
BRANCH  17  18
ATOM     18  C   UNL     1      39.507   5.391  17.385  0.00  0.00    +0.000 A 
ATOM     19  C   UNL     1      40.661   5.964  16.894  0.00  0.00    +0.000 A 
ATOM     20  C   UNL     1      41.487   6.654  17.763  0.00  0.00    +0.000 A 
ATOM     21  C   UNL     1      41.126   6.744  19.086  0.00  0.00    +0.000 A 
ATOM     22  C   UNL     1      39.955   6.158  19.566  0.00  0.00    +0.000 A 
ATOM     23  C   UNL     1      39.129   5.469  18.704  0.00  0.00    +0.000 A 
ENDBRANCH  17  18
ENDBRANCH  16  17
ENDBRANCH  14  16
ENDBRANCH   1  13
BRANCH   1  24
ATOM     24  C   UNL     1      37.264  -0.292  16.017  0.00  0.00    +0.000 C 
BRANCH  24  25
ATOM     25  C   UNL     1      36.107  -1.120  16.230  0.00  0.00    +0.000 A 
ATOM     26  C   UNL     1      35.163  -0.653  17.132  0.00  0.00    +0.000 A 
ATOM     27  C   UNL     1      34.008  -1.327  17.444  0.00  0.00    +0.000 A 
ATOM     28  C   UNL     1      33.778  -2.533  16.824  0.00  0.00    +0.000 A 
ATOM     29  C   UNL     1      34.694  -3.018  15.929  0.00  0.00    +0.000 A 
ATOM     30  C   UNL     1      35.824  -2.332  15.641  0.00  0.00    +0.000 A 
ENDBRANCH  24  25
ENDBRANCH   1  24
TORSDOF 8
ENDMDL
MODEL 6
REMARK VINA RESULT:      -7.2      0.497      1.807
REMARK  Name = 
REMARK  8 active torsions:
REMARK  status: ('A' for Active; 'I' for Inactive)
REMARK    1  A    between atoms: C_7  and  N_8
REMARK    2  A    between atoms: C_9  and  C_11
REMARK    3  A    between atoms: C_11  and  C_12
REMARK    4  A    between atoms: C_11  and  N_19
REMARK    5  A    between atoms: C_12  and  C_13
REMARK    6  A    between atoms: C_20  and  O_22
REMARK    7  A    between atoms: O_22  and  C_23
REMARK    8  A    between atoms: C_23  and  C_24
REMARK                            x       y       z     vdW  Elec       q    Type
REMARK                         _______ _______ _______ _____ _____    ______ ____
ROOT
ATOM      1  C   UNL     1      37.021   1.811  15.028  0.00  0.00    +0.000 C 
ENDROOT
BRANCH   1   3
ATOM      2  N   UNL     1      38.335   3.713  15.691  0.00  0.00    +0.000 NA
ATOM      3  C   UNL     1      37.171   3.350  15.198  0.00  0.00    +0.000 C 
ATOM      4  O   UNL     1      36.548   4.284  15.013  0.00  0.00    +0.000 OA
BRANCH   2  11
ATOM      5  C   UNL     1      41.970   6.793  14.637  0.00  0.00    +0.000 C 
ATOM      6  C   UNL     1      41.021   6.169  15.600  0.00  0.00    +0.000 A 
ATOM      7  C   UNL     1      41.056   6.546  16.922  0.00  0.00    +0.000 A 
ATOM      8  C   UNL     1      40.181   5.983  17.861  0.00  0.00    +0.000 A 
ATOM      9  C   UNL     1      39.264   5.019  17.407  0.00  0.00    +0.000 A 
ATOM     10  C   UNL     1      38.300   4.375  18.354  0.00  0.00    +0.000 C 
ATOM     11  C   UNL     1      39.198   4.617  16.099  0.00  0.00    +0.000 A 
ATOM     12  C   UNL     1      40.082   5.202  15.213  0.00  0.00    +0.000 A 
ENDBRANCH   2  11
ENDBRANCH   1   3
BRANCH   1  13
ATOM     13  N   UNL     1      37.120   1.448  16.549  0.00  0.00    +0.000 NA
ATOM     14  C   UNL     1      35.893   1.111  17.177  0.00  0.00    +0.000 C 
ATOM     15  O   UNL     1      34.799   1.105  16.554  0.00  0.00    +0.000 OA
BRANCH  14  16
ATOM     16  O   UNL     1      35.883   0.778  18.516  0.00  0.00    +0.000 OA
BRANCH  16  17
ATOM     17  C   UNL     1      35.451  -0.518  18.889  0.00  0.00    +0.000 C 
BRANCH  17  18
ATOM     18  C   UNL     1      36.410  -1.554  18.486  0.00  0.00    +0.000 A 
ATOM     19  C   UNL     1      37.637  -1.597  19.113  0.00  0.00    +0.000 A 
ATOM     20  C   UNL     1      38.546  -2.571  18.739  0.00  0.00    +0.000 A 
ATOM     21  C   UNL     1      38.190  -3.462  17.754  0.00  0.00    +0.000 A 
ATOM     22  C   UNL     1      36.944  -3.403  17.130  0.00  0.00    +0.000 A 
ATOM     23  C   UNL     1      36.036  -2.434  17.500  0.00  0.00    +0.000 A 
ENDBRANCH  17  18
ENDBRANCH  16  17
ENDBRANCH  14  16
ENDBRANCH   1  13
BRANCH   1  24
ATOM     24  C   UNL     1      38.573   1.425  14.679  0.00  0.00    +0.000 C 
BRANCH  24  25
ATOM     25  C   UNL     1      38.682  -0.001  14.526  0.00  0.00    +0.000 A 
ATOM     26  C   UNL     1      37.635  -0.641  13.882  0.00  0.00    +0.000 A 
ATOM     27  C   UNL     1      37.591  -1.995  13.660  0.00  0.00    +0.000 A 
ATOM     28  C   UNL     1      38.647  -2.756  14.102  0.00  0.00    +0.000 A 
ATOM     29  C   UNL     1      39.695  -2.149  14.743  0.00  0.00    +0.000 A 
ATOM     30  C   UNL     1      39.712  -0.813  14.948  0.00  0.00    +0.000 A 
ENDBRANCH  24  25
ENDBRANCH   1  24
TORSDOF 8
ENDMDL
MODEL 7
REMARK VINA RESULT:      -7.0      3.300      5.430
REMARK  Name = 
REMARK  8 active torsions:
REMARK  status: ('A' for Active; 'I' for Inactive)
REMARK    1  A    between atoms: C_7  and  N_8
REMARK    2  A    between atoms: C_9  and  C_11
REMARK    3  A    between atoms: C_11  and  C_12
REMARK    4  A    between atoms: C_11  and  N_19
REMARK    5  A    between atoms: C_12  and  C_13
REMARK    6  A    between atoms: C_20  and  O_22
REMARK    7  A    between atoms: O_22  and  C_23
REMARK    8  A    between atoms: C_23  and  C_24
REMARK                            x       y       z     vdW  Elec       q    Type
REMARK                         _______ _______ _______ _____ _____    ______ ____
ROOT
ATOM      1  C   UNL     1      38.790  -0.533  14.453  0.00  0.00    +0.000 C 
ENDROOT
BRANCH   1   3
ATOM      2  N   UNL     1      41.172  -0.799  14.262  0.00  0.00    +0.000 NA
ATOM      3  C   UNL     1      40.201   0.087  14.250  0.00  0.00    +0.000 C 
ATOM      4  O   UNL     1      40.655   1.119  14.088  0.00  0.00    +0.000 OA
BRANCH   2  11
ATOM      5  C   UNL     1      45.813   0.024  15.528  0.00  0.00    +0.000 C 
ATOM      6  C   UNL     1      44.773  -0.755  14.801  0.00  0.00    +0.000 A 
ATOM      7  C   UNL     1      45.149  -1.840  14.044  0.00  0.00    +0.000 A 
ATOM      8  C   UNL     1      44.202  -2.600  13.345  0.00  0.00    +0.000 A 
ATOM      9  C   UNL     1      42.853  -2.218  13.440  0.00  0.00    +0.000 A 
ATOM     10  C   UNL     1      41.788  -2.984  12.719  0.00  0.00    +0.000 C 
ATOM     11  C   UNL     1      42.438  -1.145  14.183  0.00  0.00    +0.000 A 
ATOM     12  C   UNL     1      43.410  -0.427  14.854  0.00  0.00    +0.000 A 
ENDBRANCH   2  11
ENDBRANCH   1   3
BRANCH   1  13
ATOM     13  N   UNL     1      38.223   0.597  15.378  0.00  0.00    +0.000 NA
ATOM     14  C   UNL     1      37.008   1.188  14.945  0.00  0.00    +0.000 C 
ATOM     15  O   UNL     1      36.426   0.829  13.890  0.00  0.00    +0.000 OA
BRANCH  14  16
ATOM     16  O   UNL     1      36.436   2.193  15.697  0.00  0.00    +0.000 OA
BRANCH  16  17
ATOM     17  C   UNL     1      35.290   1.891  16.473  0.00  0.00    +0.000 C 
BRANCH  17  18
ATOM     18  C   UNL     1      35.446   0.635  17.217  0.00  0.00    +0.000 A 
ATOM     19  C   UNL     1      36.228   0.634  18.352  0.00  0.00    +0.000 A 
ATOM     20  C   UNL     1      36.379  -0.547  19.059  0.00  0.00    +0.000 A 
ATOM     21  C   UNL     1      35.743  -1.676  18.601  0.00  0.00    +0.000 A 
ATOM     22  C   UNL     1      34.956  -1.656  17.450  0.00  0.00    +0.000 A 
ATOM     23  C   UNL     1      34.803  -0.483  16.743  0.00  0.00    +0.000 A 
ENDBRANCH  17  18
ENDBRANCH  16  17
ENDBRANCH  14  16
ENDBRANCH   1  13
BRANCH   1  24
ATOM     24  C   UNL     1      39.125  -1.573  15.672  0.00  0.00    +0.000 C 
BRANCH  24  25
ATOM     25  C   UNL     1      38.162  -2.641  15.660  0.00  0.00    +0.000 A 
ATOM     26  C   UNL     1      37.244  -2.642  14.620  0.00  0.00    +0.000 A 
ATOM     27  C   UNL     1      36.263  -3.592  14.470  0.00  0.00    +0.000 A 
ATOM     28  C   UNL     1      36.191  -4.597  15.406  0.00  0.00    +0.000 A 
ATOM     29  C   UNL     1      37.085  -4.620  16.444  0.00  0.00    +0.000 A 
ATOM     30  C   UNL     1      38.041  -3.671  16.566  0.00  0.00    +0.000 A 
ENDBRANCH  24  25
ENDBRANCH   1  24
TORSDOF 8
ENDMDL
MODEL 8
REMARK VINA RESULT:      -6.9      2.762      6.336
REMARK  Name = 
REMARK  8 active torsions:
REMARK  status: ('A' for Active; 'I' for Inactive)
REMARK    1  A    between atoms: C_7  and  N_8
REMARK    2  A    between atoms: C_9  and  C_11
REMARK    3  A    between atoms: C_11  and  C_12
REMARK    4  A    between atoms: C_11  and  N_19
REMARK    5  A    between atoms: C_12  and  C_13
REMARK    6  A    between atoms: C_20  and  O_22
REMARK    7  A    between atoms: O_22  and  C_23
REMARK    8  A    between atoms: C_23  and  C_24
REMARK                            x       y       z     vdW  Elec       q    Type
REMARK                         _______ _______ _______ _____ _____    ______ ____
ROOT
ATOM      1  C   UNL     1      36.292   2.349  16.539  0.00  0.00    +0.000 C 
ENDROOT
BRANCH   1   3
ATOM      2  N   UNL     1      35.741   3.890  14.777  0.00  0.00    +0.000 NA
ATOM      3  C   UNL     1      35.226   3.130  15.718  0.00  0.00    +0.000 C 
ATOM      4  O   UNL     1      34.093   3.239  15.693  0.00  0.00    +0.000 OA
BRANCH   2  11
ATOM      5  C   UNL     1      33.774   7.966  12.949  0.00  0.00    +0.000 C 
ATOM      6  C   UNL     1      34.671   6.781  12.840  0.00  0.00    +0.000 A 
ATOM      7  C   UNL     1      35.394   6.587  11.686  0.00  0.00    +0.000 A 
ATOM      8  C   UNL     1      36.249   5.486  11.542  0.00  0.00    +0.000 A 
ATOM      9  C   UNL     1      36.344   4.584  12.616  0.00  0.00    +0.000 A 
ATOM     10  C   UNL     1      37.238   3.386  12.531  0.00  0.00    +0.000 C 
ATOM     11  C   UNL     1      35.641   4.743  13.781  0.00  0.00    +0.000 A 
ATOM     12  C   UNL     1      34.812   5.845  13.873  0.00  0.00    +0.000 A 
ENDBRANCH   2  11
ENDBRANCH   1   3
BRANCH   1  13
ATOM     13  N   UNL     1      37.532   3.184  16.072  0.00  0.00    +0.000 NA
ATOM     14  C   UNL     1      38.207   3.899  17.095  0.00  0.00    +0.000 C 
ATOM     15  O   UNL     1      37.834   3.865  18.296  0.00  0.00    +0.000 OA
BRANCH  14  16
ATOM     16  O   UNL     1      39.311   4.663  16.776  0.00  0.00    +0.000 OA
BRANCH  16  17
ATOM     17  C   UNL     1      39.364   6.002  17.234  0.00  0.00    +0.000 C 
BRANCH  17  18
ATOM     18  C   UNL     1      40.494   6.228  18.143  0.00  0.00    +0.000 A 
ATOM     19  C   UNL     1      41.738   6.472  17.602  0.00  0.00    +0.000 A 
ATOM     20  C   UNL     1      42.808   6.686  18.453  0.00  0.00    +0.000 A 
ATOM     21  C   UNL     1      42.590   6.647  19.809  0.00  0.00    +0.000 A 
ATOM     22  C   UNL     1      41.325   6.398  20.340  0.00  0.00    +0.000 A 
ATOM     23  C   UNL     1      40.256   6.184  19.496  0.00  0.00    +0.000 A 
ENDBRANCH  17  18
ENDBRANCH  16  17
ENDBRANCH  14  16
ENDBRANCH   1  13
BRANCH   1  24
ATOM     24  C   UNL     1      36.557   1.099  15.516  0.00  0.00    +0.000 C 
BRANCH  24  25
ATOM     25  C   UNL     1      35.852  -0.060  15.993  0.00  0.00    +0.000 A 
ATOM     26  C   UNL     1      36.122  -1.261  15.355  0.00  0.00    +0.000 A 
ATOM     27  C   UNL     1      35.530  -2.453  15.693  0.00  0.00    +0.000 A 
ATOM     28  C   UNL     1      34.619  -2.451  16.723  0.00  0.00    +0.000 A 
ATOM     29  C   UNL     1      34.333  -1.278  17.371  0.00  0.00    +0.000 A 
ATOM     30  C   UNL     1      34.932  -0.118  17.017  0.00  0.00    +0.000 A 
ENDBRANCH  24  25
ENDBRANCH   1  24
TORSDOF 8
ENDMDL
MODEL 9
REMARK VINA RESULT:      -6.9      2.501      7.791
REMARK  Name = 
REMARK  8 active torsions:
REMARK  status: ('A' for Active; 'I' for Inactive)
REMARK    1  A    between atoms: C_7  and  N_8
REMARK    2  A    between atoms: C_9  and  C_11
REMARK    3  A    between atoms: C_11  and  C_12
REMARK    4  A    between atoms: C_11  and  N_19
REMARK    5  A    between atoms: C_12  and  C_13
REMARK    6  A    between atoms: C_20  and  O_22
REMARK    7  A    between atoms: O_22  and  C_23
REMARK    8  A    between atoms: C_23  and  C_24
REMARK                            x       y       z     vdW  Elec       q    Type
REMARK                         _______ _______ _______ _____ _____    ______ ____
ROOT
ATOM      1  C   UNL     1      38.028   2.462  14.481  0.00  0.00    +0.000 C 
ENDROOT
BRANCH   1   3
ATOM      2  N   UNL     1      36.909   0.505  15.319  0.00  0.00    +0.000 NA
ATOM      3  C   UNL     1      38.084   0.993  14.989  0.00  0.00    +0.000 C 
ATOM      4  O   UNL     1      38.872   0.189  15.163  0.00  0.00    +0.000 OA
BRANCH   2  11
ATOM      5  C   UNL     1      35.601  -4.195  15.221  0.00  0.00    +0.000 C 
ATOM      6  C   UNL     1      35.449  -2.804  15.731  0.00  0.00    +0.000 A 
ATOM      7  C   UNL     1      34.479  -2.532  16.668  0.00  0.00    +0.000 A 
ATOM      8  C   UNL     1      34.303  -1.237  17.174  0.00  0.00    +0.000 A 
ATOM      9  C   UNL     1      35.148  -0.223  16.692  0.00  0.00    +0.000 A 
ATOM     10  C   UNL     1      35.016   1.183  17.188  0.00  0.00    +0.000 C 
ATOM     11  C   UNL     1      36.125  -0.454  15.760  0.00  0.00    +0.000 A 
ATOM     12  C   UNL     1      36.259  -1.748  15.293  0.00  0.00    +0.000 A 
ENDBRANCH   2  11
ENDBRANCH   1   3
BRANCH   1  13
ATOM     13  N   UNL     1      37.627   3.114  15.848  0.00  0.00    +0.000 NA
ATOM     14  C   UNL     1      38.301   4.320  16.170  0.00  0.00    +0.000 C 
ATOM     15  O   UNL     1      39.163   4.831  15.409  0.00  0.00    +0.000 OA
BRANCH  14  16
ATOM     16  O   UNL     1      38.012   4.965  17.355  0.00  0.00    +0.000 OA
BRANCH  16  17
ATOM     17  C   UNL     1      38.873   4.767  18.461  0.00  0.00    +0.000 C 
BRANCH  17  18
ATOM     18  C   UNL     1      39.336   6.038  19.031  0.00  0.00    +0.000 A 
ATOM     19  C   UNL     1      38.527   7.148  18.913  0.00  0.00    +0.000 A 
ATOM     20  C   UNL     1      38.956   8.350  19.448  0.00  0.00    +0.000 A 
ATOM     21  C   UNL     1      40.176   8.392  20.079  0.00  0.00    +0.000 A 
ATOM     22  C   UNL     1      40.982   7.259  20.190  0.00  0.00    +0.000 A 
ATOM     23  C   UNL     1      40.559   6.061  19.658  0.00  0.00    +0.000 A 
ENDBRANCH  17  18
ENDBRANCH  16  17
ENDBRANCH  14  16
ENDBRANCH   1  13
BRANCH   1  24
ATOM     24  C   UNL     1      36.515   2.474  13.857  0.00  0.00    +0.000 C 
BRANCH  24  25
ATOM     25  C   UNL     1      36.146   3.827  13.539  0.00  0.00    +0.000 A 
ATOM     26  C   UNL     1      36.851   4.442  12.516  0.00  0.00    +0.000 A 
ATOM     27  C   UNL     1      36.618   5.730  12.097  0.00  0.00    +0.000 A 
ATOM     28  C   UNL     1      35.630   6.445  12.730  0.00  0.00    +0.000 A 
ATOM     29  C   UNL     1      34.918   5.862  13.746  0.00  0.00    +0.000 A 
ATOM     30  C   UNL     1      35.169   4.592  14.138  0.00  0.00    +0.000 A 
ENDBRANCH  24  25
ENDBRANCH   1  24
TORSDOF 8
ENDMDL
MODEL 10
REMARK VINA RESULT:      -6.8     25.962     29.199
REMARK  Name = 
REMARK  8 active torsions:
REMARK  status: ('A' for Active; 'I' for Inactive)
REMARK    1  A    between atoms: C_7  and  N_8
REMARK    2  A    between atoms: C_9  and  C_11
REMARK    3  A    between atoms: C_11  and  C_12
REMARK    4  A    between atoms: C_11  and  N_19
REMARK    5  A    between atoms: C_12  and  C_13
REMARK    6  A    between atoms: C_20  and  O_22
REMARK    7  A    between atoms: O_22  and  C_23
REMARK    8  A    between atoms: C_23  and  C_24
REMARK                            x       y       z     vdW  Elec       q    Type
REMARK                         _______ _______ _______ _____ _____    ______ ____
ROOT
ATOM      1  C   UNL     1      25.893  15.143  39.409  0.00  0.00    +0.000 C 
ENDROOT
BRANCH   1   3
ATOM      2  N   UNL     1      25.753  15.779  37.094  0.00  0.00    +0.000 NA
ATOM      3  C   UNL     1      26.582  15.386  38.035  0.00  0.00    +0.000 C 
ATOM      4  O   UNL     1      27.629  15.321  37.593  0.00  0.00    +0.000 OA
BRANCH   2  11
ATOM      5  C   UNL     1      25.308  14.618  32.375  0.00  0.00    +0.000 C 
ATOM      6  C   UNL     1      25.246  15.600  33.493  0.00  0.00    +0.000 A 
ATOM      7  C   UNL     1      24.897  16.904  33.227  0.00  0.00    +0.000 A 
ATOM      8  C   UNL     1      24.827  17.859  34.250  0.00  0.00    +0.000 A 
ATOM      9  C   UNL     1      25.125  17.442  35.559  0.00  0.00    +0.000 A 
ATOM     10  C   UNL     1      25.071  18.409  36.701  0.00  0.00    +0.000 C 
ATOM     11  C   UNL     1      25.476  16.154  35.864  0.00  0.00    +0.000 A 
ATOM     12  C   UNL     1      25.531  15.250  34.820  0.00  0.00    +0.000 A 
ENDBRANCH   2  11
ENDBRANCH   1   3
BRANCH   1  13
ATOM     13  N   UNL     1      26.076  13.587  39.434  0.00  0.00    +0.000 NA
ATOM     14  C   UNL     1      26.192  13.007  40.724  0.00  0.00    +0.000 C 
ATOM     15  O   UNL     1      26.150  13.696  41.776  0.00  0.00    +0.000 OA
BRANCH  14  16
ATOM     16  O   UNL     1      26.357  11.643  40.843  0.00  0.00    +0.000 OA
BRANCH  16  17
ATOM     17  C   UNL     1      27.672  11.119  40.874  0.00  0.00    +0.000 C 
BRANCH  17  18
ATOM     18  C   UNL     1      27.717   9.780  41.472  0.00  0.00    +0.000 A 
ATOM     19  C   UNL     1      26.560   9.030  41.497  0.00  0.00    +0.000 A 
ATOM     20  C   UNL     1      26.595   7.766  42.060  0.00  0.00    +0.000 A 
ATOM     21  C   UNL     1      27.783   7.304  42.573  0.00  0.00    +0.000 A 
ATOM     22  C   UNL     1      28.944   8.076  42.539  0.00  0.00    +0.000 A 
ATOM     23  C   UNL     1      28.914   9.336  41.980  0.00  0.00    +0.000 A 
ENDBRANCH  17  18
ENDBRANCH  16  17
ENDBRANCH  14  16
ENDBRANCH   1  13
BRANCH   1  24
ATOM     24  C   UNL     1      24.330  15.103  38.924  0.00  0.00    +0.000 C 
BRANCH  24  25
ATOM     25  C   UNL     1      23.541  15.919  39.807  0.00  0.00    +0.000 A 
ATOM     26  C   UNL     1      22.581  15.268  40.566  0.00  0.00    +0.000 A 
ATOM     27  C   UNL     1      21.749  15.906  41.453  0.00  0.00    +0.000 A 
ATOM     28  C   UNL     1      21.878  17.268  41.593  0.00  0.00    +0.000 A 
ATOM     29  C   UNL     1      22.819  17.937  40.854  0.00  0.00    +0.000 A 
ATOM     30  C   UNL     1      23.625  17.282  39.988  0.00  0.00    +0.000 A 
ENDBRANCH  24  25
ENDBRANCH   1  24
TORSDOF 8
ENDMDL
