MODEL 1
REMARK VINA RESULT:      -8.0      0.000      0.000
REMARK  Name = 
REMARK  1 active torsions:
REMARK  status: ('A' for Active; 'I' for Inactive)
REMARK    1  A    between atoms: C_4  and  C_5
REMARK                            x       y       z     vdW  Elec       q    Type
REMARK                         _______ _______ _______ _____ _____    ______ ____
ROOT
ATOM      1  C   UNL     1      16.255  10.832  35.841  0.00  0.00    +0.000 A 
ATOM      2  N   UNL     1      15.465  11.829  35.347  0.00  0.00    +0.000 NA
ATOM      3  C   UNL     1      15.498  11.817  33.989  0.00  0.00    +0.000 A 
ATOM      4  C   UNL     1      14.851  12.636  33.048  0.00  0.00    +0.000 A 
ATOM      5  C   UNL     1      14.008  13.657  33.269  0.00  0.00    +0.000 A 
ATOM      6  C   UNL     1      13.479  14.313  32.216  0.00  0.00    +0.000 A 
ATOM      7  S   UNL     1      14.167  13.493  30.890  0.00  0.00    +0.000 S 
ATOM      8  C   UNL     1      15.110  12.341  31.731  0.00  0.00    +0.000 A 
ATOM      9  C   UNL     1      15.962  11.292  31.376  0.00  0.00    +0.000 A 
ATOM     10  C   UNL     1      16.588  10.502  32.327  0.00  0.00    +0.000 A 
ATOM     11  N   UNL     1      16.303  10.825  33.614  0.00  0.00    +0.000 N 
ATOM     12  C   UNL     1      16.774  10.210  34.744  0.00  0.00    +0.000 A 
ATOM     13  N   UNL     1      17.677   9.121  34.716  0.00  0.00    +0.000 NA
ENDROOT
BRANCH   1  17
ATOM     14  C   UNL     1      18.430   9.474  40.153  0.00  0.00    +0.000 C 
ATOM     15  C   UNL     1      17.382   9.964  39.210  0.00  0.00    +0.000 A 
ATOM     16  C   UNL     1      17.624  10.124  37.842  0.00  0.00    +0.000 A 
ATOM     17  C   UNL     1      16.430  10.586  37.273  0.00  0.00    +0.000 A 
ATOM     18  C   UNL     1      15.570  10.675  38.309  0.00  0.00    +0.000 A 
ATOM     19  C   UNL     1      14.144  11.136  38.220  0.00  0.00    +0.000 C 
ATOM     20  O   UNL     1      16.143  10.303  39.458  0.00  0.00    +0.000 OA
ENDBRANCH   1  17
TORSDOF 1
ENDMDL
MODEL 2
REMARK VINA RESULT:      -7.1     28.297     30.696
REMARK  Name = 
REMARK  1 active torsions:
REMARK  status: ('A' for Active; 'I' for Inactive)
REMARK    1  A    between atoms: C_4  and  C_5
REMARK                            x       y       z     vdW  Elec       q    Type
REMARK                         _______ _______ _______ _____ _____    ______ ____
ROOT
ATOM      1  C   UNL     1      30.063  22.427  11.515  0.00  0.00    +0.000 A 
ATOM      2  N   UNL     1      30.228  22.626  10.175  0.00  0.00    +0.000 NA
ATOM      3  C   UNL     1      31.192  21.796   9.698  0.00  0.00    +0.000 A 
ATOM      4  C   UNL     1      31.702  21.633   8.400  0.00  0.00    +0.000 A 
ATOM      5  C   UNL     1      31.343  22.271   7.275  0.00  0.00    +0.000 A 
ATOM      6  C   UNL     1      31.953  21.954   6.114  0.00  0.00    +0.000 A 
ATOM      7  S   UNL     1      33.050  20.741   6.597  0.00  0.00    +0.000 S 
ATOM      8  C   UNL     1      32.688  20.685   8.268  0.00  0.00    +0.000 A 
ATOM      9  C   UNL     1      33.138  19.946   9.365  0.00  0.00    +0.000 A 
ATOM     10  C   UNL     1      32.616  20.130  10.636  0.00  0.00    +0.000 A 
ATOM     11  N   UNL     1      31.643  21.073  10.722  0.00  0.00    +0.000 N 
ATOM     12  C   UNL     1      30.956  21.451  11.845  0.00  0.00    +0.000 A 
ATOM     13  N   UNL     1      31.196  20.897  13.125  0.00  0.00    +0.000 NA
ENDROOT
BRANCH   1  17
ATOM     14  C   UNL     1      28.252  25.508  15.036  0.00  0.00    +0.000 C 
ATOM     15  C   UNL     1      28.267  24.535  13.904  0.00  0.00    +0.000 A 
ATOM     16  C   UNL     1      29.458  24.067  13.339  0.00  0.00    +0.000 A 
ATOM     17  C   UNL     1      29.096  23.174  12.321  0.00  0.00    +0.000 A 
ATOM     18  C   UNL     1      27.747  23.167  12.337  0.00  0.00    +0.000 A 
ATOM     19  C   UNL     1      26.869  22.365  11.419  0.00  0.00    +0.000 C 
ATOM     20  O   UNL     1      27.261  23.978  13.282  0.00  0.00    +0.000 OA
ENDBRANCH   1  17
TORSDOF 1
ENDMDL
MODEL 3
REMARK VINA RESULT:      -6.9      4.010      7.151
REMARK  Name = 
REMARK  1 active torsions:
REMARK  status: ('A' for Active; 'I' for Inactive)
REMARK    1  A    between atoms: C_4  and  C_5
REMARK                            x       y       z     vdW  Elec       q    Type
REMARK                         _______ _______ _______ _____ _____    ______ ____
ROOT
ATOM      1  C   UNL     1      17.600  10.231  36.931  0.00  0.00    +0.000 A 
ATOM      2  N   UNL     1      16.891  10.127  38.093  0.00  0.00    +0.000 NA
ATOM      3  C   UNL     1      17.692   9.655  39.084  0.00  0.00    +0.000 A 
ATOM      4  C   UNL     1      17.418   9.390  40.436  0.00  0.00    +0.000 A 
ATOM      5  C   UNL     1      16.265   9.553  41.102  0.00  0.00    +0.000 A 
ATOM      6  C   UNL     1      16.215   9.249  42.416  0.00  0.00    +0.000 A 
ATOM      7  S   UNL     1      17.806   8.727  42.732  0.00  0.00    +0.000 S 
ATOM      8  C   UNL     1      18.478   8.914  41.170  0.00  0.00    +0.000 A 
ATOM      9  C   UNL     1      19.733   8.715  40.589  0.00  0.00    +0.000 A 
ATOM     10  C   UNL     1      19.973   8.984  39.252  0.00  0.00    +0.000 A 
ATOM     11  N   UNL     1      18.901   9.454  38.564  0.00  0.00    +0.000 N 
ATOM     12  C   UNL     1      18.858   9.806  37.240  0.00  0.00    +0.000 A 
ATOM     13  N   UNL     1      19.971   9.699  36.372  0.00  0.00    +0.000 NA
ENDROOT
BRANCH   1  17
ATOM     14  C   UNL     1      16.406  10.414  32.062  0.00  0.00    +0.000 C 
ATOM     15  C   UNL     1      16.487  10.816  33.497  0.00  0.00    +0.000 A 
ATOM     16  C   UNL     1      17.123  10.025  34.459  0.00  0.00    +0.000 A 
ATOM     17  C   UNL     1      17.015  10.708  35.677  0.00  0.00    +0.000 A 
ATOM     18  C   UNL     1      16.336  11.835  35.378  0.00  0.00    +0.000 A 
ATOM     19  C   UNL     1      15.954  12.909  36.356  0.00  0.00    +0.000 C 
ATOM     20  O   UNL     1      16.027  11.893  34.078  0.00  0.00    +0.000 OA
ENDBRANCH   1  17
TORSDOF 1
ENDMDL
MODEL 4
REMARK VINA RESULT:      -6.7     28.538     30.983
REMARK  Name = 
REMARK  1 active torsions:
REMARK  status: ('A' for Active; 'I' for Inactive)
REMARK    1  A    between atoms: C_4  and  C_5
REMARK                            x       y       z     vdW  Elec       q    Type
REMARK                         _______ _______ _______ _____ _____    ______ ____
ROOT
ATOM      1  C   UNL     1      32.276  22.220  10.951  0.00  0.00    +0.000 A 
ATOM      2  N   UNL     1      31.625  22.918  11.927  0.00  0.00    +0.000 NA
ATOM      3  C   UNL     1      30.286  22.715  11.828  0.00  0.00    +0.000 A 
ATOM      4  C   UNL     1      29.223  23.211  12.602  0.00  0.00    +0.000 A 
ATOM      5  C   UNL     1      29.275  24.023  13.669  0.00  0.00    +0.000 A 
ATOM      6  C   UNL     1      28.127  24.373  14.286  0.00  0.00    +0.000 A 
ATOM      7  S   UNL     1      26.951  23.555  13.363  0.00  0.00    +0.000 S 
ATOM      8  C   UNL     1      27.971  22.795  12.219  0.00  0.00    +0.000 A 
ATOM      9  C   UNL     1      27.791  21.938  11.130  0.00  0.00    +0.000 A 
ATOM     10  C   UNL     1      28.858  21.466  10.384  0.00  0.00    +0.000 A 
ATOM     11  N   UNL     1      30.077  21.899  10.797  0.00  0.00    +0.000 N 
ATOM     12  C   UNL     1      31.293  21.586  10.250  0.00  0.00    +0.000 A 
ATOM     13  N   UNL     1      31.444  20.749   9.118  0.00  0.00    +0.000 NA
ENDROOT
BRANCH   1  17
ATOM     14  C   UNL     1      36.845  23.768   9.575  0.00  0.00    +0.000 C 
ATOM     15  C   UNL     1      35.782  22.904  10.166  0.00  0.00    +0.000 A 
ATOM     16  C   UNL     1      34.434  23.277  10.172  0.00  0.00    +0.000 A 
ATOM     17  C   UNL     1      33.731  22.235  10.792  0.00  0.00    +0.000 A 
ATOM     18  C   UNL     1      34.677  21.329  11.113  0.00  0.00    +0.000 A 
ATOM     19  C   UNL     1      34.430  20.021  11.810  0.00  0.00    +0.000 C 
ATOM     20  O   UNL     1      35.895  21.733  10.736  0.00  0.00    +0.000 OA
ENDBRANCH   1  17
TORSDOF 1
ENDMDL
MODEL 5
REMARK VINA RESULT:      -6.7     18.505     20.806
REMARK  Name = 
REMARK  1 active torsions:
REMARK  status: ('A' for Active; 'I' for Inactive)
REMARK    1  A    between atoms: C_4  and  C_5
REMARK                            x       y       z     vdW  Elec       q    Type
REMARK                         _______ _______ _______ _____ _____    ______ ____
ROOT
ATOM      1  C   UNL     1      33.982   3.106  34.801  0.00  0.00    +0.000 A 
ATOM      2  N   UNL     1      33.928   2.225  35.843  0.00  0.00    +0.000 NA
ATOM      3  C   UNL     1      33.779   0.960  35.373  0.00  0.00    +0.000 A 
ATOM      4  C   UNL     1      33.682  -0.266  36.053  0.00  0.00    +0.000 A 
ATOM      5  C   UNL     1      33.724  -0.493  37.375  0.00  0.00    +0.000 A 
ATOM      6  C   UNL     1      33.626  -1.759  37.829  0.00  0.00    +0.000 A 
ATOM      7  S   UNL     1      33.473  -2.655  36.386  0.00  0.00    +0.000 S 
ATOM      8  C   UNL     1      33.538  -1.374  35.254  0.00  0.00    +0.000 A 
ATOM      9  C   UNL     1      33.493  -1.265  33.862  0.00  0.00    +0.000 A 
ATOM     10  C   UNL     1      33.590  -0.042  33.219  0.00  0.00    +0.000 A 
ATOM     11  N   UNL     1      33.734   1.026  34.044  0.00  0.00    +0.000 N 
ATOM     12  C   UNL     1      33.859   2.341  33.679  0.00  0.00    +0.000 A 
ATOM     13  N   UNL     1      33.832   2.779  32.334  0.00  0.00    +0.000 NA
ENDROOT
BRANCH   1  17
ATOM     14  C   UNL     1      35.886   7.479  36.358  0.00  0.00    +0.000 C 
ATOM     15  C   UNL     1      34.964   6.516  35.686  0.00  0.00    +0.000 A 
ATOM     16  C   UNL     1      35.194   5.137  35.690  0.00  0.00    +0.000 A 
ATOM     17  C   UNL     1      34.136   4.550  34.982  0.00  0.00    +0.000 A 
ATOM     18  C   UNL     1      33.360   5.588  34.607  0.00  0.00    +0.000 A 
ATOM     19  C   UNL     1      32.092   5.484  33.808  0.00  0.00    +0.000 C 
ATOM     20  O   UNL     1      33.859   6.755  35.030  0.00  0.00    +0.000 OA
ENDBRANCH   1  17
TORSDOF 1
ENDMDL
MODEL 6
REMARK VINA RESULT:      -6.7      4.355      7.291
REMARK  Name = 
REMARK  1 active torsions:
REMARK  status: ('A' for Active; 'I' for Inactive)
REMARK    1  A    between atoms: C_4  and  C_5
REMARK                            x       y       z     vdW  Elec       q    Type
REMARK                         _______ _______ _______ _____ _____    ______ ____
ROOT
ATOM      1  C   UNL     1      18.368  10.317  36.601  0.00  0.00    +0.000 A 
ATOM      2  N   UNL     1      19.671  10.253  36.201  0.00  0.00    +0.000 NA
ATOM      3  C   UNL     1      20.455   9.850  37.235  0.00  0.00    +0.000 A 
ATOM      4  C   UNL     1      21.841   9.634  37.306  0.00  0.00    +0.000 A 
ATOM      5  C   UNL     1      22.758   9.768  36.335  0.00  0.00    +0.000 A 
ATOM      6  C   UNL     1      24.050   9.495  36.607  0.00  0.00    +0.000 A 
ATOM      7  S   UNL     1      23.990   9.041  38.249  0.00  0.00    +0.000 S 
ATOM      8  C   UNL     1      22.312   9.220  38.528  0.00  0.00    +0.000 A 
ATOM      9  C   UNL     1      21.452   9.033  39.613  0.00  0.00    +0.000 A 
ATOM     10  C   UNL     1      20.088   9.255  39.514  0.00  0.00    +0.000 A 
ATOM     11  N   UNL     1      19.664   9.661  38.289  0.00  0.00    +0.000 N 
ATOM     12  C   UNL     1      18.378   9.943  37.912  0.00  0.00    +0.000 A 
ATOM     13  N   UNL     1      17.275   9.866  38.796  0.00  0.00    +0.000 NA
ENDROOT
BRANCH   1  17
ATOM     14  C   UNL     1      15.306  10.373  32.628  0.00  0.00    +0.000 C 
ATOM     15  C   UNL     1      15.910  10.774  33.932  0.00  0.00    +0.000 A 
ATOM     16  C   UNL     1      16.964  10.065  34.515  0.00  0.00    +0.000 A 
ATOM     17  C   UNL     1      17.278  10.722  35.713  0.00  0.00    +0.000 A 
ATOM     18  C   UNL     1      16.412  11.756  35.771  0.00  0.00    +0.000 A 
ATOM     19  C   UNL     1      16.336  12.767  36.879  0.00  0.00    +0.000 C 
ATOM     20  O   UNL     1      15.602  11.781  34.707  0.00  0.00    +0.000 OA
ENDBRANCH   1  17
TORSDOF 1
ENDMDL
MODEL 7
REMARK VINA RESULT:      -6.6     18.042     19.153
REMARK  Name = 
REMARK  1 active torsions:
REMARK  status: ('A' for Active; 'I' for Inactive)
REMARK    1  A    between atoms: C_4  and  C_5
REMARK                            x       y       z     vdW  Elec       q    Type
REMARK                         _______ _______ _______ _____ _____    ______ ____
ROOT
ATOM      1  C   UNL     1      27.540  23.705  27.906  0.00  0.00    +0.000 A 
ATOM      2  N   UNL     1      27.044  24.015  26.672  0.00  0.00    +0.000 NA
ATOM      3  C   UNL     1      27.947  23.683  25.713  0.00  0.00    +0.000 A 
ATOM      4  C   UNL     1      27.886  23.804  24.315  0.00  0.00    +0.000 A 
ATOM      5  C   UNL     1      26.885  24.285  23.561  0.00  0.00    +0.000 A 
ATOM      6  C   UNL     1      27.021  24.302  22.219  0.00  0.00    +0.000 A 
ATOM      7  S   UNL     1      28.575  23.634  22.000  0.00  0.00    +0.000 S 
ATOM      8  C   UNL     1      28.994  23.359  23.635  0.00  0.00    +0.000 A 
ATOM      9  C   UNL     1      30.095  22.826  24.310  0.00  0.00    +0.000 A 
ATOM     10  C   UNL     1      30.127  22.720  25.691  0.00  0.00    +0.000 A 
ATOM     11  N   UNL     1      29.012  23.168  26.324  0.00  0.00    +0.000 N 
ATOM     12  C   UNL     1      28.774  23.175  27.672  0.00  0.00    +0.000 A 
ATOM     13  N   UNL     1      29.711  22.715  28.629  0.00  0.00    +0.000 NA
ENDROOT
BRANCH   1  17
ATOM     14  C   UNL     1      25.145  26.179  31.554  0.00  0.00    +0.000 C 
ATOM     15  C   UNL     1      25.745  25.041  30.799  0.00  0.00    +0.000 A 
ATOM     16  C   UNL     1      26.349  25.210  29.549  0.00  0.00    +0.000 A 
ATOM     17  C   UNL     1      26.803  23.947  29.147  0.00  0.00    +0.000 A 
ATOM     18  C   UNL     1      26.449  23.121  30.153  0.00  0.00    +0.000 A 
ATOM     19  C   UNL     1      26.706  21.641  30.199  0.00  0.00    +0.000 C 
ATOM     20  O   UNL     1      25.821  23.779  31.134  0.00  0.00    +0.000 OA
ENDBRANCH   1  17
TORSDOF 1
ENDMDL
MODEL 8
REMARK VINA RESULT:      -6.6     20.481     22.344
REMARK  Name = 
REMARK  1 active torsions:
REMARK  status: ('A' for Active; 'I' for Inactive)
REMARK    1  A    between atoms: C_4  and  C_5
REMARK                            x       y       z     vdW  Elec       q    Type
REMARK                         _______ _______ _______ _____ _____    ______ ____
ROOT
ATOM      1  C   UNL     1      18.695  -8.291  26.671  0.00  0.00    +0.000 A 
ATOM      2  N   UNL     1      18.713  -8.593  28.002  0.00  0.00    +0.000 NA
ATOM      3  C   UNL     1      17.720  -9.475  28.291  0.00  0.00    +0.000 A 
ATOM      4  C   UNL     1      17.351 -10.074  29.506  0.00  0.00    +0.000 A 
ATOM      5  C   UNL     1      17.912  -9.925  30.716  0.00  0.00    +0.000 A 
ATOM      6  C   UNL     1      17.410 -10.609  31.764  0.00  0.00    +0.000 A 
ATOM      7  S   UNL     1      16.128 -11.479  31.053  0.00  0.00    +0.000 S 
ATOM      8  C   UNL     1      16.281 -10.934  29.439  0.00  0.00    +0.000 A 
ATOM      9  C   UNL     1      15.622 -11.180  28.232  0.00  0.00    +0.000 A 
ATOM     10  C   UNL     1      16.008 -10.573  27.048  0.00  0.00    +0.000 A 
ATOM     11  N   UNL     1      17.069  -9.733  27.158  0.00  0.00    +0.000 N 
ATOM     12  C   UNL     1      17.660  -9.012  26.154  0.00  0.00    +0.000 A 
ATOM     13  N   UNL     1      17.207  -9.034  24.813  0.00  0.00    +0.000 NA
ENDROOT
BRANCH   1  17
ATOM     14  C   UNL     1      22.785  -6.637  24.283  0.00  0.00    +0.000 C 
ATOM     15  C   UNL     1      21.476  -6.605  24.998  0.00  0.00    +0.000 A 
ATOM     16  C   UNL     1      20.823  -7.770  25.412  0.00  0.00    +0.000 A 
ATOM     17  C   UNL     1      19.642  -7.364  26.049  0.00  0.00    +0.000 A 
ATOM     18  C   UNL     1      19.660  -6.017  25.976  0.00  0.00    +0.000 A 
ATOM     19  C   UNL     1      18.599  -5.101  26.514  0.00  0.00    +0.000 C 
ATOM     20  O   UNL     1      20.756  -5.572  25.351  0.00  0.00    +0.000 OA
ENDBRANCH   1  17
TORSDOF 1
ENDMDL
MODEL 9
REMARK VINA RESULT:      -6.4     22.676     24.500
REMARK  Name = 
REMARK  1 active torsions:
REMARK  status: ('A' for Active; 'I' for Inactive)
REMARK    1  A    between atoms: C_4  and  C_5
REMARK                            x       y       z     vdW  Elec       q    Type
REMARK                         _______ _______ _______ _____ _____    ______ ____
ROOT
ATOM      1  C   UNL     1      33.782  -4.164  33.171  0.00  0.00    +0.000 A 
ATOM      2  N   UNL     1      33.561  -4.374  31.841  0.00  0.00    +0.000 NA
ATOM      3  C   UNL     1      34.123  -5.550  31.457  0.00  0.00    +0.000 A 
ATOM      4  C   UNL     1      34.155  -6.185  30.204  0.00  0.00    +0.000 A 
ATOM      5  C   UNL     1      33.610  -5.779  29.047  0.00  0.00    +0.000 A 
ATOM      6  C   UNL     1      33.744  -6.551  27.949  0.00  0.00    +0.000 A 
ATOM      7  S   UNL     1      34.645  -7.872  28.539  0.00  0.00    +0.000 S 
ATOM      8  C   UNL     1      34.820  -7.387  30.170  0.00  0.00    +0.000 A 
ATOM      9  C   UNL     1      35.417  -7.921  31.315  0.00  0.00    +0.000 A 
ATOM     10  C   UNL     1      35.371  -7.269  32.536  0.00  0.00    +0.000 A 
ATOM     11  N   UNL     1      34.703  -6.088  32.528  0.00  0.00    +0.000 N 
ATOM     12  C   UNL     1      34.499  -5.246  33.589  0.00  0.00    +0.000 A 
ATOM     13  N   UNL     1      35.000  -5.500  34.889  0.00  0.00    +0.000 NA
ENDROOT
BRANCH   1  17
ATOM     14  C   UNL     1      33.248   0.649  34.480  0.00  0.00    +0.000 C 
ATOM     15  C   UNL     1      33.065  -0.832  34.497  0.00  0.00    +0.000 A 
ATOM     16  C   UNL     1      33.687  -1.671  33.566  0.00  0.00    +0.000 A 
ATOM     17  C   UNL     1      33.302  -2.980  33.885  0.00  0.00    +0.000 A 
ATOM     18  C   UNL     1      32.492  -2.847  34.956  0.00  0.00    +0.000 A 
ATOM     19  C   UNL     1      31.807  -3.973  35.677  0.00  0.00    +0.000 C 
ATOM     20  O   UNL     1      32.357  -1.566  35.315  0.00  0.00    +0.000 OA
ENDBRANCH   1  17
TORSDOF 1
ENDMDL
MODEL 10
REMARK VINA RESULT:      -6.4      3.445      5.162
REMARK  Name = 
REMARK  1 active torsions:
REMARK  status: ('A' for Active; 'I' for Inactive)
REMARK    1  A    between atoms: C_4  and  C_5
REMARK                            x       y       z     vdW  Elec       q    Type
REMARK                         _______ _______ _______ _____ _____    ______ ____
ROOT
ATOM      1  C   UNL     1      16.917   9.245  40.425  0.00  0.00    +0.000 A 
ATOM      2  N   UNL     1      15.920   9.983  39.854  0.00  0.00    +0.000 NA
ATOM      3  C   UNL     1      16.271  10.339  38.591  0.00  0.00    +0.000 A 
ATOM      4  C   UNL     1      15.580  11.085  37.623  0.00  0.00    +0.000 A 
ATOM      5  C   UNL     1      14.359  11.636  37.708  0.00  0.00    +0.000 A 
ATOM      6  C   UNL     1      13.865  12.308  36.648  0.00  0.00    +0.000 A 
ATOM      7  S   UNL     1      15.123  12.169  35.507  0.00  0.00    +0.000 S 
ATOM      8  C   UNL     1      16.238  11.257  36.429  0.00  0.00    +0.000 A 
ATOM      9  C   UNL     1      17.510  10.719  36.217  0.00  0.00    +0.000 A 
ATOM     10  C   UNL     1      18.169   9.988  37.192  0.00  0.00    +0.000 A 
ATOM     11  N   UNL     1      17.483   9.839  38.354  0.00  0.00    +0.000 N 
ATOM     12  C   UNL     1      17.891   9.163  39.473  0.00  0.00    +0.000 A 
ATOM     13  N   UNL     1      19.147   8.521  39.578  0.00  0.00    +0.000 NA
ENDROOT
BRANCH   1  17
ATOM     14  C   UNL     1      15.221   6.680  44.388  0.00  0.00    +0.000 C 
ATOM     15  C   UNL     1      16.084   7.588  43.576  0.00  0.00    +0.000 A 
ATOM     16  C   UNL     1      15.855   7.814  42.215  0.00  0.00    +0.000 A 
ATOM     17  C   UNL     1      16.840   8.714  41.786  0.00  0.00    +0.000 A 
ATOM     18  C   UNL     1      17.579   8.961  42.887  0.00  0.00    +0.000 A 
ATOM     19  C   UNL     1      18.775   9.868  42.949  0.00  0.00    +0.000 C 
ATOM     20  O   UNL     1      17.123   8.288  43.949  0.00  0.00    +0.000 OA
ENDBRANCH   1  17
TORSDOF 1
ENDMDL
