MODEL 1
REMARK VINA RESULT:      -7.3      0.000      0.000
REMARK  Name = 
REMARK  3 active torsions:
REMARK  status: ('A' for Active; 'I' for Inactive)
REMARK    1  A    between atoms: O_2  and  C_3
REMARK    2  A    between atoms: C_6  and  C_7
REMARK    3  A    between atoms: N_9  and  C_10
REMARK                            x       y       z     vdW  Elec       q    Type
REMARK                         _______ _______ _______ _____ _____    ______ ____
ROOT
ATOM      1  C   UNL     1      16.417  11.596  36.285  0.00  0.00    +0.000 C 
ATOM      2  O   UNL     1      17.222  12.526  36.049  0.00  0.00    +0.000 OA
ATOM      3  N   UNL     1      15.538  11.194  35.278  0.00  0.00    +0.000 NA
ENDROOT
BRANCH   3   4
ATOM      4  C   UNL     1      15.460  11.747  33.979  0.00  0.00    +0.000 A 
ATOM      5  C   UNL     1      16.170  11.251  32.913  0.00  0.00    +0.000 A 
ATOM      6  C   UNL     1      17.090  10.063  33.077  0.00  0.00    +0.000 C 
ATOM      7  C   UNL     1      16.038  11.846  31.684  0.00  0.00    +0.000 A 
ATOM      8  C   UNL     1      15.210  12.926  31.511  0.00  0.00    +0.000 A 
ATOM      9  O   UNL     1      15.105  13.503  30.236  0.00  0.00    +0.000 OA
ATOM     10  C   UNL     1      14.482  13.448  32.565  0.00  0.00    +0.000 A 
ATOM     11 CL   UNL     1      13.417  14.826  32.368  0.00  0.00    +0.000 Cl
ATOM     12  C   UNL     1      14.634  12.825  33.801  0.00  0.00    +0.000 A 
ATOM     13  C   UNL     1      13.831  13.415  34.926  0.00  0.00    +0.000 C 
ENDBRANCH   3   4
BRANCH   1  17
ATOM     14  C   UNL     1      16.391   9.717  40.124  0.00  0.00    +0.000 A 
ATOM     15  C   UNL     1      17.549   9.815  39.390  0.00  0.00    +0.000 A 
ATOM     16  C   UNL     1      17.563  10.422  38.148  0.00  0.00    +0.000 A 
ATOM     17  C   UNL     1      16.412  10.952  37.600  0.00  0.00    +0.000 A 
ATOM     18  C   UNL     1      15.258  10.844  38.349  0.00  0.00    +0.000 A 
ATOM     19  C   UNL     1      15.230  10.239  39.596  0.00  0.00    +0.000 A 
BRANCH  14  21
ATOM     20  C   UNL     1      15.883   7.785  41.532  0.00  0.00    +0.000 C 
ATOM     21  O   UNL     1      16.335   9.115  41.375  0.00  0.00    +0.000 OA
ENDBRANCH  14  21
ENDBRANCH   1  17
TORSDOF 3
ENDMDL
MODEL 2
REMARK VINA RESULT:      -7.1      1.546      2.503
REMARK  Name = 
REMARK  3 active torsions:
REMARK  status: ('A' for Active; 'I' for Inactive)
REMARK    1  A    between atoms: O_2  and  C_3
REMARK    2  A    between atoms: C_6  and  C_7
REMARK    3  A    between atoms: N_9  and  C_10
REMARK                            x       y       z     vdW  Elec       q    Type
REMARK                         _______ _______ _______ _____ _____    ______ ____
ROOT
ATOM      1  C   UNL     1      16.740  11.555  36.428  0.00  0.00    +0.000 C 
ATOM      2  O   UNL     1      17.294  12.668  36.271  0.00  0.00    +0.000 OA
ATOM      3  N   UNL     1      15.670  11.212  35.600  0.00  0.00    +0.000 NA
ENDROOT
BRANCH   3   4
ATOM      4  C   UNL     1      15.129  12.017  34.572  0.00  0.00    +0.000 A 
ATOM      5  C   UNL     1      14.172  12.976  34.800  0.00  0.00    +0.000 A 
ATOM      6  C   UNL     1      13.636  13.224  36.190  0.00  0.00    +0.000 C 
ATOM      7  C   UNL     1      13.699  13.715  33.745  0.00  0.00    +0.000 A 
ATOM      8  C   UNL     1      14.170  13.507  32.473  0.00  0.00    +0.000 A 
ATOM      9  O   UNL     1      13.658  14.286  31.424  0.00  0.00    +0.000 OA
ATOM     10  C   UNL     1      15.133  12.549  32.213  0.00  0.00    +0.000 A 
ATOM     11 CL   UNL     1      15.750  12.266  30.597  0.00  0.00    +0.000 Cl
ATOM     12  C   UNL     1      15.596  11.814  33.301  0.00  0.00    +0.000 A 
ATOM     13  C   UNL     1      16.643  10.782  32.985  0.00  0.00    +0.000 C 
ENDBRANCH   3   4
BRANCH   1  17
ATOM     14  C   UNL     1      18.136   8.891  39.465  0.00  0.00    +0.000 A 
ATOM     15  C   UNL     1      18.826   9.047  38.286  0.00  0.00    +0.000 A 
ATOM     16  C   UNL     1      18.378   9.907  37.301  0.00  0.00    +0.000 A 
ATOM     17  C   UNL     1      17.221  10.641  37.466  0.00  0.00    +0.000 A 
ATOM     18  C   UNL     1      16.540  10.473  38.655  0.00  0.00    +0.000 A 
ATOM     19  C   UNL     1      16.978   9.614  39.651  0.00  0.00    +0.000 A 
BRANCH  14  21
ATOM     20  C   UNL     1      18.452   6.633  40.345  0.00  0.00    +0.000 C 
ATOM     21  O   UNL     1      18.551   8.037  40.479  0.00  0.00    +0.000 OA
ENDBRANCH  14  21
ENDBRANCH   1  17
TORSDOF 3
ENDMDL
MODEL 3
REMARK VINA RESULT:      -7.1      2.960      7.590
REMARK  Name = 
REMARK  3 active torsions:
REMARK  status: ('A' for Active; 'I' for Inactive)
REMARK    1  A    between atoms: O_2  and  C_3
REMARK    2  A    between atoms: C_6  and  C_7
REMARK    3  A    between atoms: N_9  and  C_10
REMARK                            x       y       z     vdW  Elec       q    Type
REMARK                         _______ _______ _______ _____ _____    ______ ____
ROOT
ATOM      1  C   UNL     1      17.007  10.038  35.302  0.00  0.00    +0.000 C 
ATOM      2  O   UNL     1      17.119   8.790  35.311  0.00  0.00    +0.000 OA
ATOM      3  N   UNL     1      17.435  10.761  36.416  0.00  0.00    +0.000 NA
ENDROOT
BRANCH   3   4
ATOM      4  C   UNL     1      17.999  10.213  37.591  0.00  0.00    +0.000 A 
ATOM      5  C   UNL     1      19.300   9.779  37.662  0.00  0.00    +0.000 A 
ATOM      6  C   UNL     1      20.215   9.866  36.463  0.00  0.00    +0.000 C 
ATOM      7  C   UNL     1      19.771   9.259  38.841  0.00  0.00    +0.000 A 
ATOM      8  C   UNL     1      18.958   9.169  39.943  0.00  0.00    +0.000 A 
ATOM      9  O   UNL     1      19.480   8.631  41.129  0.00  0.00    +0.000 OA
ATOM     10  C   UNL     1      17.644   9.598  39.902  0.00  0.00    +0.000 A 
ATOM     11 CL   UNL     1      16.587   9.493  41.297  0.00  0.00    +0.000 Cl
ATOM     12  C   UNL     1      17.193  10.121  38.693  0.00  0.00    +0.000 A 
ATOM     13  C   UNL     1      15.760  10.579  38.681  0.00  0.00    +0.000 C 
ENDBRANCH   3   4
BRANCH   1  17
ATOM     14  C   UNL     1      15.333  12.007  31.897  0.00  0.00    +0.000 A 
ATOM     15  C   UNL     1      16.254  10.997  31.751  0.00  0.00    +0.000 A 
ATOM     16  C   UNL     1      16.799  10.357  32.848  0.00  0.00    +0.000 A 
ATOM     17  C   UNL     1      16.436  10.710  34.133  0.00  0.00    +0.000 A 
ATOM     18  C   UNL     1      15.510  11.726  34.263  0.00  0.00    +0.000 A 
ATOM     19  C   UNL     1      14.956  12.375  33.171  0.00  0.00    +0.000 A 
BRANCH  14  21
ATOM     20  C   UNL     1      13.733  13.625  31.007  0.00  0.00    +0.000 C 
ATOM     21  O   UNL     1      14.762  12.675  30.821  0.00  0.00    +0.000 OA
ENDBRANCH  14  21
ENDBRANCH   1  17
TORSDOF 3
ENDMDL
MODEL 4
REMARK VINA RESULT:      -6.8      1.769      2.595
REMARK  Name = 
REMARK  3 active torsions:
REMARK  status: ('A' for Active; 'I' for Inactive)
REMARK    1  A    between atoms: O_2  and  C_3
REMARK    2  A    between atoms: C_6  and  C_7
REMARK    3  A    between atoms: N_9  and  C_10
REMARK                            x       y       z     vdW  Elec       q    Type
REMARK                         _______ _______ _______ _____ _____    ______ ____
ROOT
ATOM      1  C   UNL     1      17.432  10.523  38.128  0.00  0.00    +0.000 C 
ATOM      2  O   UNL     1      18.332  11.309  37.750  0.00  0.00    +0.000 OA
ATOM      3  N   UNL     1      16.423  10.173  37.230  0.00  0.00    +0.000 NA
ENDROOT
BRANCH   3   4
ATOM      4  C   UNL     1      16.309  10.628  35.896  0.00  0.00    +0.000 A 
ATOM      5  C   UNL     1      17.019  10.079  34.857  0.00  0.00    +0.000 A 
ATOM      6  C   UNL     1      17.980   8.937  35.090  0.00  0.00    +0.000 C 
ATOM      7  C   UNL     1      16.850  10.580  33.590  0.00  0.00    +0.000 A 
ATOM      8  C   UNL     1      15.984  11.617  33.355  0.00  0.00    +0.000 A 
ATOM      9  O   UNL     1      15.842  12.098  32.044  0.00  0.00    +0.000 OA
ATOM     10  C   UNL     1      15.255  12.190  34.381  0.00  0.00    +0.000 A 
ATOM     11 CL   UNL     1      14.142  13.516  34.104  0.00  0.00    +0.000 Cl
ATOM     12  C   UNL     1      15.445  11.663  35.655  0.00  0.00    +0.000 A 
ATOM     13  C   UNL     1      14.639  12.307  36.749  0.00  0.00    +0.000 C 
ENDBRANCH   3   4
BRANCH   1  17
ATOM     14  C   UNL     1      17.509   8.967  42.108  0.00  0.00    +0.000 A 
ATOM     15  C   UNL     1      16.320   9.175  41.451  0.00  0.00    +0.000 A 
ATOM     16  C   UNL     1      16.290   9.679  40.164  0.00  0.00    +0.000 A 
ATOM     17  C   UNL     1      17.454   9.990  39.492  0.00  0.00    +0.000 A 
ATOM     18  C   UNL     1      18.640   9.776  40.166  0.00  0.00    +0.000 A 
ATOM     19  C   UNL     1      18.685   9.272  41.456  0.00  0.00    +0.000 A 
BRANCH  14  21
ATOM     20  C   UNL     1      16.621   7.551  43.891  0.00  0.00    +0.000 C 
ATOM     21  O   UNL     1      17.583   8.464  43.402  0.00  0.00    +0.000 OA
ENDBRANCH  14  21
ENDBRANCH   1  17
TORSDOF 3
ENDMDL
MODEL 5
REMARK VINA RESULT:      -6.5      3.600      7.973
REMARK  Name = 
REMARK  3 active torsions:
REMARK  status: ('A' for Active; 'I' for Inactive)
REMARK    1  A    between atoms: O_2  and  C_3
REMARK    2  A    between atoms: C_6  and  C_7
REMARK    3  A    between atoms: N_9  and  C_10
REMARK                            x       y       z     vdW  Elec       q    Type
REMARK                         _______ _______ _______ _____ _____    ______ ____
ROOT
ATOM      1  C   UNL     1      17.553   9.843  35.957  0.00  0.00    +0.000 C 
ATOM      2  O   UNL     1      17.646   8.594  35.955  0.00  0.00    +0.000 OA
ATOM      3  N   UNL     1      18.133  10.561  37.004  0.00  0.00    +0.000 NA
ENDROOT
BRANCH   3   4
ATOM      4  C   UNL     1      18.834  10.005  38.099  0.00  0.00    +0.000 A 
ATOM      5  C   UNL     1      18.224   9.664  39.281  0.00  0.00    +0.000 A 
ATOM      6  C   UNL     1      16.740   9.869  39.477  0.00  0.00    +0.000 C 
ATOM      7  C   UNL     1      18.978   9.129  40.295  0.00  0.00    +0.000 A 
ATOM      8  C   UNL     1      20.327   8.934  40.140  0.00  0.00    +0.000 A 
ATOM      9  O   UNL     1      21.060   8.384  41.203  0.00  0.00    +0.000 OA
ATOM     10  C   UNL     1      20.970   9.268  38.961  0.00  0.00    +0.000 A 
ATOM     11 CL   UNL     1      22.692   9.027  38.740  0.00  0.00    +0.000 Cl
ATOM     12  C   UNL     1      20.181   9.808  37.949  0.00  0.00    +0.000 A 
ATOM     13  C   UNL     1      20.909  10.160  36.681  0.00  0.00    +0.000 C 
ENDBRANCH   3   4
BRANCH   1  17
ATOM     14  C   UNL     1      15.484  11.834  32.791  0.00  0.00    +0.000 A 
ATOM     15  C   UNL     1      16.496  10.942  32.526  0.00  0.00    +0.000 A 
ATOM     16  C   UNL     1      17.168  10.296  33.546  0.00  0.00    +0.000 A 
ATOM     17  C   UNL     1      16.847  10.523  34.869  0.00  0.00    +0.000 A 
ATOM     18  C   UNL     1      15.829  11.422  35.118  0.00  0.00    +0.000 A 
ATOM     19  C   UNL     1      15.146  12.077  34.105  0.00  0.00    +0.000 A 
BRANCH  14  21
ATOM     20  C   UNL     1      13.955  13.609  32.095  0.00  0.00    +0.000 C 
ATOM     21  O   UNL     1      14.784  12.504  31.795  0.00  0.00    +0.000 OA
ENDBRANCH  14  21
ENDBRANCH   1  17
TORSDOF 3
ENDMDL
MODEL 6
REMARK VINA RESULT:      -6.2      3.543      7.855
REMARK  Name = 
REMARK  3 active torsions:
REMARK  status: ('A' for Active; 'I' for Inactive)
REMARK    1  A    between atoms: O_2  and  C_3
REMARK    2  A    between atoms: C_6  and  C_7
REMARK    3  A    between atoms: N_9  and  C_10
REMARK                            x       y       z     vdW  Elec       q    Type
REMARK                         _______ _______ _______ _____ _____    ______ ____
ROOT
ATOM      1  C   UNL     1      17.821  11.174  36.686  0.00  0.00    +0.000 C 
ATOM      2  O   UNL     1      18.135  12.227  37.289  0.00  0.00    +0.000 OA
ATOM      3  N   UNL     1      18.272   9.952  37.186  0.00  0.00    +0.000 NA
ENDROOT
BRANCH   3   4
ATOM      4  C   UNL     1      19.073   9.774  38.338  0.00  0.00    +0.000 A 
ATOM      5  C   UNL     1      20.445   9.729  38.293  0.00  0.00    +0.000 A 
ATOM      6  C   UNL     1      21.185   9.868  36.983  0.00  0.00    +0.000 C 
ATOM      7  C   UNL     1      21.148   9.553  39.458  0.00  0.00    +0.000 A 
ATOM      8  C   UNL     1      20.498   9.423  40.659  0.00  0.00    +0.000 A 
ATOM      9  O   UNL     1      21.257   9.246  41.826  0.00  0.00    +0.000 OA
ATOM     10  C   UNL     1      19.118   9.465  40.735  0.00  0.00    +0.000 A 
ATOM     11 CL   UNL     1      18.265   9.302  42.259  0.00  0.00    +0.000 Cl
ATOM     12  C   UNL     1      18.429   9.645  39.539  0.00  0.00    +0.000 A 
ATOM     13  C   UNL     1      16.930   9.686  39.656  0.00  0.00    +0.000 C 
ENDBRANCH   3   4
BRANCH   1  17
ATOM     14  C   UNL     1      15.412  11.368  33.160  0.00  0.00    +0.000 A 
ATOM     15  C   UNL     1      15.049  12.036  34.305  0.00  0.00    +0.000 A 
ATOM     16  C   UNL     1      15.824  11.977  35.448  0.00  0.00    +0.000 A 
ATOM     17  C   UNL     1      16.993  11.243  35.480  0.00  0.00    +0.000 A 
ATOM     18  C   UNL     1      17.343  10.577  34.322  0.00  0.00    +0.000 A 
ATOM     19  C   UNL     1      16.575  10.628  33.170  0.00  0.00    +0.000 A 
BRANCH  14  21
ATOM     20  C   UNL     1      14.268  12.626  31.406  0.00  0.00    +0.000 C 
ATOM     21  O   UNL     1      14.661  11.401  31.991  0.00  0.00    +0.000 OA
ENDBRANCH  14  21
ENDBRANCH   1  17
TORSDOF 3
ENDMDL
MODEL 7
REMARK VINA RESULT:      -6.1     18.959     20.466
REMARK  Name = 
REMARK  3 active torsions:
REMARK  status: ('A' for Active; 'I' for Inactive)
REMARK    1  A    between atoms: O_2  and  C_3
REMARK    2  A    between atoms: C_6  and  C_7
REMARK    3  A    between atoms: N_9  and  C_10
REMARK                            x       y       z     vdW  Elec       q    Type
REMARK                         _______ _______ _______ _____ _____    ______ ____
ROOT
ATOM      1  C   UNL     1      30.986  22.993  28.045  0.00  0.00    +0.000 C 
ATOM      2  O   UNL     1      30.674  24.206  28.038  0.00  0.00    +0.000 OA
ATOM      3  N   UNL     1      30.581  22.187  26.980  0.00  0.00    +0.000 NA
ENDROOT
BRANCH   3   4
ATOM      4  C   UNL     1      29.831  22.613  25.860  0.00  0.00    +0.000 A 
ATOM      5  C   UNL     1      30.412  23.056  24.697  0.00  0.00    +0.000 A 
ATOM      6  C   UNL     1      31.915  23.113  24.552  0.00  0.00    +0.000 C 
ATOM      7  C   UNL     1      29.612  23.452  23.655  0.00  0.00    +0.000 A 
ATOM      8  C   UNL     1      28.245  23.410  23.764  0.00  0.00    +0.000 A 
ATOM      9  O   UNL     1      27.464  23.825  22.674  0.00  0.00    +0.000 OA
ATOM     10  C   UNL     1      27.631  22.969  24.922  0.00  0.00    +0.000 A 
ATOM     11 CL   UNL     1      25.886  22.906  25.084  0.00  0.00    +0.000 Cl
ATOM     12  C   UNL     1      28.466  22.573  25.963  0.00  0.00    +0.000 A 
ATOM     13  C   UNL     1      27.768  22.098  27.207  0.00  0.00    +0.000 C 
ENDBRANCH   3   4
BRANCH   1  17
ATOM     14  C   UNL     1      33.266  21.396  31.289  0.00  0.00    +0.000 A 
ATOM     15  C   UNL     1      31.912  21.599  31.406  0.00  0.00    +0.000 A 
ATOM     16  C   UNL     1      31.170  22.116  30.360  0.00  0.00    +0.000 A 
ATOM     17  C   UNL     1      31.764  22.446  29.159  0.00  0.00    +0.000 A 
ATOM     18  C   UNL     1      33.125  22.237  29.057  0.00  0.00    +0.000 A 
ATOM     19  C   UNL     1      33.880  21.719  30.098  0.00  0.00    +0.000 A 
BRANCH  14  21
ATOM     20  C   UNL     1      35.369  21.333  32.532  0.00  0.00    +0.000 C 
ATOM     21  O   UNL     1      34.048  20.880  32.316  0.00  0.00    +0.000 OA
ENDBRANCH  14  21
ENDBRANCH   1  17
TORSDOF 3
ENDMDL
MODEL 8
REMARK VINA RESULT:      -6.1     20.154     21.962
REMARK  Name = 
REMARK  3 active torsions:
REMARK  status: ('A' for Active; 'I' for Inactive)
REMARK    1  A    between atoms: O_2  and  C_3
REMARK    2  A    between atoms: C_6  and  C_7
REMARK    3  A    between atoms: N_9  and  C_10
REMARK                            x       y       z     vdW  Elec       q    Type
REMARK                         _______ _______ _______ _____ _____    ______ ____
ROOT
ATOM      1  C   UNL     1      32.741  -1.092  35.102  0.00  0.00    +0.000 C 
ATOM      2  O   UNL     1      31.680  -0.668  35.615  0.00  0.00    +0.000 OA
ATOM      3  N   UNL     1      33.870  -0.271  35.115  0.00  0.00    +0.000 NA
ENDROOT
BRANCH   3   4
ATOM      4  C   UNL     1      33.940   1.030  35.663  0.00  0.00    +0.000 A 
ATOM      5  C   UNL     1      34.147   1.267  37.000  0.00  0.00    +0.000 A 
ATOM      6  C   UNL     1      34.315   0.125  37.974  0.00  0.00    +0.000 C 
ATOM      7  C   UNL     1      34.202   2.561  37.451  0.00  0.00    +0.000 A 
ATOM      8  C   UNL     1      34.052   3.615  36.585  0.00  0.00    +0.000 A 
ATOM      9  O   UNL     1      34.115   4.923  37.090  0.00  0.00    +0.000 OA
ATOM     10  C   UNL     1      33.842   3.408  35.234  0.00  0.00    +0.000 A 
ATOM     11 CL   UNL     1      33.648   4.738  34.109  0.00  0.00    +0.000 Cl
ATOM     12  C   UNL     1      33.791   2.086  34.803  0.00  0.00    +0.000 A 
ATOM     13  C   UNL     1      33.562   1.894  33.329  0.00  0.00    +0.000 C 
ENDBRANCH   3   4
BRANCH   1  17
ATOM     14  C   UNL     1      32.862  -4.989  33.352  0.00  0.00    +0.000 A 
ATOM     15  C   UNL     1      32.093  -4.734  34.463  0.00  0.00    +0.000 A 
ATOM     16  C   UNL     1      32.051  -3.475  35.033  0.00  0.00    +0.000 A 
ATOM     17  C   UNL     1      32.780  -2.428  34.506  0.00  0.00    +0.000 A 
ATOM     18  C   UNL     1      33.548  -2.702  33.391  0.00  0.00    +0.000 A 
ATOM     19  C   UNL     1      33.599  -3.959  32.810  0.00  0.00    +0.000 A 
BRANCH  14  21
ATOM     20  C   UNL     1      32.014  -6.626  31.748  0.00  0.00    +0.000 C 
ATOM     21  O   UNL     1      32.933  -6.240  32.750  0.00  0.00    +0.000 OA
ENDBRANCH  14  21
ENDBRANCH   1  17
TORSDOF 3
ENDMDL
MODEL 9
REMARK VINA RESULT:      -6.1     18.883     22.106
REMARK  Name = 
REMARK  3 active torsions:
REMARK  status: ('A' for Active; 'I' for Inactive)
REMARK    1  A    between atoms: O_2  and  C_3
REMARK    2  A    between atoms: C_6  and  C_7
REMARK    3  A    between atoms: N_9  and  C_10
REMARK                            x       y       z     vdW  Elec       q    Type
REMARK                         _______ _______ _______ _____ _____    ______ ____
ROOT
ATOM      1  C   UNL     1      28.271  25.322  25.118  0.00  0.00    +0.000 C 
ATOM      2  O   UNL     1      28.589  26.249  25.899  0.00  0.00    +0.000 OA
ATOM      3  N   UNL     1      27.540  24.243  25.616  0.00  0.00    +0.000 NA
ENDROOT
BRANCH   3   4
ATOM      4  C   UNL     1      27.108  24.083  26.953  0.00  0.00    +0.000 A 
ATOM      5  C   UNL     1      25.895  24.540  27.405  0.00  0.00    +0.000 A 
ATOM      6  C   UNL     1      24.938  25.252  26.478  0.00  0.00    +0.000 C 
ATOM      7  C   UNL     1      25.551  24.344  28.719  0.00  0.00    +0.000 A 
ATOM      8  C   UNL     1      26.404  23.700  29.579  0.00  0.00    +0.000 A 
ATOM      9  O   UNL     1      26.013  23.521  30.915  0.00  0.00    +0.000 OA
ATOM     10  C   UNL     1      27.633  23.229  29.153  0.00  0.00    +0.000 A 
ATOM     11 CL   UNL     1      28.738  22.404  30.235  0.00  0.00    +0.000 Cl
ATOM     12  C   UNL     1      27.956  23.441  27.816  0.00  0.00    +0.000 A 
ATOM     13  C   UNL     1      29.297  22.917  27.384  0.00  0.00    +0.000 C 
ENDBRANCH   3   4
BRANCH   1  17
ATOM     14  C   UNL     1      29.427  25.524  21.008  0.00  0.00    +0.000 A 
ATOM     15  C   UNL     1      29.230  24.314  21.631  0.00  0.00    +0.000 A 
ATOM     16  C   UNL     1      28.857  24.244  22.960  0.00  0.00    +0.000 A 
ATOM     17  C   UNL     1      28.667  25.387  23.710  0.00  0.00    +0.000 A 
ATOM     18  C   UNL     1      28.869  26.593  23.069  0.00  0.00    +0.000 A 
ATOM     19  C   UNL     1      29.243  26.678  21.737  0.00  0.00    +0.000 A 
BRANCH  14  21
ATOM     20  C   UNL     1      30.129  26.890  19.107  0.00  0.00    +0.000 C 
ATOM     21  O   UNL     1      29.802  25.637  19.674  0.00  0.00    +0.000 OA
ENDBRANCH  14  21
ENDBRANCH   1  17
TORSDOF 3
ENDMDL
MODEL 10
REMARK VINA RESULT:      -6.1     19.916     21.534
REMARK  Name = 
REMARK  3 active torsions:
REMARK  status: ('A' for Active; 'I' for Inactive)
REMARK    1  A    between atoms: O_2  and  C_3
REMARK    2  A    between atoms: C_6  and  C_7
REMARK    3  A    between atoms: N_9  and  C_10
REMARK                            x       y       z     vdW  Elec       q    Type
REMARK                         _______ _______ _______ _____ _____    ______ ____
ROOT
ATOM      1  C   UNL     1      32.721  -0.197  34.536  0.00  0.00    +0.000 C 
ATOM      2  O   UNL     1      31.625   0.395  34.409  0.00  0.00    +0.000 OA
ATOM      3  N   UNL     1      33.859   0.550  34.845  0.00  0.00    +0.000 NA
ENDROOT
BRANCH   3   4
ATOM      4  C   UNL     1      33.902   1.950  35.033  0.00  0.00    +0.000 A 
ATOM      5  C   UNL     1      33.892   2.844  33.990  0.00  0.00    +0.000 A 
ATOM      6  C   UNL     1      33.834   2.366  32.558  0.00  0.00    +0.000 C 
ATOM      7  C   UNL     1      33.936   4.189  34.258  0.00  0.00    +0.000 A 
ATOM      8  C   UNL     1      33.991   4.646  35.551  0.00  0.00    +0.000 A 
ATOM      9  O   UNL     1      34.035   6.030  35.780  0.00  0.00    +0.000 OA
ATOM     10  C   UNL     1      34.002   3.771  36.621  0.00  0.00    +0.000 A 
ATOM     11 CL   UNL     1      34.071   4.332  38.281  0.00  0.00    +0.000 Cl
ATOM     12  C   UNL     1      33.956   2.412  36.321  0.00  0.00    +0.000 A 
ATOM     13  C   UNL     1      33.969   1.487  37.506  0.00  0.00    +0.000 C 
ENDBRANCH   3   4
BRANCH   1  17
ATOM     14  C   UNL     1      32.915  -4.438  34.039  0.00  0.00    +0.000 A 
ATOM     15  C   UNL     1      33.684  -3.598  33.270  0.00  0.00    +0.000 A 
ATOM     16  C   UNL     1      33.625  -2.226  33.426  0.00  0.00    +0.000 A 
ATOM     17  C   UNL     1      32.790  -1.650  34.363  0.00  0.00    +0.000 A 
ATOM     18  C   UNL     1      32.024  -2.508  35.127  0.00  0.00    +0.000 A 
ATOM     19  C   UNL     1      32.074  -3.885  34.980  0.00  0.00    +0.000 A 
BRANCH  14  21
ATOM     20  C   UNL     1      33.585  -6.447  32.819  0.00  0.00    +0.000 C 
ATOM     21  O   UNL     1      32.944  -5.822  33.913  0.00  0.00    +0.000 OA
ENDBRANCH  14  21
ENDBRANCH   1  17
TORSDOF 3
ENDMDL
