MODEL 1
REMARK VINA RESULT:      -6.9      0.000      0.000
REMARK  Name = 
REMARK  7 active torsions:
REMARK  status: ('A' for Active; 'I' for Inactive)
REMARK    1  A    between atoms: C_6  and  C_7
REMARK    2  A    between atoms: C_7  and  S_8
REMARK    3  A    between atoms: S_8  and  C_9
REMARK    4  A    between atoms: N_20  and  C_21
REMARK    5  A    between atoms: C_21  and  C_22
REMARK    6  A    between atoms: C_22  and  C_23
REMARK    7  A    between atoms: C_23  and  C_24
REMARK                            x       y       z     vdW  Elec       q    Type
REMARK                         _______ _______ _______ _____ _____    ______ ____
ROOT
ATOM      1  C   UNL     1      36.338   2.215  16.715  0.00  0.00    +0.000 A 
ATOM      2  N   UNL     1      37.101   2.992  17.540  0.00  0.00    +0.000 NA
ATOM      3  C   UNL     1      37.718   3.940  16.822  0.00  0.00    +0.000 A 
ATOM      4  C   UNL     1      37.348   3.771  15.512  0.00  0.00    +0.000 A 
ATOM      5  C   UNL     1      37.843   4.621  14.545  0.00  0.00    +0.000 A 
ATOM      6  O   UNL     1      37.514   4.480  13.343  0.00  0.00    +0.000 OA
ATOM      7  N   UNL     1      38.685   5.613  14.881  0.00  0.00    +0.000 NA
ATOM      8  C   UNL     1      39.062   5.793  16.177  0.00  0.00    +0.000 A 
ATOM      9  O   UNL     1      39.859   6.735  16.477  0.00  0.00    +0.000 OA
ATOM     10  N   UNL     1      38.566   4.953  17.091  0.00  0.00    +0.000 N 
ATOM     11  C   UNL     1      38.955   5.127  18.478  0.00  0.00    +0.000 C 
ATOM     12  N   UNL     1      36.504   2.705  15.490  0.00  0.00    +0.000 N 
ENDROOT
BRANCH   1  13
ATOM     13  S   UNL     1      35.320   0.853  17.294  0.00  0.00    +0.000 S 
BRANCH  13  14
ATOM     14  C   UNL     1      36.129   0.024  18.716  0.00  0.00    +0.000 C 
BRANCH  14  20
ATOM     15  C   UNL     1      35.700  -3.952  15.774  0.00  0.00    +0.000 C 
ATOM     16  C   UNL     1      36.474  -3.165  16.773  0.00  0.00    +0.000 A 
ATOM     17  C   UNL     1      37.711  -3.608  17.222  0.00  0.00    +0.000 A 
ATOM     18  C   UNL     1      38.458  -2.914  18.141  0.00  0.00    +0.000 A 
ATOM     19  C   UNL     1      37.954  -1.716  18.644  0.00  0.00    +0.000 A 
ATOM     20  C   UNL     1      36.726  -1.245  18.221  0.00  0.00    +0.000 A 
ATOM     21  C   UNL     1      36.009  -1.976  17.296  0.00  0.00    +0.000 A 
ENDBRANCH  14  20
ENDBRANCH  13  14
ENDBRANCH   1  13
BRANCH  12  22
ATOM     22  C   UNL     1      35.887   2.262  14.282  0.00  0.00    +0.000 C 
BRANCH  22  23
ATOM     23  C   UNL     1      36.376   1.144  13.555  0.00  0.00    +0.000 C 
BRANCH  23  24
ATOM     24  C   UNL     1      36.445  -0.229  13.867  0.00  0.00    +0.000 C 
BRANCH  24  25
ATOM     25  C   UNL     1      37.699  -0.905  14.169  0.00  0.00    +0.000 A 
ATOM     26  C   UNL     1      37.976  -2.095  13.499  0.00  0.00    +0.000 A 
ATOM     27  C   UNL     1      39.143  -2.784  13.702  0.00  0.00    +0.000 A 
ATOM     28  C   UNL     1      40.060  -2.281  14.595  0.00  0.00    +0.000 A 
ATOM     29  C   UNL     1      39.843  -1.102  15.292  0.00  0.00    +0.000 A 
ATOM     30  C   UNL     1      38.647  -0.458  15.038  0.00  0.00    +0.000 A 
ENDBRANCH  24  25
ENDBRANCH  23  24
ENDBRANCH  22  23
ENDBRANCH  12  22
TORSDOF 7
ENDMDL
MODEL 2
REMARK VINA RESULT:      -6.3      3.938      8.563
REMARK  Name = 
REMARK  7 active torsions:
REMARK  status: ('A' for Active; 'I' for Inactive)
REMARK    1  A    between atoms: C_6  and  C_7
REMARK    2  A    between atoms: C_7  and  S_8
REMARK    3  A    between atoms: S_8  and  C_9
REMARK    4  A    between atoms: N_20  and  C_21
REMARK    5  A    between atoms: C_21  and  C_22
REMARK    6  A    between atoms: C_22  and  C_23
REMARK    7  A    between atoms: C_23  and  C_24
REMARK                            x       y       z     vdW  Elec       q    Type
REMARK                         _______ _______ _______ _____ _____    ______ ____
ROOT
ATOM      1  C   UNL     1      38.167   5.390  14.400  0.00  0.00    +0.000 A 
ATOM      2  N   UNL     1      38.069   4.808  13.168  0.00  0.00    +0.000 NA
ATOM      3  C   UNL     1      37.659   3.539  13.302  0.00  0.00    +0.000 A 
ATOM      4  C   UNL     1      37.492   3.300  14.643  0.00  0.00    +0.000 A 
ATOM      5  C   UNL     1      37.071   2.057  15.068  0.00  0.00    +0.000 A 
ATOM      6  O   UNL     1      36.913   1.822  16.290  0.00  0.00    +0.000 OA
ATOM      7  N   UNL     1      36.825   1.082  14.178  0.00  0.00    +0.000 NA
ATOM      8  C   UNL     1      36.986   1.304  12.843  0.00  0.00    +0.000 A 
ATOM      9  O   UNL     1      36.749   0.372  12.016  0.00  0.00    +0.000 OA
ATOM     10  N   UNL     1      37.396   2.519  12.462  0.00  0.00    +0.000 N 
ATOM     11  C   UNL     1      37.575   2.777  11.046  0.00  0.00    +0.000 C 
ATOM     12  N   UNL     1      37.814   4.457  15.279  0.00  0.00    +0.000 N 
ENDROOT
BRANCH   1  13
ATOM     13  S   UNL     1      38.650   7.102  14.653  0.00  0.00    +0.000 S 
BRANCH  13  14
ATOM     14  C   UNL     1      37.481   7.922  15.805  0.00  0.00    +0.000 C 
BRANCH  14  20
ATOM     15  C   UNL     1      37.888   9.149  20.597  0.00  0.00    +0.000 C 
ATOM     16  C   UNL     1      38.437   9.156  19.214  0.00  0.00    +0.000 A 
ATOM     17  C   UNL     1      39.656   9.759  18.937  0.00  0.00    +0.000 A 
ATOM     18  C   UNL     1      40.200   9.788  17.677  0.00  0.00    +0.000 A 
ATOM     19  C   UNL     1      39.498   9.188  16.633  0.00  0.00    +0.000 A 
ATOM     20  C   UNL     1      38.281   8.580  16.870  0.00  0.00    +0.000 A 
ATOM     21  C   UNL     1      37.773   8.575  18.154  0.00  0.00    +0.000 A 
ENDBRANCH  14  20
ENDBRANCH  13  14
ENDBRANCH   1  13
BRANCH  12  22
ATOM     22  C   UNL     1      37.717   4.585  16.696  0.00  0.00    +0.000 C 
BRANCH  22  23
ATOM     23  C   UNL     1      38.868   4.683  17.522  0.00  0.00    +0.000 C 
BRANCH  23  24
ATOM     24  C   UNL     1      39.126   5.410  18.702  0.00  0.00    +0.000 C 
BRANCH  24  25
ATOM     25  C   UNL     1      40.411   6.037  18.975  0.00  0.00    +0.000 A 
ATOM     26  C   UNL     1      41.274   6.248  17.901  0.00  0.00    +0.000 A 
ATOM     27  C   UNL     1      42.493   6.854  18.062  0.00  0.00    +0.000 A 
ATOM     28  C   UNL     1      42.867   7.260  19.322  0.00  0.00    +0.000 A 
ATOM     29  C   UNL     1      42.053   7.078  20.429  0.00  0.00    +0.000 A 
ATOM     30  C   UNL     1      40.839   6.462  20.196  0.00  0.00    +0.000 A 
ENDBRANCH  24  25
ENDBRANCH  23  24
ENDBRANCH  22  23
ENDBRANCH  12  22
TORSDOF 7
ENDMDL
MODEL 3
REMARK VINA RESULT:      -6.3      3.181      8.461
REMARK  Name = 
REMARK  7 active torsions:
REMARK  status: ('A' for Active; 'I' for Inactive)
REMARK    1  A    between atoms: C_6  and  C_7
REMARK    2  A    between atoms: C_7  and  S_8
REMARK    3  A    between atoms: S_8  and  C_9
REMARK    4  A    between atoms: N_20  and  C_21
REMARK    5  A    between atoms: C_21  and  C_22
REMARK    6  A    between atoms: C_22  and  C_23
REMARK    7  A    between atoms: C_23  and  C_24
REMARK                            x       y       z     vdW  Elec       q    Type
REMARK                         _______ _______ _______ _____ _____    ______ ____
ROOT
ATOM      1  C   UNL     1      38.550   3.608  13.727  0.00  0.00    +0.000 A 
ATOM      2  N   UNL     1      38.475   2.438  13.026  0.00  0.00    +0.000 NA
ATOM      3  C   UNL     1      37.849   1.510  13.764  0.00  0.00    +0.000 A 
ATOM      4  C   UNL     1      37.517   2.093  14.961  0.00  0.00    +0.000 A 
ATOM      5  C   UNL     1      36.856   1.355  15.920  0.00  0.00    +0.000 A 
ATOM      6  O   UNL     1      36.545   1.872  17.020  0.00  0.00    +0.000 OA
ATOM      7  N   UNL     1      36.538   0.070  15.688  0.00  0.00    +0.000 NA
ATOM      8  C   UNL     1      36.861  -0.522  14.505  0.00  0.00    +0.000 A 
ATOM      9  O   UNL     1      36.553  -1.736  14.302  0.00  0.00    +0.000 OA
ATOM     10  N   UNL     1      37.502   0.219  13.595  0.00  0.00    +0.000 N 
ATOM     11  C   UNL     1      37.856  -0.391  12.327  0.00  0.00    +0.000 C 
ATOM     12  N   UNL     1      37.964   3.375  14.897  0.00  0.00    +0.000 N 
ENDROOT
BRANCH   1  13
ATOM     13  S   UNL     1      39.284   5.112  13.073  0.00  0.00    +0.000 S 
BRANCH  13  14
ATOM     14  C   UNL     1      41.025   5.257  13.631  0.00  0.00    +0.000 C 
BRANCH  14  20
ATOM     15  C   UNL     1      43.168   6.914  17.791  0.00  0.00    +0.000 C 
ATOM     16  C   UNL     1      42.149   7.067  16.717  0.00  0.00    +0.000 A 
ATOM     17  C   UNL     1      41.278   8.149  16.713  0.00  0.00    +0.000 A 
ATOM     18  C   UNL     1      40.325   8.329  15.743  0.00  0.00    +0.000 A 
ATOM     19  C   UNL     1      40.226   7.388  14.719  0.00  0.00    +0.000 A 
ATOM     20  C   UNL     1      41.075   6.298  14.691  0.00  0.00    +0.000 A 
ATOM     21  C   UNL     1      42.018   6.157  15.688  0.00  0.00    +0.000 A 
ENDBRANCH  14  20
ENDBRANCH  13  14
ENDBRANCH   1  13
BRANCH  12  22
ATOM     22  C   UNL     1      37.754   4.296  15.966  0.00  0.00    +0.000 C 
BRANCH  22  23
ATOM     23  C   UNL     1      38.789   4.638  16.876  0.00  0.00    +0.000 C 
BRANCH  23  24
ATOM     24  C   UNL     1      38.798   4.814  18.275  0.00  0.00    +0.000 C 
BRANCH  24  25
ATOM     25  C   UNL     1      39.122   6.085  18.906  0.00  0.00    +0.000 A 
ATOM     26  C   UNL     1      38.282   7.170  18.655  0.00  0.00    +0.000 A 
ATOM     27  C   UNL     1      38.497   8.397  19.227  0.00  0.00    +0.000 A 
ATOM     28  C   UNL     1      39.574   8.554  20.069  0.00  0.00    +0.000 A 
ATOM     29  C   UNL     1      40.445   7.514  20.357  0.00  0.00    +0.000 A 
ATOM     30  C   UNL     1      40.169   6.304  19.749  0.00  0.00    +0.000 A 
ENDBRANCH  24  25
ENDBRANCH  23  24
ENDBRANCH  22  23
ENDBRANCH  12  22
TORSDOF 7
ENDMDL
MODEL 4
REMARK VINA RESULT:      -6.3      3.667      6.536
REMARK  Name = 
REMARK  7 active torsions:
REMARK  status: ('A' for Active; 'I' for Inactive)
REMARK    1  A    between atoms: C_6  and  C_7
REMARK    2  A    between atoms: C_7  and  S_8
REMARK    3  A    between atoms: S_8  and  C_9
REMARK    4  A    between atoms: N_20  and  C_21
REMARK    5  A    between atoms: C_21  and  C_22
REMARK    6  A    between atoms: C_22  and  C_23
REMARK    7  A    between atoms: C_23  and  C_24
REMARK                            x       y       z     vdW  Elec       q    Type
REMARK                         _______ _______ _______ _____ _____    ______ ____
ROOT
ATOM      1  C   UNL     1      37.120   0.122  15.829  0.00  0.00    +0.000 A 
ATOM      2  N   UNL     1      37.055  -0.375  17.100  0.00  0.00    +0.000 NA
ATOM      3  C   UNL     1      37.778  -1.500  17.181  0.00  0.00    +0.000 A 
ATOM      4  C   UNL     1      38.317  -1.733  15.941  0.00  0.00    +0.000 A 
ATOM      5  C   UNL     1      39.115  -2.839  15.739  0.00  0.00    +0.000 A 
ATOM      6  O   UNL     1      39.616  -3.067  14.612  0.00  0.00    +0.000 OA
ATOM      7  N   UNL     1      39.366  -3.689  16.750  0.00  0.00    +0.000 NA
ATOM      8  C   UNL     1      38.838  -3.471  17.986  0.00  0.00    +0.000 A 
ATOM      9  O   UNL     1      39.085  -4.283  18.930  0.00  0.00    +0.000 OA
ATOM     10  N   UNL     1      38.068  -2.390  18.151  0.00  0.00    +0.000 N 
ATOM     11  C   UNL     1      37.495  -2.139  19.459  0.00  0.00    +0.000 C 
ATOM     12  N   UNL     1      37.890  -0.719  15.144  0.00  0.00    +0.000 N 
ENDROOT
BRANCH   1  13
ATOM     13  S   UNL     1      36.315   1.644  15.315  0.00  0.00    +0.000 S 
BRANCH  13  14
ATOM     14  C   UNL     1      36.296   2.845  16.701  0.00  0.00    +0.000 C 
BRANCH  14  20
ATOM     15  C   UNL     1      39.563   5.838  18.939  0.00  0.00    +0.000 C 
ATOM     16  C   UNL     1      39.079   5.145  17.714  0.00  0.00    +0.000 A 
ATOM     17  C   UNL     1      39.746   5.290  16.505  0.00  0.00    +0.000 A 
ATOM     18  C   UNL     1      39.335   4.670  15.352  0.00  0.00    +0.000 A 
ATOM     19  C   UNL     1      38.201   3.860  15.397  0.00  0.00    +0.000 A 
ATOM     20  C   UNL     1      37.511   3.692  16.582  0.00  0.00    +0.000 A 
ATOM     21  C   UNL     1      37.961   4.336  17.717  0.00  0.00    +0.000 A 
ENDBRANCH  14  20
ENDBRANCH  13  14
ENDBRANCH   1  13
BRANCH  12  22
ATOM     22  C   UNL     1      38.293  -0.617  13.779  0.00  0.00    +0.000 C 
BRANCH  22  23
ATOM     23  C   UNL     1      39.167   0.408  13.329  0.00  0.00    +0.000 C 
BRANCH  23  24
ATOM     24  C   UNL     1      40.281   1.031  13.928  0.00  0.00    +0.000 C 
BRANCH  24  25
ATOM     25  C   UNL     1      41.624   0.473  13.862  0.00  0.00    +0.000 A 
ATOM     26  C   UNL     1      42.607   1.215  13.209  0.00  0.00    +0.000 A 
ATOM     27  C   UNL     1      43.903   0.777  13.121  0.00  0.00    +0.000 A 
ATOM     28  C   UNL     1      44.233  -0.429  13.695  0.00  0.00    +0.000 A 
ATOM     29  C   UNL     1      43.300  -1.212  14.358  0.00  0.00    +0.000 A 
ATOM     30  C   UNL     1      42.014  -0.711  14.410  0.00  0.00    +0.000 A 
ENDBRANCH  24  25
ENDBRANCH  23  24
ENDBRANCH  22  23
ENDBRANCH  12  22
TORSDOF 7
ENDMDL
MODEL 5
REMARK VINA RESULT:      -6.2      2.951      6.701
REMARK  Name = 
REMARK  7 active torsions:
REMARK  status: ('A' for Active; 'I' for Inactive)
REMARK    1  A    between atoms: C_6  and  C_7
REMARK    2  A    between atoms: C_7  and  S_8
REMARK    3  A    between atoms: S_8  and  C_9
REMARK    4  A    between atoms: N_20  and  C_21
REMARK    5  A    between atoms: C_21  and  C_22
REMARK    6  A    between atoms: C_22  and  C_23
REMARK    7  A    between atoms: C_23  and  C_24
REMARK                            x       y       z     vdW  Elec       q    Type
REMARK                         _______ _______ _______ _____ _____    ______ ____
ROOT
ATOM      1  C   UNL     1      38.412   1.617  14.783  0.00  0.00    +0.000 A 
ATOM      2  N   UNL     1      38.118   0.350  15.201  0.00  0.00    +0.000 NA
ATOM      3  C   UNL     1      36.916   0.338  15.793  0.00  0.00    +0.000 A 
ATOM      4  C   UNL     1      36.427   1.620  15.757  0.00  0.00    +0.000 A 
ATOM      5  C   UNL     1      35.192   1.897  16.303  0.00  0.00    +0.000 A 
ATOM      6  O   UNL     1      34.731   3.063  16.278  0.00  0.00    +0.000 OA
ATOM      7  N   UNL     1      34.466   0.919  16.871  0.00  0.00    +0.000 NA
ATOM      8  C   UNL     1      34.937  -0.358  16.914  0.00  0.00    +0.000 A 
ATOM      9  O   UNL     1      34.239  -1.270  17.454  0.00  0.00    +0.000 OA
ATOM     10  N   UNL     1      36.139  -0.596  16.376  0.00  0.00    +0.000 N 
ATOM     11  C   UNL     1      36.660  -1.949  16.412  0.00  0.00    +0.000 C 
ATOM     12  N   UNL     1      37.373   2.370  15.132  0.00  0.00    +0.000 N 
ENDROOT
BRANCH   1  13
ATOM     13  S   UNL     1      39.920   2.049  13.907  0.00  0.00    +0.000 S 
BRANCH  13  14
ATOM     14  C   UNL     1      40.271   0.803  12.607  0.00  0.00    +0.000 C 
BRANCH  14  20
ATOM     15  C   UNL     1      44.414  -0.274  15.121  0.00  0.00    +0.000 C 
ATOM     16  C   UNL     1      43.172  -0.720  14.433  0.00  0.00    +0.000 A 
ATOM     17  C   UNL     1      42.846  -2.066  14.356  0.00  0.00    +0.000 A 
ATOM     18  C   UNL     1      41.711  -2.521  13.732  0.00  0.00    +0.000 A 
ATOM     19  C   UNL     1      40.850  -1.591  13.150  0.00  0.00    +0.000 A 
ATOM     20  C   UNL     1      41.143  -0.242  13.206  0.00  0.00    +0.000 A 
ATOM     21  C   UNL     1      42.295   0.169  13.844  0.00  0.00    +0.000 A 
ENDBRANCH  14  20
ENDBRANCH  13  14
ENDBRANCH   1  13
BRANCH  12  22
ATOM     22  C   UNL     1      37.182   3.761  14.882  0.00  0.00    +0.000 C 
BRANCH  22  23
ATOM     23  C   UNL     1      37.671   4.757  15.769  0.00  0.00    +0.000 C 
BRANCH  23  24
ATOM     24  C   UNL     1      38.051   4.710  17.126  0.00  0.00    +0.000 C 
BRANCH  24  25
ATOM     25  C   UNL     1      39.233   5.391  17.635  0.00  0.00    +0.000 A 
ATOM     26  C   UNL     1      39.283   5.679  18.999  0.00  0.00    +0.000 A 
ATOM     27  C   UNL     1      40.367   6.295  19.568  0.00  0.00    +0.000 A 
ATOM     28  C   UNL     1      41.430   6.636  18.764  0.00  0.00    +0.000 A 
ATOM     29  C   UNL     1      41.439   6.377  17.401  0.00  0.00    +0.000 A 
ATOM     30  C   UNL     1      40.316   5.753  16.894  0.00  0.00    +0.000 A 
ENDBRANCH  24  25
ENDBRANCH  23  24
ENDBRANCH  22  23
ENDBRANCH  12  22
TORSDOF 7
ENDMDL
MODEL 6
REMARK VINA RESULT:      -6.2      2.977      6.649
REMARK  Name = 
REMARK  7 active torsions:
REMARK  status: ('A' for Active; 'I' for Inactive)
REMARK    1  A    between atoms: C_6  and  C_7
REMARK    2  A    between atoms: C_7  and  S_8
REMARK    3  A    between atoms: S_8  and  C_9
REMARK    4  A    between atoms: N_20  and  C_21
REMARK    5  A    between atoms: C_21  and  C_22
REMARK    6  A    between atoms: C_22  and  C_23
REMARK    7  A    between atoms: C_23  and  C_24
REMARK                            x       y       z     vdW  Elec       q    Type
REMARK                         _______ _______ _______ _____ _____    ______ ____
ROOT
ATOM      1  C   UNL     1      38.360   2.209  14.956  0.00  0.00    +0.000 A 
ATOM      2  N   UNL     1      39.665   1.918  14.675  0.00  0.00    +0.000 NA
ATOM      3  C   UNL     1      39.748   0.689  14.146  0.00  0.00    +0.000 A 
ATOM      4  C   UNL     1      38.476   0.180  14.087  0.00  0.00    +0.000 A 
ATOM      5  C   UNL     1      38.268  -1.085  13.579  0.00  0.00    +0.000 A 
ATOM      6  O   UNL     1      37.111  -1.565  13.517  0.00  0.00    +0.000 OA
ATOM      7  N   UNL     1      39.305  -1.820  13.143  0.00  0.00    +0.000 NA
ATOM      8  C   UNL     1      40.574  -1.328  13.195  0.00  0.00    +0.000 A 
ATOM      9  O   UNL     1      41.542  -2.035  12.780  0.00  0.00    +0.000 OA
ATOM     10  N   UNL     1      40.744  -0.099  13.694  0.00  0.00    +0.000 N 
ATOM     11  C   UNL     1      42.087   0.445  13.759  0.00  0.00    +0.000 C 
ATOM     12  N   UNL     1      37.658   1.141  14.592  0.00  0.00    +0.000 N 
ENDROOT
BRANCH   1  13
ATOM     13  S   UNL     1      37.819   3.779  15.642  0.00  0.00    +0.000 S 
BRANCH  13  14
ATOM     14  C   UNL     1      39.114   5.054  15.395  0.00  0.00    +0.000 C 
BRANCH  14  20
ATOM     15  C   UNL     1      42.800   6.935  18.137  0.00  0.00    +0.000 C 
ATOM     16  C   UNL     1      41.417   6.398  18.033  0.00  0.00    +0.000 A 
ATOM     17  C   UNL     1      40.607   6.299  19.156  0.00  0.00    +0.000 A 
ATOM     18  C   UNL     1      39.325   5.811  19.106  0.00  0.00    +0.000 A 
ATOM     19  C   UNL     1      38.816   5.396  17.876  0.00  0.00    +0.000 A 
ATOM     20  C   UNL     1      39.593   5.478  16.737  0.00  0.00    +0.000 A 
ATOM     21  C   UNL     1      40.876   5.976  16.835  0.00  0.00    +0.000 A 
ENDBRANCH  14  20
ENDBRANCH  13  14
ENDBRANCH   1  13
BRANCH  12  22
ATOM     22  C   UNL     1      36.243   0.967  14.649  0.00  0.00    +0.000 C 
BRANCH  22  23
ATOM     23  C   UNL     1      35.579   0.601  15.850  0.00  0.00    +0.000 C 
BRANCH  23  24
ATOM     24  C   UNL     1      35.396  -0.643  16.488  0.00  0.00    +0.000 C 
BRANCH  24  25
ATOM     25  C   UNL     1      36.398  -1.232  17.365  0.00  0.00    +0.000 A 
ATOM     26  C   UNL     1      36.249  -1.051  18.739  0.00  0.00    +0.000 A 
ATOM     27  C   UNL     1      37.131  -1.592  19.638  0.00  0.00    +0.000 A 
ATOM     28  C   UNL     1      38.189  -2.330  19.163  0.00  0.00    +0.000 A 
ATOM     29  C   UNL     1      38.391  -2.546  17.808  0.00  0.00    +0.000 A 
ATOM     30  C   UNL     1      37.464  -1.974  16.957  0.00  0.00    +0.000 A 
ENDBRANCH  24  25
ENDBRANCH  23  24
ENDBRANCH  22  23
ENDBRANCH  12  22
TORSDOF 7
ENDMDL
MODEL 7
REMARK VINA RESULT:      -6.2      2.538      5.729
REMARK  Name = 
REMARK  7 active torsions:
REMARK  status: ('A' for Active; 'I' for Inactive)
REMARK    1  A    between atoms: C_6  and  C_7
REMARK    2  A    between atoms: C_7  and  S_8
REMARK    3  A    between atoms: S_8  and  C_9
REMARK    4  A    between atoms: N_20  and  C_21
REMARK    5  A    between atoms: C_21  and  C_22
REMARK    6  A    between atoms: C_22  and  C_23
REMARK    7  A    between atoms: C_23  and  C_24
REMARK                            x       y       z     vdW  Elec       q    Type
REMARK                         _______ _______ _______ _____ _____    ______ ____
ROOT
ATOM      1  C   UNL     1      37.394   2.796  15.595  0.00  0.00    +0.000 A 
ATOM      2  N   UNL     1      37.853   2.063  14.538  0.00  0.00    +0.000 NA
ATOM      3  C   UNL     1      38.888   2.694  13.967  0.00  0.00    +0.000 A 
ATOM      4  C   UNL     1      39.100   3.854  14.669  0.00  0.00    +0.000 A 
ATOM      5  C   UNL     1      40.117   4.705  14.292  0.00  0.00    +0.000 A 
ATOM      6  O   UNL     1      40.324   5.770  14.922  0.00  0.00    +0.000 OA
ATOM      7  N   UNL     1      40.900   4.404  13.242  0.00  0.00    +0.000 NA
ATOM      8  C   UNL     1      40.703   3.256  12.536  0.00  0.00    +0.000 A 
ATOM      9  O   UNL     1      41.451   2.987  11.548  0.00  0.00    +0.000 OA
ATOM     10  N   UNL     1      39.708   2.451  12.926  0.00  0.00    +0.000 N 
ATOM     11  C   UNL     1      39.480   1.224  12.188  0.00  0.00    +0.000 C 
ATOM     12  N   UNL     1      38.165   3.878  15.655  0.00  0.00    +0.000 N 
ENDROOT
BRANCH   1  13
ATOM     13  S   UNL     1      36.036   2.276  16.650  0.00  0.00    +0.000 S 
BRANCH  13  14
ATOM     14  C   UNL     1      35.570   0.544  16.267  0.00  0.00    +0.000 C 
BRANCH  14  20
ATOM     15  C   UNL     1      39.275  -2.755  16.415  0.00  0.00    +0.000 C 
ATOM     16  C   UNL     1      38.236  -1.953  17.115  0.00  0.00    +0.000 A 
ATOM     17  C   UNL     1      38.080  -2.039  18.491  0.00  0.00    +0.000 A 
ATOM     18  C   UNL     1      37.136  -1.317  19.177  0.00  0.00    +0.000 A 
ATOM     19  C   UNL     1      36.300  -0.460  18.462  0.00  0.00    +0.000 A 
ATOM     20  C   UNL     1      36.426  -0.348  17.091  0.00  0.00    +0.000 A 
ATOM     21  C   UNL     1      37.390  -1.095  16.443  0.00  0.00    +0.000 A 
ENDBRANCH  14  20
ENDBRANCH  13  14
ENDBRANCH   1  13
BRANCH  12  22
ATOM     22  C   UNL     1      38.112   4.935  16.611  0.00  0.00    +0.000 C 
BRANCH  22  23
ATOM     23  C   UNL     1      38.724   4.824  17.888  0.00  0.00    +0.000 C 
BRANCH  23  24
ATOM     24  C   UNL     1      39.142   5.794  18.823  0.00  0.00    +0.000 C 
BRANCH  24  25
ATOM     25  C   UNL     1      40.538   6.173  18.991  0.00  0.00    +0.000 A 
ATOM     26  C   UNL     1      41.025   6.308  20.291  0.00  0.00    +0.000 A 
ATOM     27  C   UNL     1      42.332   6.637  20.542  0.00  0.00    +0.000 A 
ATOM     28  C   UNL     1      43.178   6.839  19.477  0.00  0.00    +0.000 A 
ATOM     29  C   UNL     1      42.754   6.719  18.162  0.00  0.00    +0.000 A 
ATOM     30  C   UNL     1      41.426   6.384  17.981  0.00  0.00    +0.000 A 
ENDBRANCH  24  25
ENDBRANCH  23  24
ENDBRANCH  22  23
ENDBRANCH  12  22
TORSDOF 7
ENDMDL
MODEL 8
REMARK VINA RESULT:      -6.1      2.059      2.864
REMARK  Name = 
REMARK  7 active torsions:
REMARK  status: ('A' for Active; 'I' for Inactive)
REMARK    1  A    between atoms: C_6  and  C_7
REMARK    2  A    between atoms: C_7  and  S_8
REMARK    3  A    between atoms: S_8  and  C_9
REMARK    4  A    between atoms: N_20  and  C_21
REMARK    5  A    between atoms: C_21  and  C_22
REMARK    6  A    between atoms: C_22  and  C_23
REMARK    7  A    between atoms: C_23  and  C_24
REMARK                            x       y       z     vdW  Elec       q    Type
REMARK                         _______ _______ _______ _____ _____    ______ ____
ROOT
ATOM      1  C   UNL     1      35.631   3.277  15.054  0.00  0.00    +0.000 A 
ATOM      2  N   UNL     1      34.768   4.259  14.656  0.00  0.00    +0.000 NA
ATOM      3  C   UNL     1      35.462   5.340  14.274  0.00  0.00    +0.000 A 
ATOM      4  C   UNL     1      36.794   5.050  14.429  0.00  0.00    +0.000 A 
ATOM      5  C   UNL     1      37.742   5.998  14.106  0.00  0.00    +0.000 A 
ATOM      6  O   UNL     1      38.964   5.750  14.242  0.00  0.00    +0.000 OA
ATOM      7  N   UNL     1      37.367   7.202  13.642  0.00  0.00    +0.000 NA
ATOM      8  C   UNL     1      36.049   7.504  13.482  0.00  0.00    +0.000 A 
ATOM      9  O   UNL     1      35.712   8.646  13.042  0.00  0.00    +0.000 OA
ATOM     10  N   UNL     1      35.153   6.565  13.804  0.00  0.00    +0.000 N 
ATOM     11  C   UNL     1      33.743   6.865  13.642  0.00  0.00    +0.000 C 
ATOM     12  N   UNL     1      36.854   3.780  14.908  0.00  0.00    +0.000 N 
ENDROOT
BRANCH   1  13
ATOM     13  S   UNL     1      35.100   1.651  15.605  0.00  0.00    +0.000 S 
BRANCH  13  14
ATOM     14  C   UNL     1      35.823   1.276  17.248  0.00  0.00    +0.000 C 
BRANCH  14  20
ATOM     15  C   UNL     1      34.894  -3.207  15.330  0.00  0.00    +0.000 C 
ATOM     16  C   UNL     1      35.556  -2.356  16.356  0.00  0.00    +0.000 A 
ATOM     17  C   UNL     1      36.344  -2.924  17.347  0.00  0.00    +0.000 A 
ATOM     18  C   UNL     1      36.974  -2.178  18.312  0.00  0.00    +0.000 A 
ATOM     19  C   UNL     1      36.814  -0.792  18.296  0.00  0.00    +0.000 A 
ATOM     20  C   UNL     1      36.036  -0.193  17.325  0.00  0.00    +0.000 A 
ATOM     21  C   UNL     1      35.422  -0.983  16.374  0.00  0.00    +0.000 A 
ENDBRANCH  14  20
ENDBRANCH  13  14
ENDBRANCH   1  13
BRANCH  12  22
ATOM     22  C   UNL     1      38.099   3.129  15.155  0.00  0.00    +0.000 C 
BRANCH  22  23
ATOM     23  C   UNL     1      38.624   2.151  14.270  0.00  0.00    +0.000 C 
BRANCH  23  24
ATOM     24  C   UNL     1      38.037   1.031  13.644  0.00  0.00    +0.000 C 
BRANCH  24  25
ATOM     25  C   UNL     1      38.352  -0.338  14.028  0.00  0.00    +0.000 A 
ATOM     26  C   UNL     1      39.161  -0.532  15.147  0.00  0.00    +0.000 A 
ATOM     27  C   UNL     1      39.486  -1.787  15.594  0.00  0.00    +0.000 A 
ATOM     28  C   UNL     1      38.998  -2.877  14.913  0.00  0.00    +0.000 A 
ATOM     29  C   UNL     1      38.189  -2.749  13.793  0.00  0.00    +0.000 A 
ATOM     30  C   UNL     1      37.899  -1.457  13.398  0.00  0.00    +0.000 A 
ENDBRANCH  24  25
ENDBRANCH  23  24
ENDBRANCH  22  23
ENDBRANCH  12  22
TORSDOF 7
ENDMDL
MODEL 9
REMARK VINA RESULT:      -6.1      3.070      7.979
REMARK  Name = 
REMARK  7 active torsions:
REMARK  status: ('A' for Active; 'I' for Inactive)
REMARK    1  A    between atoms: C_6  and  C_7
REMARK    2  A    between atoms: C_7  and  S_8
REMARK    3  A    between atoms: S_8  and  C_9
REMARK    4  A    between atoms: N_20  and  C_21
REMARK    5  A    between atoms: C_21  and  C_22
REMARK    6  A    between atoms: C_22  and  C_23
REMARK    7  A    between atoms: C_23  and  C_24
REMARK                            x       y       z     vdW  Elec       q    Type
REMARK                         _______ _______ _______ _____ _____    ______ ____
ROOT
ATOM      1  C   UNL     1      37.946   1.879  14.449  0.00  0.00    +0.000 A 
ATOM      2  N   UNL     1      37.935   0.557  14.104  0.00  0.00    +0.000 NA
ATOM      3  C   UNL     1      37.031  -0.095  14.848  0.00  0.00    +0.000 A 
ATOM      4  C   UNL     1      36.450   0.822  15.687  0.00  0.00    +0.000 A 
ATOM      5  C   UNL     1      35.473   0.417  16.572  0.00  0.00    +0.000 A 
ATOM      6  O   UNL     1      34.932   1.243  17.346  0.00  0.00    +0.000 OA
ATOM      7  N   UNL     1      35.089  -0.870  16.617  0.00  0.00    +0.000 NA
ATOM      8  C   UNL     1      35.657  -1.792  15.790  0.00  0.00    +0.000 A 
ATOM      9  O   UNL     1      35.283  -3.003  15.845  0.00  0.00    +0.000 OA
ATOM     10  N   UNL     1      36.602  -1.369  14.943  0.00  0.00    +0.000 N 
ATOM     11  C   UNL     1      37.220  -2.334  14.054  0.00  0.00    +0.000 C 
ATOM     12  N   UNL     1      37.038   2.016  15.411  0.00  0.00    +0.000 N 
ENDROOT
BRANCH   1  13
ATOM     13  S   UNL     1      38.994   3.104  13.656  0.00  0.00    +0.000 S 
BRANCH  13  14
ATOM     14  C   UNL     1      38.021   4.072  12.439  0.00  0.00    +0.000 C 
BRANCH  14  20
ATOM     15  C   UNL     1      34.050   6.563  14.071  0.00  0.00    +0.000 C 
ATOM     16  C   UNL     1      35.525   6.451  13.914  0.00  0.00    +0.000 A 
ATOM     17  C   UNL     1      36.369   7.437  14.406  0.00  0.00    +0.000 A 
ATOM     18  C   UNL     1      37.734   7.373  14.284  0.00  0.00    +0.000 A 
ATOM     19  C   UNL     1      38.297   6.273  13.640  0.00  0.00    +0.000 A 
ATOM     20  C   UNL     1      37.489   5.272  13.137  0.00  0.00    +0.000 A 
ATOM     21  C   UNL     1      36.121   5.378  13.282  0.00  0.00    +0.000 A 
ENDBRANCH  14  20
ENDBRANCH  13  14
ENDBRANCH   1  13
BRANCH  12  22
ATOM     22  C   UNL     1      36.647   3.216  16.077  0.00  0.00    +0.000 C 
BRANCH  22  23
ATOM     23  C   UNL     1      37.488   3.857  17.025  0.00  0.00    +0.000 C 
BRANCH  23  24
ATOM     24  C   UNL     1      38.461   4.869  16.894  0.00  0.00    +0.000 C 
BRANCH  24  25
ATOM     25  C   UNL     1      38.774   5.802  17.967  0.00  0.00    +0.000 A 
ATOM     26  C   UNL     1      38.000   6.956  18.073  0.00  0.00    +0.000 A 
ATOM     27  C   UNL     1      38.209   7.876  19.068  0.00  0.00    +0.000 A 
ATOM     28  C   UNL     1      39.213   7.647  19.980  0.00  0.00    +0.000 A 
ATOM     29  C   UNL     1      40.016   6.518  19.927  0.00  0.00    +0.000 A 
ATOM     30  C   UNL     1      39.751   5.632  18.900  0.00  0.00    +0.000 A 
ENDBRANCH  24  25
ENDBRANCH  23  24
ENDBRANCH  22  23
ENDBRANCH  12  22
TORSDOF 7
ENDMDL
MODEL 10
REMARK VINA RESULT:      -6.1      3.002      6.746
REMARK  Name = 
REMARK  7 active torsions:
REMARK  status: ('A' for Active; 'I' for Inactive)
REMARK    1  A    between atoms: C_6  and  C_7
REMARK    2  A    between atoms: C_7  and  S_8
REMARK    3  A    between atoms: S_8  and  C_9
REMARK    4  A    between atoms: N_20  and  C_21
REMARK    5  A    between atoms: C_21  and  C_22
REMARK    6  A    between atoms: C_22  and  C_23
REMARK    7  A    between atoms: C_23  and  C_24
REMARK                            x       y       z     vdW  Elec       q    Type
REMARK                         _______ _______ _______ _____ _____    ______ ____
ROOT
ATOM      1  C   UNL     1      38.603   0.914  14.913  0.00  0.00    +0.000 A 
ATOM      2  N   UNL     1      38.079  -0.270  15.350  0.00  0.00    +0.000 NA
ATOM      3  C   UNL     1      36.886  -0.051  15.919  0.00  0.00    +0.000 A 
ATOM      4  C   UNL     1      36.638   1.297  15.849  0.00  0.00    +0.000 A 
ATOM      5  C   UNL     1      35.465   1.804  16.367  0.00  0.00    +0.000 A 
ATOM      6  O   UNL     1      35.223   3.034  16.311  0.00  0.00    +0.000 OA
ATOM      7  N   UNL     1      34.566   0.986  16.940  0.00  0.00    +0.000 NA
ATOM      8  C   UNL     1      34.797  -0.354  17.016  0.00  0.00    +0.000 A 
ATOM      9  O   UNL     1      33.938  -1.112  17.560  0.00  0.00    +0.000 OA
ATOM     10  N   UNL     1      35.944  -0.816  16.506  0.00  0.00    +0.000 N 
ATOM     11  C   UNL     1      36.212  -2.240  16.577  0.00  0.00    +0.000 C 
ATOM     12  N   UNL     1      37.713   1.850  15.228  0.00  0.00    +0.000 N 
ENDROOT
BRANCH   1  13
ATOM     13  S   UNL     1      40.177   1.047  14.057  0.00  0.00    +0.000 S 
BRANCH  13  14
ATOM     14  C   UNL     1      39.991   0.516  12.311  0.00  0.00    +0.000 C 
BRANCH  14  20
ATOM     15  C   UNL     1      40.803  -3.449   9.437  0.00  0.00    +0.000 C 
ATOM     16  C   UNL     1      40.858  -2.792  10.771  0.00  0.00    +0.000 A 
ATOM     17  C   UNL     1      41.350  -3.470  11.878  0.00  0.00    +0.000 A 
ATOM     18  C   UNL     1      41.418  -2.903  13.125  0.00  0.00    +0.000 A 
ATOM     19  C   UNL     1      40.976  -1.590  13.288  0.00  0.00    +0.000 A 
ATOM     20  C   UNL     1      40.479  -0.884  12.209  0.00  0.00    +0.000 A 
ATOM     21  C   UNL     1      40.429  -1.496  10.973  0.00  0.00    +0.000 A 
ENDBRANCH  14  20
ENDBRANCH  13  14
ENDBRANCH   1  13
BRANCH  12  22
ATOM     22  C   UNL     1      37.780   3.247  14.948  0.00  0.00    +0.000 C 
BRANCH  22  23
ATOM     23  C   UNL     1      38.569   4.132  15.730  0.00  0.00    +0.000 C 
BRANCH  23  24
ATOM     24  C   UNL     1      38.307   4.818  16.934  0.00  0.00    +0.000 C 
BRANCH  24  25
ATOM     25  C   UNL     1      39.354   5.452  17.722  0.00  0.00    +0.000 A 
ATOM     26  C   UNL     1      40.516   5.849  17.061  0.00  0.00    +0.000 A 
ATOM     27  C   UNL     1      41.542   6.477  17.719  0.00  0.00    +0.000 A 
ATOM     28  C   UNL     1      41.414   6.715  19.068  0.00  0.00    +0.000 A 
ATOM     29  C   UNL     1      40.284   6.343  19.780  0.00  0.00    +0.000 A 
ATOM     30  C   UNL     1      39.288   5.717  19.056  0.00  0.00    +0.000 A 
ENDBRANCH  24  25
ENDBRANCH  23  24
ENDBRANCH  22  23
ENDBRANCH  12  22
TORSDOF 7
ENDMDL
