MODEL 1
REMARK VINA RESULT:      -6.2      0.000      0.000
REMARK  Name = 
REMARK  4 active torsions:
REMARK  status: ('A' for Active; 'I' for Inactive)
REMARK    1  A    between atoms: C_2  and  C_4
REMARK    2  A    between atoms: C_4  and  C_5
REMARK    3  A    between atoms: N_9  and  C_10
REMARK    4  A    between atoms: C_10  and  C_11
REMARK                            x       y       z     vdW  Elec       q    Type
REMARK                         _______ _______ _______ _____ _____    ______ ____
ROOT
ATOM      1  C   UNL     1      29.331  26.728  21.828  0.00  0.00    +0.000 C 
ATOM      2  N   UNL     1      27.934  27.020  22.484  0.00  0.00    +0.000 NA
ATOM      3  C   UNL     1      27.541  25.830  23.089  0.00  0.00    +0.000 C 
ATOM      4  O   UNL     1      26.645  25.757  23.988  0.00  0.00    +0.000 OA
ATOM      5  N   UNL     1      28.243  24.720  22.595  0.00  0.00    +0.000 N 
ATOM      6  C   UNL     1      29.145  25.185  21.618  0.00  0.00    +0.000 C 
ATOM      7  O   UNL     1      29.708  24.521  20.742  0.00  0.00    +0.000 OA
ENDROOT
BRANCH   1   8
ATOM      8  C   UNL     1      28.925  27.358  20.396  0.00  0.00    +0.000 C 
BRANCH   8  10
ATOM      9  C   UNL     1      30.246  29.334  19.671  0.00  0.00    +0.000 C 
ATOM     10  C   UNL     1      29.875  27.918  19.579  0.00  0.00    +0.000 C 
ATOM     11  C   UNL     1      30.387  27.211  18.370  0.00  0.00    +0.000 C 
ENDBRANCH   8  10
ENDBRANCH   1   8
BRANCH   5  12
ATOM     12  C   UNL     1      28.065  23.325  23.047  0.00  0.00    +0.000 C 
BRANCH  12  13
ATOM     13  C   UNL     1      28.893  23.039  24.219  0.00  0.00    +0.000 A 
ATOM     14  C   UNL     1      30.267  23.028  24.229  0.00  0.00    +0.000 A 
ATOM     15  C   UNL     1      30.993  22.751  25.352  0.00  0.00    +0.000 A 
ATOM     16  C   UNL     1      30.337  22.465  26.549  0.00  0.00    +0.000 A 
ATOM     17  C   UNL     1      28.965  22.468  26.571  0.00  0.00    +0.000 A 
ATOM     18  C   UNL     1      28.263  22.749  25.432  0.00  0.00    +0.000 A 
ATOM     19 CL   UNL     1      26.525  22.743  25.500  0.00  0.00    +0.000 Cl
ENDBRANCH  12  13
ENDBRANCH   5  12
TORSDOF 4
ENDMDL
MODEL 2
REMARK VINA RESULT:      -5.6      3.568      5.139
REMARK  Name = 
REMARK  4 active torsions:
REMARK  status: ('A' for Active; 'I' for Inactive)
REMARK    1  A    between atoms: C_2  and  C_4
REMARK    2  A    between atoms: C_4  and  C_5
REMARK    3  A    between atoms: N_9  and  C_10
REMARK    4  A    between atoms: C_10  and  C_11
REMARK                            x       y       z     vdW  Elec       q    Type
REMARK                         _______ _______ _______ _____ _____    ______ ____
ROOT
ATOM      1  C   UNL     1      30.346  24.484  24.533  0.00  0.00    +0.000 C 
ATOM      2  N   UNL     1      29.917  23.790  23.191  0.00  0.00    +0.000 NA
ATOM      3  C   UNL     1      28.641  23.282  23.415  0.00  0.00    +0.000 C 
ATOM      4  O   UNL     1      27.838  22.952  22.485  0.00  0.00    +0.000 OA
ATOM      5  N   UNL     1      28.340  23.172  24.781  0.00  0.00    +0.000 N 
ATOM      6  C   UNL     1      29.461  23.626  25.503  0.00  0.00    +0.000 C 
ATOM      7  O   UNL     1      29.726  23.407  26.690  0.00  0.00    +0.000 OA
ENDROOT
BRANCH   1   8
ATOM      8  C   UNL     1      31.787  23.754  24.590  0.00  0.00    +0.000 C 
BRANCH   8  10
ATOM      9  C   UNL     1      32.724  25.327  26.271  0.00  0.00    +0.000 C 
ATOM     10  C   UNL     1      32.868  24.377  25.162  0.00  0.00    +0.000 C 
ATOM     11  C   UNL     1      34.216  24.354  24.526  0.00  0.00    +0.000 C 
ENDBRANCH   8  10
ENDBRANCH   1   8
BRANCH   5  12
ATOM     12  C   UNL     1      27.062  22.683  25.339  0.00  0.00    +0.000 C 
BRANCH  12  13
ATOM     13  C   UNL     1      26.173  23.794  25.678  0.00  0.00    +0.000 A 
ATOM     14  C   UNL     1      25.570  24.626  24.766  0.00  0.00    +0.000 A 
ATOM     15  C   UNL     1      24.749  25.653  25.136  0.00  0.00    +0.000 A 
ATOM     16  C   UNL     1      24.498  25.887  26.487  0.00  0.00    +0.000 A 
ATOM     17  C   UNL     1      25.085  25.073  27.422  0.00  0.00    +0.000 A 
ATOM     18  C   UNL     1      25.902  24.052  27.024  0.00  0.00    +0.000 A 
ATOM     19 CL   UNL     1      26.629  23.041  28.239  0.00  0.00    +0.000 Cl
ENDBRANCH  12  13
ENDBRANCH   5  12
TORSDOF 4
ENDMDL
MODEL 3
REMARK VINA RESULT:      -5.6      2.601      3.543
REMARK  Name = 
REMARK  4 active torsions:
REMARK  status: ('A' for Active; 'I' for Inactive)
REMARK    1  A    between atoms: C_2  and  C_4
REMARK    2  A    between atoms: C_4  and  C_5
REMARK    3  A    between atoms: N_9  and  C_10
REMARK    4  A    between atoms: C_10  and  C_11
REMARK                            x       y       z     vdW  Elec       q    Type
REMARK                         _______ _______ _______ _____ _____    ______ ____
ROOT
ATOM      1  C   UNL     1      27.526  25.554  22.578  0.00  0.00    +0.000 C 
ATOM      2  N   UNL     1      26.770  24.470  21.729  0.00  0.00    +0.000 NA
ATOM      3  C   UNL     1      26.299  23.531  22.642  0.00  0.00    +0.000 C 
ATOM      4  O   UNL     1      25.372  22.699  22.383  0.00  0.00    +0.000 OA
ATOM      5  N   UNL     1      26.959  23.604  23.877  0.00  0.00    +0.000 N 
ATOM      6  C   UNL     1      27.915  24.636  23.789  0.00  0.00    +0.000 C 
ATOM      7  O   UNL     1      28.893  24.814  24.522  0.00  0.00    +0.000 OA
ENDROOT
BRANCH   1   8
ATOM      8  C   UNL     1      28.847  25.536  21.648  0.00  0.00    +0.000 C 
BRANCH   8  10
ATOM      9  C   UNL     1      29.156  28.000  21.750  0.00  0.00    +0.000 C 
ATOM     10  C   UNL     1      29.339  26.696  21.103  0.00  0.00    +0.000 C 
ATOM     11  C   UNL     1      29.838  26.754  19.699  0.00  0.00    +0.000 C 
ENDBRANCH   8  10
ENDBRANCH   1   8
BRANCH   5  12
ATOM     12  C   UNL     1      26.675  22.755  25.051  0.00  0.00    +0.000 C 
BRANCH  12  13
ATOM     13  C   UNL     1      26.182  23.552  26.174  0.00  0.00    +0.000 A 
ATOM     14  C   UNL     1      25.141  24.447  26.108  0.00  0.00    +0.000 A 
ATOM     15  C   UNL     1      24.721  25.170  27.188  0.00  0.00    +0.000 A 
ATOM     16  C   UNL     1      25.358  25.012  28.418  0.00  0.00    +0.000 A 
ATOM     17  C   UNL     1      26.401  24.126  28.516  0.00  0.00    +0.000 A 
ATOM     18  C   UNL     1      26.800  23.414  27.419  0.00  0.00    +0.000 A 
ATOM     19 CL   UNL     1      28.126  22.301  27.583  0.00  0.00    +0.000 Cl
ENDBRANCH  12  13
ENDBRANCH   5  12
TORSDOF 4
ENDMDL
MODEL 4
REMARK VINA RESULT:      -5.5      1.531      2.380
REMARK  Name = 
REMARK  4 active torsions:
REMARK  status: ('A' for Active; 'I' for Inactive)
REMARK    1  A    between atoms: C_2  and  C_4
REMARK    2  A    between atoms: C_4  and  C_5
REMARK    3  A    between atoms: N_9  and  C_10
REMARK    4  A    between atoms: C_10  and  C_11
REMARK                            x       y       z     vdW  Elec       q    Type
REMARK                         _______ _______ _______ _____ _____    ______ ____
ROOT
ATOM      1  C   UNL     1      27.558  27.019  21.989  0.00  0.00    +0.000 C 
ATOM      2  N   UNL     1      28.893  26.559  21.301  0.00  0.00    +0.000 NA
ATOM      3  C   UNL     1      28.971  25.184  21.502  0.00  0.00    +0.000 C 
ATOM      4  O   UNL     1      29.719  24.412  20.821  0.00  0.00    +0.000 OA
ATOM      5  N   UNL     1      28.135  24.744  22.539  0.00  0.00    +0.000 N 
ATOM      6  C   UNL     1      27.468  25.873  23.056  0.00  0.00    +0.000 C 
ATOM      7  O   UNL     1      26.900  25.971  24.149  0.00  0.00    +0.000 OA
ENDROOT
BRANCH   1   8
ATOM      8  C   UNL     1      28.253  28.235  22.797  0.00  0.00    +0.000 C 
BRANCH   8  10
ATOM      9  C   UNL     1      29.878  30.100  22.559  0.00  0.00    +0.000 C 
ATOM     10  C   UNL     1      28.682  29.361  22.139  0.00  0.00    +0.000 C 
ATOM     11  C   UNL     1      27.823  30.065  21.145  0.00  0.00    +0.000 C 
ENDBRANCH   8  10
ENDBRANCH   1   8
BRANCH   5  12
ATOM     12  C   UNL     1      27.983  23.343  22.981  0.00  0.00    +0.000 C 
BRANCH  12  13
ATOM     13  C   UNL     1      28.827  23.060  24.141  0.00  0.00    +0.000 A 
ATOM     14  C   UNL     1      30.201  23.042  24.131  0.00  0.00    +0.000 A 
ATOM     15  C   UNL     1      30.943  22.768  25.244  0.00  0.00    +0.000 A 
ATOM     16  C   UNL     1      30.304  22.492  26.452  0.00  0.00    +0.000 A 
ATOM     17  C   UNL     1      28.933  22.503  26.495  0.00  0.00    +0.000 A 
ATOM     18  C   UNL     1      28.214  22.781  25.366  0.00  0.00    +0.000 A 
ATOM     19 CL   UNL     1      26.478  22.784  25.460  0.00  0.00    +0.000 Cl
ENDBRANCH  12  13
ENDBRANCH   5  12
TORSDOF 4
ENDMDL
MODEL 5
REMARK VINA RESULT:      -5.2     34.723     36.819
REMARK  Name = 
REMARK  4 active torsions:
REMARK  status: ('A' for Active; 'I' for Inactive)
REMARK    1  A    between atoms: C_2  and  C_4
REMARK    2  A    between atoms: C_4  and  C_5
REMARK    3  A    between atoms: N_9  and  C_10
REMARK    4  A    between atoms: C_10  and  C_11
REMARK                            x       y       z     vdW  Elec       q    Type
REMARK                         _______ _______ _______ _____ _____    ______ ____
ROOT
ATOM      1  C   UNL     1      16.948  -7.540  26.988  0.00  0.00    +0.000 C 
ATOM      2  N   UNL     1      16.559  -7.345  25.479  0.00  0.00    +0.000 NA
ATOM      3  C   UNL     1      15.615  -8.328  25.199  0.00  0.00    +0.000 C 
ATOM      4  O   UNL     1      14.828  -8.288  24.200  0.00  0.00    +0.000 OA
ATOM      5  N   UNL     1      15.628  -9.369  26.140  0.00  0.00    +0.000 N 
ATOM      6  C   UNL     1      16.623  -9.071  27.091  0.00  0.00    +0.000 C 
ATOM      7  O   UNL     1      17.161  -9.853  27.882  0.00  0.00    +0.000 OA
ENDROOT
BRANCH   1   8
ATOM      8  C   UNL     1      18.539  -7.508  26.706  0.00  0.00    +0.000 C 
BRANCH   8  10
ATOM      9  C   UNL     1      20.418  -6.376  25.537  0.00  0.00    +0.000 C 
ATOM     10  C   UNL     1      19.155  -6.356  26.283  0.00  0.00    +0.000 C 
ATOM     11  C   UNL     1      18.744  -5.015  26.788  0.00  0.00    +0.000 C 
ENDBRANCH   8  10
ENDBRANCH   1   8
BRANCH   5  12
ATOM     12  C   UNL     1      14.736 -10.547  26.126  0.00  0.00    +0.000 C 
BRANCH  12  13
ATOM     13  C   UNL     1      13.565 -10.333  26.977  0.00  0.00    +0.000 A 
ATOM     14  C   UNL     1      12.558  -9.435  26.720  0.00  0.00    +0.000 A 
ATOM     15  C   UNL     1      11.486  -9.272  27.551  0.00  0.00    +0.000 A 
ATOM     16  C   UNL     1      11.387 -10.037  28.712  0.00  0.00    +0.000 A 
ATOM     17  C   UNL     1      12.378 -10.942  28.997  0.00  0.00    +0.000 A 
ATOM     18  C   UNL     1      13.439 -11.085  28.148  0.00  0.00    +0.000 A 
ATOM     19 CL   UNL     1      14.675 -12.244  28.543  0.00  0.00    +0.000 Cl
ENDBRANCH  12  13
ENDBRANCH   5  12
TORSDOF 4
ENDMDL
MODEL 6
REMARK VINA RESULT:      -5.2      3.765      5.087
REMARK  Name = 
REMARK  4 active torsions:
REMARK  status: ('A' for Active; 'I' for Inactive)
REMARK    1  A    between atoms: C_2  and  C_4
REMARK    2  A    between atoms: C_4  and  C_5
REMARK    3  A    between atoms: N_9  and  C_10
REMARK    4  A    between atoms: C_10  and  C_11
REMARK                            x       y       z     vdW  Elec       q    Type
REMARK                         _______ _______ _______ _____ _____    ______ ____
ROOT
ATOM      1  C   UNL     1      31.044  24.475  24.978  0.00  0.00    +0.000 C 
ATOM      2  N   UNL     1      30.473  23.849  23.655  0.00  0.00    +0.000 NA
ATOM      3  C   UNL     1      29.304  23.189  24.020  0.00  0.00    +0.000 C 
ATOM      4  O   UNL     1      28.397  22.850  23.194  0.00  0.00    +0.000 OA
ATOM      5  N   UNL     1      29.236  22.938  25.398  0.00  0.00    +0.000 N 
ATOM      6  C   UNL     1      30.410  23.452  25.983  0.00  0.00    +0.000 C 
ATOM      7  O   UNL     1      30.880  23.169  27.090  0.00  0.00    +0.000 OA
ENDROOT
BRANCH   1   8
ATOM      8  C   UNL     1      32.538  23.904  24.747  0.00  0.00    +0.000 C 
BRANCH   8  10
ATOM      9  C   UNL     1      34.961  24.285  24.346  0.00  0.00    +0.000 C 
ATOM     10  C   UNL     1      33.614  24.754  24.688  0.00  0.00    +0.000 C 
ATOM     11  C   UNL     1      33.551  26.140  25.236  0.00  0.00    +0.000 C 
ENDBRANCH   8  10
ENDBRANCH   1   8
BRANCH   5  12
ATOM     12  C   UNL     1      28.116  22.270  26.093  0.00  0.00    +0.000 C 
BRANCH  12  13
ATOM     13  C   UNL     1      27.290  23.238  26.816  0.00  0.00    +0.000 A 
ATOM     14  C   UNL     1      27.619  23.807  28.022  0.00  0.00    +0.000 A 
ATOM     15  C   UNL     1      26.809  24.704  28.659  0.00  0.00    +0.000 A 
ATOM     16  C   UNL     1      25.595  25.073  28.081  0.00  0.00    +0.000 A 
ATOM     17  C   UNL     1      25.239  24.522  26.876  0.00  0.00    +0.000 A 
ATOM     18  C   UNL     1      26.069  23.627  26.261  0.00  0.00    +0.000 A 
ATOM     19 CL   UNL     1      25.583  22.949  24.734  0.00  0.00    +0.000 Cl
ENDBRANCH  12  13
ENDBRANCH   5  12
TORSDOF 4
ENDMDL
MODEL 7
REMARK VINA RESULT:      -5.2     25.126     27.261
REMARK  Name = 
REMARK  4 active torsions:
REMARK  status: ('A' for Active; 'I' for Inactive)
REMARK    1  A    between atoms: C_2  and  C_4
REMARK    2  A    between atoms: C_4  and  C_5
REMARK    3  A    between atoms: N_9  and  C_10
REMARK    4  A    between atoms: C_10  and  C_11
REMARK                            x       y       z     vdW  Elec       q    Type
REMARK                         _______ _______ _______ _____ _____    ______ ____
ROOT
ATOM      1  C   UNL     1      34.077   0.310  34.489  0.00  0.00    +0.000 C 
ATOM      2  N   UNL     1      33.566   1.288  33.371  0.00  0.00    +0.000 NA
ATOM      3  C   UNL     1      33.655   2.567  33.913  0.00  0.00    +0.000 C 
ATOM      4  O   UNL     1      33.651   3.631  33.217  0.00  0.00    +0.000 OA
ATOM      5  N   UNL     1      33.748   2.551  35.313  0.00  0.00    +0.000 N 
ATOM      6  C   UNL     1      33.720   1.204  35.726  0.00  0.00    +0.000 C 
ATOM      7  O   UNL     1      33.467   0.774  36.857  0.00  0.00    +0.000 OA
ENDROOT
BRANCH   1   8
ATOM      8  C   UNL     1      32.811  -0.687  34.363  0.00  0.00    +0.000 C 
BRANCH   8  10
ATOM      9  C   UNL     1      32.886  -2.659  35.875  0.00  0.00    +0.000 C 
ATOM     10  C   UNL     1      32.961  -2.039  34.547  0.00  0.00    +0.000 C 
ATOM     11  C   UNL     1      33.485  -2.925  33.468  0.00  0.00    +0.000 C 
ENDBRANCH   8  10
ENDBRANCH   1   8
BRANCH   5  12
ATOM     12  C   UNL     1      33.871   3.743  36.176  0.00  0.00    +0.000 C 
BRANCH  12  13
ATOM     13  C   UNL     1      35.251   3.932  36.624  0.00  0.00    +0.000 A 
ATOM     14  C   UNL     1      35.878   3.175  37.584  0.00  0.00    +0.000 A 
ATOM     15  C   UNL     1      37.170   3.396  37.968  0.00  0.00    +0.000 A 
ATOM     16  C   UNL     1      37.903   4.424  37.377  0.00  0.00    +0.000 A 
ATOM     17  C   UNL     1      37.304   5.197  36.414  0.00  0.00    +0.000 A 
ATOM     18  C   UNL     1      36.010   4.954  36.048  0.00  0.00    +0.000 A 
ATOM     19 CL   UNL     1      35.285   5.956  34.825  0.00  0.00    +0.000 Cl
ENDBRANCH  12  13
ENDBRANCH   5  12
TORSDOF 4
ENDMDL
MODEL 8
REMARK VINA RESULT:      -5.1      1.728      2.351
REMARK  Name = 
REMARK  4 active torsions:
REMARK  status: ('A' for Active; 'I' for Inactive)
REMARK    1  A    between atoms: C_2  and  C_4
REMARK    2  A    between atoms: C_4  and  C_5
REMARK    3  A    between atoms: N_9  and  C_10
REMARK    4  A    between atoms: C_10  and  C_11
REMARK                            x       y       z     vdW  Elec       q    Type
REMARK                         _______ _______ _______ _____ _____    ______ ____
ROOT
ATOM      1  C   UNL     1      28.409  25.493  22.914  0.00  0.00    +0.000 C 
ATOM      2  N   UNL     1      27.340  26.259  23.773  0.00  0.00    +0.000 NA
ATOM      3  C   UNL     1      26.986  25.393  24.803  0.00  0.00    +0.000 C 
ATOM      4  O   UNL     1      26.410  25.767  25.874  0.00  0.00    +0.000 OA
ATOM      5  N   UNL     1      27.334  24.062  24.528  0.00  0.00    +0.000 N 
ATOM      6  C   UNL     1      27.947  24.035  23.260  0.00  0.00    +0.000 C 
ATOM      7  O   UNL     1      28.110  23.052  22.529  0.00  0.00    +0.000 OA
ENDROOT
BRANCH   1   8
ATOM      8  C   UNL     1      27.675  25.799  21.507  0.00  0.00    +0.000 C 
BRANCH   8  10
ATOM      9  C   UNL     1      29.398  27.150  20.331  0.00  0.00    +0.000 C 
ATOM     10  C   UNL     1      28.018  26.899  20.760  0.00  0.00    +0.000 C 
ATOM     11  C   UNL     1      27.083  28.046  20.576  0.00  0.00    +0.000 C 
ENDBRANCH   8  10
ENDBRANCH   1   8
BRANCH   5  12
ATOM     12  C   UNL     1      27.106  22.914  25.430  0.00  0.00    +0.000 C 
BRANCH  12  13
ATOM     13  C   UNL     1      28.217  22.748  26.367  0.00  0.00    +0.000 A 
ATOM     14  C   UNL     1      29.502  22.413  26.013  0.00  0.00    +0.000 A 
ATOM     15  C   UNL     1      30.504  22.267  26.930  0.00  0.00    +0.000 A 
ATOM     16  C   UNL     1      30.238  22.462  28.284  0.00  0.00    +0.000 A 
ATOM     17  C   UNL     1      28.965  22.798  28.669  0.00  0.00    +0.000 A 
ATOM     18  C   UNL     1      27.981  22.938  27.730  0.00  0.00    +0.000 A 
ATOM     19 CL   UNL     1      26.379  23.365  28.257  0.00  0.00    +0.000 Cl
ENDBRANCH  12  13
ENDBRANCH   5  12
TORSDOF 4
ENDMDL
MODEL 9
REMARK VINA RESULT:      -5.1      5.416      6.607
REMARK  Name = 
REMARK  4 active torsions:
REMARK  status: ('A' for Active; 'I' for Inactive)
REMARK    1  A    between atoms: C_2  and  C_4
REMARK    2  A    between atoms: C_4  and  C_5
REMARK    3  A    between atoms: N_9  and  C_10
REMARK    4  A    between atoms: C_10  and  C_11
REMARK                            x       y       z     vdW  Elec       q    Type
REMARK                         _______ _______ _______ _____ _____    ______ ____
ROOT
ATOM      1  C   UNL     1      25.457  25.645  27.782  0.00  0.00    +0.000 C 
ATOM      2  N   UNL     1      25.029  25.564  29.291  0.00  0.00    +0.000 NA
ATOM      3  C   UNL     1      25.715  24.478  29.825  0.00  0.00    +0.000 C 
ATOM      4  O   UNL     1      25.890  24.296  31.072  0.00  0.00    +0.000 OA
ATOM      5  N   UNL     1      26.193  23.606  28.835  0.00  0.00    +0.000 N 
ATOM      6  C   UNL     1      25.810  24.130  27.585  0.00  0.00    +0.000 C 
ATOM      7  O   UNL     1      25.755  23.529  26.506  0.00  0.00    +0.000 OA
ENDROOT
BRANCH   1   8
ATOM      8  C   UNL     1      23.941  25.756  27.233  0.00  0.00    +0.000 C 
BRANCH   8  10
ATOM      9  C   UNL     1      22.292  26.624  25.588  0.00  0.00    +0.000 C 
ATOM     10  C   UNL     1      23.666  26.410  26.057  0.00  0.00    +0.000 C 
ATOM     11  C   UNL     1      24.727  26.693  25.049  0.00  0.00    +0.000 C 
ENDBRANCH   8  10
ENDBRANCH   1   8
BRANCH   5  12
ATOM     12  C   UNL     1      26.971  22.375  29.082  0.00  0.00    +0.000 C 
BRANCH  12  13
ATOM     13  C   UNL     1      28.314  22.475  28.510  0.00  0.00    +0.000 A 
ATOM     14  C   UNL     1      28.643  22.163  27.213  0.00  0.00    +0.000 A 
ATOM     15  C   UNL     1      29.916  22.271  26.729  0.00  0.00    +0.000 A 
ATOM     16  C   UNL     1      30.940  22.714  27.565  0.00  0.00    +0.000 A 
ATOM     17  C   UNL     1      30.643  23.033  28.866  0.00  0.00    +0.000 A 
ATOM     18  C   UNL     1      29.360  22.916  29.324  0.00  0.00    +0.000 A 
ATOM     19 CL   UNL     1      29.023  23.331  30.979  0.00  0.00    +0.000 Cl
ENDBRANCH  12  13
ENDBRANCH   5  12
TORSDOF 4
ENDMDL
MODEL 10
REMARK VINA RESULT:      -5.1     32.865     34.918
REMARK  Name = 
REMARK  4 active torsions:
REMARK  status: ('A' for Active; 'I' for Inactive)
REMARK    1  A    between atoms: C_2  and  C_4
REMARK    2  A    between atoms: C_4  and  C_5
REMARK    3  A    between atoms: N_9  and  C_10
REMARK    4  A    between atoms: C_10  and  C_11
REMARK                            x       y       z     vdW  Elec       q    Type
REMARK                         _______ _______ _______ _____ _____    ______ ____
ROOT
ATOM      1  C   UNL     1      20.979  -7.477  25.703  0.00  0.00    +0.000 C 
ATOM      2  N   UNL     1      20.378  -6.026  25.668  0.00  0.00    +0.000 NA
ATOM      3  C   UNL     1      19.030  -6.163  25.988  0.00  0.00    +0.000 C 
ATOM      4  O   UNL     1      18.297  -5.202  26.383  0.00  0.00    +0.000 OA
ATOM      5  N   UNL     1      18.572  -7.479  25.826  0.00  0.00    +0.000 N 
ATOM      6  C   UNL     1      19.658  -8.257  25.378  0.00  0.00    +0.000 C 
ATOM      7  O   UNL     1      19.610  -9.362  24.827  0.00  0.00    +0.000 OA
ENDROOT
BRANCH   1   8
ATOM      8  C   UNL     1      21.703  -7.341  24.265  0.00  0.00    +0.000 C 
BRANCH   8  10
ATOM      9  C   UNL     1      23.736  -8.759  24.079  0.00  0.00    +0.000 C 
ATOM     10  C   UNL     1      23.066  -7.456  24.151  0.00  0.00    +0.000 C 
ATOM     11  C   UNL     1      23.973  -6.294  24.374  0.00  0.00    +0.000 C 
ENDBRANCH   8  10
ENDBRANCH   1   8
BRANCH   5  12
ATOM     12  C   UNL     1      17.197  -7.947  26.100  0.00  0.00    +0.000 C 
BRANCH  12  13
ATOM     13  C   UNL     1      17.169  -8.870  27.234  0.00  0.00    +0.000 A 
ATOM     14  C   UNL     1      17.887  -8.714  28.395  0.00  0.00    +0.000 A 
ATOM     15  C   UNL     1      17.827  -9.610  29.425  0.00  0.00    +0.000 A 
ATOM     16  C   UNL     1      17.011 -10.735  29.318  0.00  0.00    +0.000 A 
ATOM     17  C   UNL     1      16.281 -10.918  28.171  0.00  0.00    +0.000 A 
ATOM     18  C   UNL     1      16.360 -10.006  27.156  0.00  0.00    +0.000 A 
ATOM     19 CL   UNL     1      15.419 -10.274  25.717  0.00  0.00    +0.000 Cl
ENDBRANCH  12  13
ENDBRANCH   5  12
TORSDOF 4
ENDMDL
