REMARK  Name = 
REMARK  7 active torsions:
REMARK  status: ('A' for Active; 'I' for Inactive)
REMARK    1  A    between atoms: O_2  and  C_3
REMARK    2  A    between atoms: C_7  and  C_8
REMARK    3  A    between atoms: C_8  and  N_9
REMARK    4  A    between atoms: C_10  and  C_12
REMARK    5  A    between atoms: C_14  and  S_15
REMARK    6  A    between atoms: S_15  and  C_16
REMARK    7  A    between atoms: C_19  and  C_20
REMARK                            x       y       z     vdW  Elec       q    Type
REMARK                         _______ _______ _______ _____ _____    ______ ____
ROOT
ATOM      1  C   UNL     1       0.537   0.079  -0.168  0.00  0.00    +0.000 A 
ATOM      2  C   UNL     1      -0.482   1.018  -0.241  0.00  0.00    +0.000 A 
ATOM      3  C   UNL     1      -1.271   1.166  -1.361  0.00  0.00    +0.000 A 
ATOM      4  N   UNL     1      -1.045   0.361  -2.441  0.00  0.00    +0.000 NA
ATOM      5  C   UNL     1      -0.070  -0.560  -2.414  0.00  0.00    +0.000 A 
ATOM      6  C   UNL     1       0.168  -1.378  -3.495  0.00  0.00    +0.000 A 
ATOM      7  C   UNL     1       1.167  -2.331  -3.482  0.00  0.00    +0.000 A 
ATOM      8  C   UNL     1       1.933  -2.441  -2.334  0.00  0.00    +0.000 A 
ATOM      9  C   UNL     1       1.728  -1.643  -1.228  0.00  0.00    +0.000 A 
ATOM     10  C   UNL     1       0.717  -0.707  -1.294  0.00  0.00    +0.000 A 
ENDROOT
BRANCH   1  12
ATOM     11  N   UNL     1       2.369  -1.094   0.995  0.00  0.00    +0.000 NA
ATOM     12  C   UNL     1       1.367  -0.074   1.018  0.00  0.00    +0.000 C 
ATOM     13  O   UNL     1       1.238   0.629   2.020  0.00  0.00    +0.000 OA
BRANCH  11  14
ATOM     14  C   UNL     1       3.259  -1.359   2.086  0.00  0.00    +0.000 C 
BRANCH  14  19
ATOM     15  C   UNL     1       6.587   0.273   1.735  0.00  0.00    +0.000 A 
ATOM     16  C   UNL     1       6.456   1.461   2.459  0.00  0.00    +0.000 A 
ATOM     17  C   UNL     1       5.226   1.662   3.045  0.00  0.00    +0.000 A 
ATOM     18  C   UNL     1       4.202   0.767   2.930  0.00  0.00    +0.000 A 
ATOM     19  C   UNL     1       4.359  -0.388   2.214  0.00  0.00    +0.000 A 
ATOM     20  C   UNL     1       5.563  -0.638   1.610  0.00  0.00    +0.000 A 
BRANCH  15  22
ATOM     21  C   UNL     1       8.014  -1.119   0.398  0.00  0.00    +0.000 C 
ATOM     22  O   UNL     1       7.832   0.062   1.138  0.00  0.00    +0.000 OA
ENDBRANCH  15  22
ENDBRANCH  14  19
ENDBRANCH  11  14
ENDBRANCH   1  12
BRANCH   3  23
ATOM     23  S   UNL     1      -2.592   2.359  -1.489  0.00  0.00    +0.000 S 
BRANCH  23  24
ATOM     24  C   UNL     1      -4.133   1.646  -0.928  0.00  0.00    +0.000 A 
ATOM     25  C   UNL     1      -4.554   1.721   0.380  0.00  0.00    +0.000 A 
ATOM     26  C   UNL     1      -5.742   1.168   0.812  0.00  0.00    +0.000 A 
ATOM     27  C   UNL     1      -6.574   0.503  -0.063  0.00  0.00    +0.000 A 
ATOM     28  C   UNL     1      -6.157   0.425  -1.374  0.00  0.00    +0.000 A 
ATOM     29  C   UNL     1      -4.975   0.973  -1.819  0.00  0.00    +0.000 A 
BRANCH  27  30
ATOM     30  C   UNL     1      -7.863  -0.108   0.358  0.00  0.00    +0.000 C 
ATOM     31  C   UNL     1      -8.949   0.152  -0.679  0.00  0.00    +0.000 C 
ATOM     32  C   UNL     1      -8.314   0.645   1.613  0.00  0.00    +0.000 C 
ENDBRANCH  27  30
ENDBRANCH  23  24
ENDBRANCH   3  23
TORSDOF 7
