REMARK  Name = 
REMARK  9 active torsions:
REMARK  status: ('A' for Active; 'I' for Inactive)
REMARK    1  A    between atoms: C_2  and  O_3
REMARK    2  A    between atoms: O_3  and  C_4
REMARK    3  A    between atoms: C_7  and  N_8
REMARK    4  A    between atoms: C_11  and  N_12
REMARK    5  A    between atoms: N_12  and  C_13
REMARK    6  A    between atoms: C_18  and  O_19
REMARK    7  A    between atoms: O_19  and  C_20
REMARK    8  A    between atoms: C_22  and  S_23
REMARK    9  A    between atoms: S_23  and  C_24
REMARK                            x       y       z     vdW  Elec       q    Type
REMARK                         _______ _______ _______ _____ _____    ______ ____
ROOT
ATOM      1  N   UNL     1       1.525  -0.315   0.059  0.00  0.00    +0.000 N 
ATOM      2  C   UNL     1       0.620  -1.364  -0.163  0.00  0.00    +0.000 C 
ATOM      3  O   UNL     1       0.990  -2.532  -0.438  0.00  0.00    +0.000 OA
ATOM      4  C   UNL     1      -0.744  -0.886  -0.026  0.00  0.00    +0.000 C 
ATOM      5  C   UNL     1      -0.700   0.428   0.273  0.00  0.00    +0.000 C 
ATOM      6  C   UNL     1       0.692   0.843   0.339  0.00  0.00    +0.000 C 
ATOM      7  O   UNL     1       1.182   1.973   0.589  0.00  0.00    +0.000 OA
ENDROOT
BRANCH   1  11
ATOM      8  C   UNL     1       5.713  -0.542  -0.090  0.00  0.00    +0.000 A 
ATOM      9  C   UNL     1       4.951  -1.530  -0.659  0.00  0.00    +0.000 A 
ATOM     10  C   UNL     1       3.575  -1.426  -0.596  0.00  0.00    +0.000 A 
ATOM     11  C   UNL     1       2.945  -0.361   0.020  0.00  0.00    +0.000 A 
ATOM     12  C   UNL     1       3.748   0.602   0.575  0.00  0.00    +0.000 A 
ATOM     13  C   UNL     1       5.127   0.527   0.527  0.00  0.00    +0.000 A 
BRANCH   8  14
ATOM     14  O   UNL     1       7.111  -0.681  -0.171  0.00  0.00    +0.000 OA
BRANCH  14  16
ATOM     15  C   UNL     1       7.741   1.609  -0.260  0.00  0.00    +0.000 C 
ATOM     16  C   UNL     1       7.983   0.274   0.383  0.00  0.00    +0.000 C 
ENDBRANCH  14  16
ENDBRANCH   8  14
ENDBRANCH   1  11
BRANCH   4  17
ATOM     17  N   UNL     1      -1.864  -1.669  -0.173  0.00  0.00    +0.000 NA
BRANCH  17  18
ATOM     18  C   UNL     1      -3.138  -1.499  -0.667  0.00  0.00    +0.000 A 
ATOM     19  C   UNL     1      -3.680  -0.342  -1.165  0.00  0.00    +0.000 A 
ATOM     20  C   UNL     1      -4.985  -0.259  -1.636  0.00  0.00    +0.000 A 
ATOM     21  C   UNL     1      -5.807  -1.363  -1.621  0.00  0.00    +0.000 A 
ATOM     22  C   UNL     1      -5.294  -2.539  -1.129  0.00  0.00    +0.000 A 
ATOM     23  C   UNL     1      -4.003  -2.615  -0.665  0.00  0.00    +0.000 A 
BRANCH  23  24
ATOM     24  O   UNL     1      -3.508  -3.797  -0.182  0.00  0.00    +0.000 OA
BRANCH  24  25
ATOM     25  C   UNL     1      -4.334  -4.946  -0.160  0.00  0.00    +0.000 C 
ATOM     26  C   UNL     1      -3.449  -6.056   0.430  0.00  0.00    +0.000 C 
ENDBRANCH  24  25
ENDBRANCH  23  24
ENDBRANCH  17  18
ENDBRANCH   4  17
BRANCH   5  27
ATOM     27  S   UNL     1      -2.132   1.427   0.531  0.00  0.00    +0.000 S 
BRANCH  27  28
ATOM     28  C   UNL     1      -1.870   3.143   0.796  0.00  0.00    +0.000 A 
ATOM     29  C   UNL     1      -2.974   3.972   0.999  0.00  0.00    +0.000 A 
ATOM     30  C   UNL     1      -2.800   5.295   1.208  0.00  0.00    +0.000 A 
ATOM     31  C   UNL     1      -1.541   5.870   1.227  0.00  0.00    +0.000 A 
ATOM     32  C   UNL     1      -0.436   5.051   1.026  0.00  0.00    +0.000 A 
ATOM     33  C   UNL     1      -0.643   3.709   0.816  0.00  0.00    +0.000 A 
ENDBRANCH  27  28
ENDBRANCH   5  27
TORSDOF 9
