REMARK  Name = 
REMARK  8 active torsions:
REMARK  status: ('A' for Active; 'I' for Inactive)
REMARK    1  A    between atoms: C_5  and  N_6
REMARK    2  A    between atoms: C_7  and  S_8
REMARK    3  A    between atoms: S_8  and  C_9
REMARK    4  A    between atoms: C_9  and  C_10
REMARK    5  A    between atoms: C_10  and  C_12
REMARK    6  A    between atoms: C_12  and  O_13
REMARK    7  A    between atoms: O_13  and  C_14
REMARK    8  A    between atoms: C_22  and  C_23
REMARK                            x       y       z     vdW  Elec       q    Type
REMARK                         _______ _______ _______ _____ _____    ______ ____
ROOT
ATOM      1  N   UNL     1      -1.399  -0.602  -0.575  0.00  0.00    +0.000 N 
ATOM      2  C   UNL     1      -0.217  -0.782  -1.220  0.00  0.00    +0.000 A 
ATOM      3  N   UNL     1      -0.153  -2.063  -1.619  0.00  0.00    +0.000 NA
ATOM      4  N   UNL     1      -1.261  -2.675  -1.238  0.00  0.00    +0.000 NA
ATOM      5  C   UNL     1      -2.036  -1.786  -0.593  0.00  0.00    +0.000 A 
ENDROOT
BRANCH   1  10
ATOM      6  C   UNL     1      -3.356   4.215   1.840  0.00  0.00    +0.000 C 
ATOM      7  C   UNL     1      -2.825   2.959   1.240  0.00  0.00    +0.000 A 
ATOM      8  C   UNL     1      -1.819   2.217   1.827  0.00  0.00    +0.000 A 
ATOM      9  C   UNL     1      -1.376   1.060   1.210  0.00  0.00    +0.000 A 
ATOM     10  C   UNL     1      -1.893   0.597   0.018  0.00  0.00    +0.000 A 
ATOM     11  C   UNL     1      -2.896   1.358  -0.546  0.00  0.00    +0.000 A 
ATOM     12  C   UNL     1      -3.368   2.528   0.046  0.00  0.00    +0.000 A 
ATOM     13  C   UNL     1      -4.464   3.322  -0.610  0.00  0.00    +0.000 C 
ENDBRANCH   1  10
BRANCH   5  14
ATOM     14  C   UNL     1      -3.368  -2.035   0.004  0.00  0.00    +0.000 A 
ATOM     15  C   UNL     1      -3.943  -3.283  -0.069  0.00  0.00    +0.000 A 
ATOM     16  C   UNL     1      -5.176  -3.551   0.473  0.00  0.00    +0.000 A 
ATOM     17  C   UNL     1      -5.838  -2.524   1.103  0.00  0.00    +0.000 A 
ATOM     18  C   UNL     1      -5.283  -1.270   1.188  0.00  0.00    +0.000 A 
ATOM     19  C   UNL     1      -4.042  -1.014   0.638  0.00  0.00    +0.000 A 
ENDBRANCH   5  14
BRANCH   2  20
ATOM     20  S   UNL     1       0.926   0.554  -1.418  0.00  0.00    +0.000 S 
BRANCH  20  21
ATOM     21  C   UNL     1       2.398   0.322  -2.216  0.00  0.00    +0.000 C 
BRANCH  21  22
ATOM     22  C   UNL     1       3.453  -0.676  -1.403  0.00  0.00    +0.000 C 
ATOM     23  O   UNL     1       2.481  -1.863  -1.439  0.00  0.00    +0.000 OA
BRANCH  22  24
ATOM     24  C   UNL     1       2.949  -0.204   0.127  0.00  0.00    +0.000 C 
BRANCH  24  25
ATOM     25  O   UNL     1       3.724   0.918   0.407  0.00  0.00    +0.000 OA
BRANCH  25  26
ATOM     26  C   UNL     1       5.099   0.794   0.434  0.00  0.00    +0.000 A 
ATOM     27  C   UNL     1       5.714  -0.400   0.195  0.00  0.00    +0.000 A 
ATOM     28  C   UNL     1       7.082  -0.486   0.230  0.00  0.00    +0.000 A 
ATOM     29  C   UNL     1       7.839   0.625   0.506  0.00  0.00    +0.000 A 
ATOM     30  C   UNL     1       7.202   1.827   0.747  0.00  0.00    +0.000 A 
ATOM     31  C   UNL     1       5.845   1.918   0.713  0.00  0.00    +0.000 A 
ENDBRANCH  25  26
ENDBRANCH  24  25
ENDBRANCH  22  24
ENDBRANCH  21  22
ENDBRANCH  20  21
ENDBRANCH   2  20
TORSDOF 8
