REMARK  Name = 
REMARK  6 active torsions:
REMARK  status: ('A' for Active; 'I' for Inactive)
REMARK    1  A    between atoms: C_2  and  C_3
REMARK    2  A    between atoms: C_3  and  N_4
REMARK    3  A    between atoms: C_17  and  C_18
REMARK    4  A    between atoms: N_20  and  C_21
REMARK    5  A    between atoms: C_21  and  C_22
REMARK    6  A    between atoms: C_22  and  C_23
REMARK                            x       y       z     vdW  Elec       q    Type
REMARK                         _______ _______ _______ _____ _____    ______ ____
ROOT
ATOM      1  N   UNL     1      -2.813  -1.087   0.168  0.00  0.00    +0.000 N 
ATOM      2  C   UNL     1      -4.168  -0.776  -0.019  0.00  0.00    +0.000 C 
ATOM      3  O   UNL     1      -4.923  -1.799  -0.040  0.00  0.00    +0.000 OA
ATOM      4  C   UNL     1      -4.853   0.505  -0.192  0.00  0.00    +0.000 A 
ATOM      5  C   UNL     1      -6.198   0.427   0.189  0.00  0.00    +0.000 A 
ATOM      6  C   UNL     1      -7.023   1.512   0.108  0.00  0.00    +0.000 A 
ATOM      7  C   UNL     1      -6.501   2.690  -0.359  0.00  0.00    +0.000 A 
ATOM      8  C   UNL     1      -5.179   2.787  -0.739  0.00  0.00    +0.000 A 
ATOM      9  C   UNL     1      -4.344   1.692  -0.658  0.00  0.00    +0.000 A 
ATOM     10  S   UNL     1      -2.683   2.025  -1.194  0.00  0.00    +0.000 S 
ATOM     11  C   UNL     1      -1.497   1.008  -0.369  0.00  0.00    +0.000 A 
ATOM     12  C   UNL     1      -0.282   1.654  -0.285  0.00  0.00    +0.000 A 
ATOM     13  C   UNL     1       0.789   1.011   0.336  0.00  0.00    +0.000 A 
ATOM     14  C   UNL     1       0.637  -0.256   0.860  0.00  0.00    +0.000 A 
ATOM     15  C   UNL     1      -0.595  -0.850   0.747  0.00  0.00    +0.000 A 
ATOM     16  C   UNL     1      -1.672  -0.244   0.141  0.00  0.00    +0.000 A 
ENDROOT
BRANCH  14  17
ATOM     17  C   UNL     1       1.749  -0.937   1.511  0.00  0.00    +0.000 C 
ATOM     18  O   UNL     1       1.565  -2.091   1.975  0.00  0.00    +0.000 OA
ATOM     19  N   UNL     1       3.032  -0.364   1.650  0.00  0.00    +0.000 NA
BRANCH  19  20
ATOM     20  C   UNL     1       4.144  -1.036   2.297  0.00  0.00    +0.000 C 
BRANCH  20  21
ATOM     21  C   UNL     1       5.326  -0.066   2.225  0.00  0.00    +0.000 C 
BRANCH  21  22
ATOM     22  C   UNL     1       5.578   0.187   0.793  0.00  0.00    +0.000 A 
ATOM     23  C   UNL     1       6.444  -0.607   0.089  0.00  0.00    +0.000 A 
ATOM     24  C   UNL     1       6.697  -0.387  -1.257  0.00  0.00    +0.000 A 
ATOM     25  C   UNL     1       6.074   0.641  -1.911  0.00  0.00    +0.000 A 
ATOM     26  C   UNL     1       6.315   0.913  -3.352  0.00  0.00    +0.000 C 
ATOM     27  C   UNL     1       5.198   1.450  -1.212  0.00  0.00    +0.000 A 
ATOM     28  C   UNL     1       4.949   1.222   0.149  0.00  0.00    +0.000 A 
ENDBRANCH  21  22
ENDBRANCH  20  21
ENDBRANCH  19  20
ENDBRANCH  14  17
BRANCH   1  29
ATOM     29  C   UNL     1      -2.462  -2.487   0.437  0.00  0.00    +0.000 C 
BRANCH  29  31
ATOM     30  C   UNL     1      -1.081  -3.635  -1.266  0.00  0.00    +0.000 C 
ATOM     31  C   UNL     1      -2.225  -3.102  -0.915  0.00  0.00    +0.000 C 
ENDBRANCH  29  31
ENDBRANCH   1  29
TORSDOF 6
