REMARK  Name = 
REMARK  8 active torsions:
REMARK  status: ('A' for Active; 'I' for Inactive)
REMARK    1  A    between atoms: C_2  and  O_3
REMARK    2  A    between atoms: O_3  and  C_4
REMARK    3  A    between atoms: C_7  and  N_8
REMARK    4  A    between atoms: C_11  and  N_12
REMARK    5  A    between atoms: N_12  and  C_13
REMARK    6  A    between atoms: C_18  and  C_19
REMARK    7  A    between atoms: C_21  and  S_22
REMARK    8  A    between atoms: S_22  and  C_23
REMARK                            x       y       z     vdW  Elec       q    Type
REMARK                         _______ _______ _______ _____ _____    ______ ____
ROOT
ATOM      1  N   UNL     1       0.978  -0.341  -0.075  0.00  0.00    +0.000 N 
ATOM      2  C   UNL     1       0.628   1.061  -0.043  0.00  0.00    +0.000 C 
ATOM      3  O   UNL     1       1.492   1.975  -0.120  0.00  0.00    +0.000 OA
ATOM      4  C   UNL     1      -0.819   1.184   0.085  0.00  0.00    +0.000 C 
ATOM      5  C   UNL     1      -1.358  -0.057   0.133  0.00  0.00    +0.000 C 
ATOM      6  C   UNL     1      -0.273  -1.002   0.035  0.00  0.00    +0.000 C 
ATOM      7  O   UNL     1      -0.458  -2.260   0.051  0.00  0.00    +0.000 OA
ENDROOT
BRANCH   1  11
ATOM      8  C   UNL     1       4.899  -1.769  -0.433  0.00  0.00    +0.000 A 
ATOM      9  C   UNL     1       4.610  -0.430  -0.563  0.00  0.00    +0.000 A 
ATOM     10  C   UNL     1       3.320  -0.017  -0.440  0.00  0.00    +0.000 A 
ATOM     11  C   UNL     1       2.280  -0.890  -0.189  0.00  0.00    +0.000 A 
ATOM     12  C   UNL     1       2.568  -2.225  -0.060  0.00  0.00    +0.000 A 
ATOM     13  C   UNL     1       3.875  -2.636  -0.185  0.00  0.00    +0.000 A 
BRANCH   8  14
ATOM     14  O   UNL     1       6.205  -2.255  -0.547  0.00  0.00    +0.000 OA
BRANCH  14  16
ATOM     15  C   UNL     1       8.572  -2.004  -0.897  0.00  0.00    +0.000 C 
ATOM     16  C   UNL     1       7.228  -1.309  -0.803  0.00  0.00    +0.000 C 
ENDBRANCH  14  16
ENDBRANCH   8  14
ENDBRANCH   1  11
BRANCH   4  17
ATOM     17  N   UNL     1      -1.609   2.353   0.153  0.00  0.00    +0.000 NA
BRANCH  17  18
ATOM     18  C   UNL     1      -1.282   3.671  -0.128  0.00  0.00    +0.000 A 
ATOM     19  C   UNL     1      -0.043   4.085  -0.530  0.00  0.00    +0.000 A 
ATOM     20  C   UNL     1       0.269   5.382  -0.799  0.00  0.00    +0.000 A 
ATOM     21  C   UNL     1      -0.683   6.360  -0.672  0.00  0.00    +0.000 A 
ATOM     22  C   UNL     1      -1.942   5.983  -0.270  0.00  0.00    +0.000 A 
ATOM     23  C   UNL     1      -2.256   4.670   0.001  0.00  0.00    +0.000 A 
BRANCH  23  24
ATOM     24  C   UNL     1      -3.627   4.338   0.423  0.00  0.00    +0.000 C 
ATOM     25  C   UNL     1      -3.728   4.070   1.896  0.00  0.00    +0.000 C 
ENDBRANCH  23  24
ENDBRANCH  17  18
ENDBRANCH   4  17
BRANCH   5  26
ATOM     26  S   UNL     1      -3.119  -0.390   0.288  0.00  0.00    +0.000 S 
BRANCH  26  27
ATOM     27  C   UNL     1      -3.388  -2.132   0.273  0.00  0.00    +0.000 A 
ATOM     28  C   UNL     1      -3.375  -2.911   1.407  0.00  0.00    +0.000 A 
ATOM     29  C   UNL     1      -3.591  -4.285   1.375  0.00  0.00    +0.000 A 
ATOM     30  C   UNL     1      -3.829  -4.908   0.171  0.00  0.00    +0.000 A 
ATOM     31  C   UNL     1      -4.068  -6.386   0.069  0.00  0.00    +0.000 C 
ATOM     32  C   UNL     1      -3.846  -4.141  -0.979  0.00  0.00    +0.000 A 
ATOM     33  C   UNL     1      -3.632  -2.783  -0.942  0.00  0.00    +0.000 A 
ENDBRANCH  26  27
ENDBRANCH   5  26
TORSDOF 8
