REMARK  Name = 
REMARK  7 active torsions:
REMARK  status: ('A' for Active; 'I' for Inactive)
REMARK    1  A    between atoms: C_2  and  C_4
REMARK    2  A    between atoms: C_4  and  O_5
REMARK    3  A    between atoms: O_5  and  C_6
REMARK    4  A    between atoms: C_9  and  C_10
REMARK    5  A    between atoms: C_20  and  O_21
REMARK    6  A    between atoms: O_21  and  C_22
REMARK    7  A    between atoms: C_22  and  C_23
REMARK                            x       y       z     vdW  Elec       q    Type
REMARK                         _______ _______ _______ _____ _____    ______ ____
ROOT
ATOM      1  C   UNL     1       0.873  -2.104  -0.330  0.00  0.00    +0.000 C 
ATOM      2  N   UNL     1       0.830  -2.200   1.269  0.00  0.00    +0.000 NA
ATOM      3  C   UNL     1      -0.471  -2.765   1.523  0.00  0.00    +0.000 C 
ATOM      4  C   UNL     1      -1.581  -2.138   0.715  0.00  0.00    +0.000 C 
ATOM      5  C   UNL     1      -1.177  -0.837   0.171  0.00  0.00    +0.000 A 
ATOM      6  C   UNL     1       0.064  -0.717  -0.390  0.00  0.00    +0.000 A 
ATOM      7  N   UNL     1       0.253   0.484  -0.817  0.00  0.00    +0.000 NA
ATOM      8  C   UNL     1      -0.830   1.233  -0.573  0.00  0.00    +0.000 A 
ATOM      9  C   UNL     1      -1.153   2.534  -0.811  0.00  0.00    +0.000 A 
ATOM     10  C   UNL     1      -2.393   3.072  -0.441  0.00  0.00    +0.000 A 
ATOM     11  C   UNL     1      -3.343   2.264   0.196  0.00  0.00    +0.000 A 
ATOM     12  C   UNL     1      -2.967   0.962   0.411  0.00  0.00    +0.000 A 
ATOM     13  C   UNL     1      -1.749   0.416   0.052  0.00  0.00    +0.000 A 
ENDROOT
BRANCH   1  17
ATOM     14  C   UNL     1       4.923  -0.451  -0.522  0.00  0.00    +0.000 A 
ATOM     15  C   UNL     1       4.633  -1.512   0.300  0.00  0.00    +0.000 A 
ATOM     16  C   UNL     1       3.330  -2.052   0.369  0.00  0.00    +0.000 A 
ATOM     17  C   UNL     1       2.345  -1.507  -0.397  0.00  0.00    +0.000 A 
ATOM     18  C   UNL     1       2.603  -0.454  -1.221  0.00  0.00    +0.000 A 
ATOM     19  C   UNL     1       3.909   0.078  -1.282  0.00  0.00    +0.000 A 
BRANCH  14  20
ATOM     20  O   UNL     1       6.195   0.103  -0.612  0.00  0.00    +0.000 OA
BRANCH  20  21
ATOM     21  C   UNL     1       7.252  -0.455   0.187  0.00  0.00    +0.000 C 
BRANCH  21  23
ATOM     22  C   UNL     1       8.688   0.180  -1.656  0.00  0.00    +0.000 C 
ATOM     23  C   UNL     1       8.479   0.369  -0.149  0.00  0.00    +0.000 C 
ATOM     24  C   UNL     1       8.150   1.857   0.030  0.00  0.00    +0.000 C 
ENDBRANCH  21  23
ENDBRANCH  20  21
ENDBRANCH  14  20
ENDBRANCH   1  17
BRANCH  11  25
ATOM     25  O   UNL     1      -4.576   2.781   0.571  0.00  0.00    +0.000 OA
BRANCH  25  26
ATOM     26  C   UNL     1      -5.475   1.905   1.201  0.00  0.00    +0.000 C 
BRANCH  26  27
ATOM     27  C   UNL     1      -5.785   0.793   0.283  0.00  0.00    +0.000 A 
ATOM     28  C   UNL     1      -5.397  -0.519   0.463  0.00  0.00    +0.000 A 
ATOM     29  C   UNL     1      -5.750  -1.470  -0.470  0.00  0.00    +0.000 A 
ATOM     30  C   UNL     1      -6.478  -1.134  -1.574  0.00  0.00    +0.000 A 
ATOM     31  C   UNL     1      -6.868   0.166  -1.764  0.00  0.00    +0.000 A 
ATOM     32  C   UNL     1      -6.532   1.116  -0.858  0.00  0.00    +0.000 A 
ENDBRANCH  26  27
ENDBRANCH  25  26
ENDBRANCH  11  25
TORSDOF 7
