REMARK  Name = 
REMARK  8 active torsions:
REMARK  status: ('A' for Active; 'I' for Inactive)
REMARK    1  A    between atoms: C_2  and  O_3
REMARK    2  A    between atoms: O_3  and  C_4
REMARK    3  A    between atoms: C_4  and  C_6
REMARK    4  A    between atoms: C_8  and  C_9
REMARK    5  A    between atoms: N_15  and  C_16
REMARK    6  A    between atoms: C_16  and  C_17
REMARK    7  A    between atoms: C_17  and  C_18
REMARK    8  A    between atoms: N_20  and  C_21
REMARK                            x       y       z     vdW  Elec       q    Type
REMARK                         _______ _______ _______ _____ _____    ______ ____
ROOT
ATOM      1  C   UNL     1      -3.366   1.271  -0.909  0.00  0.00    +0.000 A 
ATOM      2  C   UNL     1      -3.525   0.078  -0.200  0.00  0.00    +0.000 A 
ATOM      3  C   UNL     1      -2.281  -0.540  -0.076  0.00  0.00    +0.000 A 
ATOM      4  N   UNL     1      -1.396   0.257  -0.693  0.00  0.00    +0.000 N 
ATOM      5  C   UNL     1      -2.020   1.338  -1.194  0.00  0.00    +0.000 A 
ATOM      6  C   UNL     1      -1.360   2.429  -1.937  0.00  0.00    +0.000 C 
ENDROOT
BRANCH   3   7
ATOM      7  C   UNL     1      -1.998  -1.800   0.589  0.00  0.00    +0.000 A 
ATOM      8  C   UNL     1      -2.955  -2.574   1.206  0.00  0.00    +0.000 A 
ATOM      9  C   UNL     1      -2.656  -3.769   1.832  0.00  0.00    +0.000 A 
ATOM     10  C   UNL     1      -1.367  -4.205   1.843  0.00  0.00    +0.000 A 
ATOM     11  C   UNL     1      -0.372  -3.453   1.233  0.00  0.00    +0.000 A 
ATOM     12  C   UNL     1      -0.699  -2.249   0.607  0.00  0.00    +0.000 A 
ENDBRANCH   3   7
BRANCH   1  13
ATOM     13  C   UNL     1      -4.407   2.233  -1.266  0.00  0.00    +0.000 C 
ATOM     14  O   UNL     1      -4.062   3.248  -1.908  0.00  0.00    +0.000 OA
BRANCH  13  15
ATOM     15  O   UNL     1      -5.724   2.079  -0.936  0.00  0.00    +0.000 OA
BRANCH  15  17
ATOM     16  C   UNL     1      -8.035   2.476  -0.738  0.00  0.00    +0.000 C 
ATOM     17  C   UNL     1      -6.735   3.015  -1.284  0.00  0.00    +0.000 C 
ENDBRANCH  15  17
ENDBRANCH  13  15
ENDBRANCH   1  13
BRANCH   4  18
ATOM     18  C   UNL     1       0.021  -0.033  -0.788  0.00  0.00    +0.000 C 
BRANCH  18  19
ATOM     19  C   UNL     1       0.794   0.539   0.375  0.00  0.00    +0.000 C 
BRANCH  19  20
ATOM     20  C   UNL     1       2.224   0.200   0.201  0.00  0.00    +0.000 C 
ATOM     21  O   UNL     1       2.569  -0.461  -0.807  0.00  0.00    +0.000 OA
ATOM     22  N   UNL     1       3.229   0.589   1.124  0.00  0.00    +0.000 NA
BRANCH  22  23
ATOM     23  C   UNL     1       4.571   0.208   0.857  0.00  0.00    +0.000 A 
ATOM     24  C   UNL     1       4.915  -0.525  -0.271  0.00  0.00    +0.000 A 
ATOM     25  C   UNL     1       6.230  -0.878  -0.500  0.00  0.00    +0.000 A 
ATOM     26  C   UNL     1       7.245  -0.528   0.361  0.00  0.00    +0.000 A 
ATOM     27  C   UNL     1       8.655  -0.924   0.086  0.00  0.00    +0.000 C 
ATOM     28  C   UNL     1       6.912   0.200   1.482  0.00  0.00    +0.000 A 
ATOM     29  C   UNL     1       5.596   0.552   1.711  0.00  0.00    +0.000 A 
ENDBRANCH  22  23
ENDBRANCH  19  20
ENDBRANCH  18  19
ENDBRANCH   4  18
TORSDOF 8
