REMARK  Name = 
REMARK  8 active torsions:
REMARK  status: ('A' for Active; 'I' for Inactive)
REMARK    1  A    between atoms: C_2  and  O_3
REMARK    2  A    between atoms: O_3  and  C_4
REMARK    3  A    between atoms: C_7  and  N_8
REMARK    4  A    between atoms: N_8  and  C_9
REMARK    5  A    between atoms: C_10  and  S_11
REMARK    6  A    between atoms: S_11  and  C_12
REMARK    7  A    between atoms: N_20  and  C_21
REMARK    8  A    between atoms: C_24  and  C_25
REMARK                            x       y       z     vdW  Elec       q    Type
REMARK                         _______ _______ _______ _____ _____    ______ ____
ROOT
ATOM      1  C   UNL     1       1.067   0.583   0.726  0.00  0.00    +0.000 C 
ATOM      2  C   UNL     1       0.426   1.754   0.575  0.00  0.00    +0.000 C 
ATOM      3  C   UNL     1      -0.974   1.435   0.298  0.00  0.00    +0.000 C 
ATOM      4  O   UNL     1      -1.903   2.291   0.094  0.00  0.00    +0.000 OA
ATOM      5  N   UNL     1      -1.173   0.025   0.287  0.00  0.00    +0.000 N 
ATOM      6  C   UNL     1       0.144  -0.517   0.564  0.00  0.00    +0.000 C 
ATOM      7  O   UNL     1       0.316  -1.775   0.626  0.00  0.00    +0.000 OA
ENDROOT
BRANCH   5   8
ATOM      8  C   UNL     1      -2.348  -0.717   0.066  0.00  0.00    +0.000 A 
ATOM      9  C   UNL     1      -2.260  -2.095  -0.172  0.00  0.00    +0.000 A 
ATOM     10  C   UNL     1      -3.399  -2.825  -0.386  0.00  0.00    +0.000 A 
ATOM     11  C   UNL     1      -4.662  -2.263  -0.382  0.00  0.00    +0.000 A 
ATOM     12  C   UNL     1      -4.745  -0.916  -0.150  0.00  0.00    +0.000 A 
ATOM     13  C   UNL     1      -3.598  -0.172   0.068  0.00  0.00    +0.000 A 
BRANCH  11  14
ATOM     14  C   UNL     1      -5.838  -3.124  -0.617  0.00  0.00    +0.000 C 
ATOM     15  C   UNL     1      -6.952  -2.700   0.316  0.00  0.00    +0.000 C 
ATOM     16  C   UNL     1      -6.320  -2.905  -2.033  0.00  0.00    +0.000 C 
ENDBRANCH  11  14
ENDBRANCH   5   8
BRANCH   1  17
ATOM     17  N   UNL     1       2.453   0.493   0.979  0.00  0.00    +0.000 NA
BRANCH  17  21
ATOM     18  C   UNL     1       5.143  -2.599  -0.066  0.00  0.00    +0.000 A 
ATOM     19  C   UNL     1       3.793  -2.827  -0.073  0.00  0.00    +0.000 A 
ATOM     20  C   UNL     1       2.920  -1.837   0.276  0.00  0.00    +0.000 A 
ATOM     21  C   UNL     1       3.312  -0.572   0.651  0.00  0.00    +0.000 A 
ATOM     22  C   UNL     1       4.696  -0.359   0.653  0.00  0.00    +0.000 A 
ATOM     23  C   UNL     1       5.589  -1.332   0.308  0.00  0.00    +0.000 A 
BRANCH  18  24
ATOM     24  O   UNL     1       6.099  -3.528  -0.401  0.00  0.00    +0.000 OA
BRANCH  24  26
ATOM     25  C   UNL     1       5.100  -5.643   0.297  0.00  0.00    +0.000 C 
ATOM     26  C   UNL     1       5.829  -4.849  -0.790  0.00  0.00    +0.000 C 
ENDBRANCH  24  26
ENDBRANCH  18  24
ENDBRANCH  17  21
ENDBRANCH   1  17
BRANCH   2  27
ATOM     27  S   UNL     1       1.139   3.386   0.655  0.00  0.00    +0.000 S 
BRANCH  27  28
ATOM     28  C   UNL     1       0.062   4.631  -0.061  0.00  0.00    +0.000 A 
ATOM     29  C   UNL     1      -0.966   5.248   0.584  0.00  0.00    +0.000 A 
ATOM     30  C   UNL     1      -1.677   6.232  -0.120  0.00  0.00    +0.000 A 
ATOM     31  C   UNL     1      -1.350   6.558  -1.404  0.00  0.00    +0.000 A 
ATOM     32  C   UNL     1      -0.303   5.939  -2.082  0.00  0.00    +0.000 A 
ATOM     33  C   UNL     1       0.381   4.979  -1.380  0.00  0.00    +0.000 A 
ENDBRANCH  27  28
ENDBRANCH   2  27
TORSDOF 8
