REMARK  Name = 
REMARK  7 active torsions:
REMARK  status: ('A' for Active; 'I' for Inactive)
REMARK    1  A    between atoms: C_7  and  N_8
REMARK    2  A    between atoms: N_8  and  C_9
REMARK    3  A    between atoms: C_10  and  S_11
REMARK    4  A    between atoms: S_11  and  C_12
REMARK    5  A    between atoms: N_20  and  C_21
REMARK    6  A    between atoms: C_21  and  C_22
REMARK    7  A    between atoms: C_22  and  C_23
REMARK                            x       y       z     vdW  Elec       q    Type
REMARK                         _______ _______ _______ _____ _____    ______ ____
ROOT
ATOM      1  C   UNL     1      -0.586  -0.784  -0.851  0.00  0.00    +0.000 C 
ATOM      2  C   UNL     1      -0.282   0.281  -0.078  0.00  0.00    +0.000 C 
ATOM      3  C   UNL     1       0.876  -0.037   0.732  0.00  0.00    +0.000 C 
ATOM      4  O   UNL     1       1.476   0.648   1.566  0.00  0.00    +0.000 OA
ATOM      5  N   UNL     1       1.285  -1.383   0.415  0.00  0.00    +0.000 N 
ATOM      6  C   UNL     1       0.369  -1.835  -0.568  0.00  0.00    +0.000 C 
ATOM      7  O   UNL     1       0.391  -2.983  -1.110  0.00  0.00    +0.000 OA
ENDROOT
BRANCH   1   8
ATOM      8  N   UNL     1      -1.647  -0.880  -1.782  0.00  0.00    +0.000 NA
BRANCH   8  15
ATOM      9  C   UNL     1      -3.880  -4.206   1.162  0.00  0.00    +0.000 C 
ATOM     10  C   UNL     1      -3.802  -3.372  -0.067  0.00  0.00    +0.000 A 
ATOM     11  C   UNL     1      -4.818  -3.442  -0.992  0.00  0.00    +0.000 A 
ATOM     12  C   UNL     1      -4.816  -2.706  -2.145  0.00  0.00    +0.000 A 
ATOM     13  C   UNL     1      -3.778  -1.857  -2.420  0.00  0.00    +0.000 A 
ATOM     14  C   UNL     1      -3.701  -1.027  -3.643  0.00  0.00    +0.000 C 
ATOM     15  C   UNL     1      -2.736  -1.772  -1.491  0.00  0.00    +0.000 A 
ATOM     16  C   UNL     1      -2.750  -2.521  -0.331  0.00  0.00    +0.000 A 
ENDBRANCH   8  15
ENDBRANCH   1   8
BRANCH   2  17
ATOM     17  S   UNL     1      -1.222   1.761  -0.139  0.00  0.00    +0.000 S 
BRANCH  17  18
ATOM     18  C   UNL     1      -0.704   3.054   0.924  0.00  0.00    +0.000 A 
ATOM     19  C   UNL     1      -1.463   4.235   0.868  0.00  0.00    +0.000 A 
ATOM     20  C   UNL     1      -1.169   5.318   1.642  0.00  0.00    +0.000 A 
ATOM     21  C   UNL     1      -0.106   5.284   2.511  0.00  0.00    +0.000 A 
ATOM     22  C   UNL     1       0.632   4.122   2.558  0.00  0.00    +0.000 A 
ATOM     23  C   UNL     1       0.340   3.035   1.785  0.00  0.00    +0.000 A 
ENDBRANCH  17  18
ENDBRANCH   2  17
BRANCH   5  24
ATOM     24  C   UNL     1       2.393  -2.117   0.974  0.00  0.00    +0.000 C 
BRANCH  24  25
ATOM     25  C   UNL     1       3.640  -1.911   0.156  0.00  0.00    +0.000 C 
BRANCH  25  26
ATOM     26  C   UNL     1       4.004  -0.489   0.112  0.00  0.00    +0.000 A 
ATOM     27  C   UNL     1       4.815   0.064   1.057  0.00  0.00    +0.000 A 
ATOM     28  C   UNL     1       5.167   1.397   1.020  0.00  0.00    +0.000 A 
ATOM     29  C   UNL     1       4.685   2.184   0.002  0.00  0.00    +0.000 A 
ATOM     30  C   UNL     1       3.865   1.635  -0.958  0.00  0.00    +0.000 A 
ATOM     31  C   UNL     1       3.522   0.305  -0.910  0.00  0.00    +0.000 A 
ENDBRANCH  25  26
ENDBRANCH  24  25
ENDBRANCH   5  24
TORSDOF 7
