REMARK  Name = 
REMARK  8 active torsions:
REMARK  status: ('A' for Active; 'I' for Inactive)
REMARK    1  A    between atoms: C_2  and  S_3
REMARK    2  A    between atoms: C_2  and  C_11
REMARK    3  A    between atoms: S_3  and  C_4
REMARK    4  A    between atoms: C_4  and  C_5
REMARK    5  A    between atoms: N_13  and  C_14
REMARK    6  A    between atoms: C_19  and  C_20
REMARK    7  A    between atoms: N_22  and  C_23
REMARK    8  A    between atoms: C_23  and  C_25
REMARK                            x       y       z     vdW  Elec       q    Type
REMARK                         _______ _______ _______ _____ _____    ______ ____
ROOT
ATOM      1  C   UNL     1      -0.730  -2.283   0.118  0.00  0.00    +0.000 A 
ATOM      2  C   UNL     1      -0.353  -3.545   0.594  0.00  0.00    +0.000 A 
ATOM      3  C   UNL     1      -1.324  -4.535   0.606  0.00  0.00    +0.000 A 
ATOM      4  C   UNL     1      -2.608  -4.293   0.170  0.00  0.00    +0.000 A 
ATOM      5  C   UNL     1      -2.918  -3.035  -0.286  0.00  0.00    +0.000 A 
ATOM      6  C   UNL     1      -1.981  -1.996  -0.322  0.00  0.00    +0.000 A 
ENDROOT
BRANCH   1   9
ATOM      7  C   UNL     1       1.579  -1.397   0.533  0.00  0.00    +0.000 C 
ATOM      8  O   UNL     1       1.946  -2.492   0.977  0.00  0.00    +0.000 OA
ATOM      9  N   UNL     1       0.264  -1.244   0.096  0.00  0.00    +0.000 NA
BRANCH   7  11
ATOM     10  C   UNL     1       2.829  -0.112   2.055  0.00  0.00    +0.000 C 
ATOM     11  C   UNL     1       2.608  -0.265   0.493  0.00  0.00    +0.000 C 
BRANCH  11  12
ATOM     12  S   UNL     1       4.166  -1.296   0.168  0.00  0.00    +0.000 S 
BRANCH  12  13
ATOM     13  C   UNL     1       5.559  -0.187   0.523  0.00  0.00    +0.000 C 
BRANCH  13  14
ATOM     14  C   UNL     1       5.604   0.939  -0.485  0.00  0.00    +0.000 A 
ATOM     15  C   UNL     1       6.324   0.803  -1.634  0.00  0.00    +0.000 A 
ATOM     16  C   UNL     1       6.383   1.807  -2.570  0.00  0.00    +0.000 A 
ATOM     17  C   UNL     1       5.707   2.995  -2.369  0.00  0.00    +0.000 A 
ATOM     18  C   UNL     1       4.992   3.096  -1.198  0.00  0.00    +0.000 A 
ATOM     19  C   UNL     1       4.921   2.108  -0.255  0.00  0.00    +0.000 A 
ENDBRANCH  13  14
ENDBRANCH  12  13
ENDBRANCH  11  12
ENDBRANCH   7  11
ENDBRANCH   1   9
BRANCH   6  20
ATOM     20  C   UNL     1      -2.335  -0.677  -0.809  0.00  0.00    +0.000 C 
ATOM     21  O   UNL     1      -1.408   0.190  -0.803  0.00  0.00    +0.000 OA
ATOM     22  N   UNL     1      -3.616  -0.310  -1.276  0.00  0.00    +0.000 NA
BRANCH  22  23
ATOM     23  C   UNL     1      -3.768   1.194  -1.762  0.00  0.00    +0.000 C 
ATOM     24  C   UNL     1      -5.349   0.962  -2.208  0.00  0.00    +0.000 C 
BRANCH  23  25
ATOM     25  C   UNL     1      -4.127   1.767  -0.302  0.00  0.00    +0.000 A 
ATOM     26  C   UNL     1      -5.154   2.647  -0.215  0.00  0.00    +0.000 A 
ATOM     27  C   UNL     1      -5.462   3.171   1.048  0.00  0.00    +0.000 A 
ATOM     28  C   UNL     1      -4.708   2.769   2.147  0.00  0.00    +0.000 A 
ATOM     29  C   UNL     1      -3.672   1.870   2.004  0.00  0.00    +0.000 A 
ATOM     30  C   UNL     1      -3.371   1.350   0.739  0.00  0.00    +0.000 A 
ENDBRANCH  23  25
ENDBRANCH  22  23
ENDBRANCH   6  20
TORSDOF 8
