REMARK  Name = 
REMARK  6 active torsions:
REMARK  status: ('A' for Active; 'I' for Inactive)
REMARK    1  A    between atoms: C_2  and  C_4
REMARK    2  A    between atoms: C_6  and  C_7
REMARK    3  A    between atoms: C_11  and  C_12
REMARK    4  A    between atoms: C_12  and  C_13
REMARK    5  A    between atoms: C_13  and  C_14
REMARK    6  A    between atoms: C_13  and  C_21
REMARK                            x       y       z     vdW  Elec       q    Type
REMARK                         _______ _______ _______ _____ _____    ______ ____
ROOT
ATOM      1  C   UNL     1      -1.431  -0.778  -0.355  0.00  0.00    +0.000 A 
ATOM      2  C   UNL     1      -1.571  -1.792  -1.292  0.00  0.00    +0.000 A 
ATOM      3  C   UNL     1      -0.418  -2.386  -1.755  0.00  0.00    +0.000 A 
ATOM      4  C   UNL     1       0.803  -1.968  -1.288  0.00  0.00    +0.000 A 
ATOM      5  C   UNL     1       0.934  -0.972  -0.368  0.00  0.00    +0.000 A 
ATOM      6  C   UNL     1      -0.205  -0.366   0.106  0.00  0.00    +0.000 A 
ENDROOT
BRANCH   1   9
ATOM      7  C   UNL     1      -4.067   1.698   0.662  0.00  0.00    +0.000 A 
ATOM      8  C   UNL     1      -2.892   1.155   0.232  0.00  0.00    +0.000 A 
ATOM      9  C   UNL     1      -2.686  -0.180   0.105  0.00  0.00    +0.000 A 
ATOM     10  C   UNL     1      -3.703  -1.054   0.421  0.00  0.00    +0.000 A 
ATOM     11  N   UNL     1      -3.522  -2.394   0.302  0.00  0.00    +0.000 NA
ATOM     12  C   UNL     1      -4.464  -3.292   0.591  0.00  0.00    +0.000 A 
ATOM     13  C   UNL     1      -5.685  -2.804   1.035  0.00  0.00    +0.000 A 
ATOM     14  C   UNL     1      -5.924  -1.454   1.174  0.00  0.00    +0.000 A 
ATOM     15  C   UNL     1      -4.906  -0.550   0.859  0.00  0.00    +0.000 A 
ATOM     16  C   UNL     1      -5.092   0.811   0.980  0.00  0.00    +0.000 A 
BRANCH   7  18
ATOM     17  C   UNL     1      -4.425   3.487   2.285  0.00  0.00    +0.000 C 
ATOM     18  C   UNL     1      -4.320   3.143   0.810  0.00  0.00    +0.000 C 
ATOM     19  C   UNL     1      -5.632   3.557   0.149  0.00  0.00    +0.000 C 
ENDBRANCH   7  18
ENDBRANCH   1   9
BRANCH   5  20
ATOM     20  C   UNL     1       2.248  -0.576   0.084  0.00  0.00    +0.000 C 
BRANCH  20  21
ATOM     21  C   UNL     1       2.806   0.696  -0.733  0.00  0.00    +0.000 C 
BRANCH  21  22
ATOM     22  C   UNL     1       4.175   0.816   0.053  0.00  0.00    +0.000 A 
ATOM     23  C   UNL     1       4.153   0.687   1.406  0.00  0.00    +0.000 A 
ATOM     24  C   UNL     1       5.375   0.812   2.082  0.00  0.00    +0.000 A 
ATOM     25  N   UNL     1       6.516   1.050   1.407  0.00  0.00    +0.000 N 
ATOM     26  O   UNL     1       7.729   1.177   2.056  0.00  0.00    +0.000 OA
ATOM     27  C   UNL     1       6.514   1.173   0.087  0.00  0.00    +0.000 A 
ATOM     28  C   UNL     1       5.324   1.054  -0.601  0.00  0.00    +0.000 A 
ENDBRANCH  21  22
BRANCH  21  29
ATOM     29  C   UNL     1       3.418  -0.105  -2.010  0.00  0.00    +0.000 C 
ATOM     30  C   UNL     1       4.436  -1.079  -1.521  0.00  0.00    +0.000 C 
ATOM     31  C   UNL     1       4.092   1.002  -2.848  0.00  0.00    +0.000 C 
ATOM     32  O   UNL     1       2.417  -0.567  -2.787  0.00  0.00    +0.000 OA
ENDBRANCH  21  29
ENDBRANCH  20  21
ENDBRANCH   5  20
TORSDOF 6
