REMARK  Name = 
REMARK  6 active torsions:
REMARK  status: ('A' for Active; 'I' for Inactive)
REMARK    1  A    between atoms: C_5  and  S_6
REMARK    2  A    between atoms: S_6  and  C_7
REMARK    3  A    between atoms: C_8  and  N_9
REMARK    4  A    between atoms: N_9  and  C_10
REMARK    5  A    between atoms: N_20  and  C_21
REMARK    6  A    between atoms: C_21  and  C_22
REMARK                            x       y       z     vdW  Elec       q    Type
REMARK                         _______ _______ _______ _____ _____    ______ ____
ROOT
ATOM      1  C   UNL     1       0.023  -0.499  -0.356  0.00  0.00    +0.000 C 
ATOM      2  C   UNL     1       1.006   0.413  -0.596  0.00  0.00    +0.000 C 
ATOM      3  C   UNL     1       0.569   1.687  -0.051  0.00  0.00    +0.000 C 
ATOM      4  O   UNL     1       1.246   2.752  -0.102  0.00  0.00    +0.000 OA
ATOM      5  N   UNL     1      -0.702   1.558   0.533  0.00  0.00    +0.000 N 
ATOM      6  C   UNL     1      -1.062   0.175   0.347  0.00  0.00    +0.000 C 
ATOM      7  O   UNL     1      -2.157  -0.282   0.760  0.00  0.00    +0.000 OA
ENDROOT
BRANCH   1   8
ATOM      8  S   UNL     1       0.206  -2.176  -0.883  0.00  0.00    +0.000 S 
BRANCH   8  13
ATOM      9  C   UNL     1      -4.427  -5.811   0.419  0.00  0.00    +0.000 C 
ATOM     10  C   UNL     1      -3.293  -4.912   0.103  0.00  0.00    +0.000 A 
ATOM     11  C   UNL     1      -2.188  -5.395  -0.560  0.00  0.00    +0.000 A 
ATOM     12  C   UNL     1      -1.165  -4.545  -0.836  0.00  0.00    +0.000 A 
ATOM     13  C   UNL     1      -1.193  -3.181  -0.466  0.00  0.00    +0.000 A 
ATOM     14  C   UNL     1      -2.316  -2.770   0.187  0.00  0.00    +0.000 A 
ATOM     15  C   UNL     1      -3.358  -3.593   0.479  0.00  0.00    +0.000 A 
ENDBRANCH   8  13
ENDBRANCH   1   8
BRANCH   2  16
ATOM     16  N   UNL     1       2.232   0.122  -1.268  0.00  0.00    +0.000 NA
BRANCH  16  17
ATOM     17  C   UNL     1       3.465   0.080  -0.555  0.00  0.00    +0.000 A 
ATOM     18  C   UNL     1       3.550   0.313   0.807  0.00  0.00    +0.000 A 
ATOM     19  C   UNL     1       4.757   0.267   1.479  0.00  0.00    +0.000 A 
ATOM     20  C   UNL     1       4.800   0.525   2.945  0.00  0.00    +0.000 C 
ATOM     21  C   UNL     1       5.884  -0.019   0.755  0.00  0.00    +0.000 A 
ATOM     22  C   UNL     1       5.814  -0.252  -0.586  0.00  0.00    +0.000 A 
ATOM     23  C   UNL     1       4.596  -0.203  -1.253  0.00  0.00    +0.000 A 
ATOM     24  C   UNL     1       4.621  -0.472  -2.725  0.00  0.00    +0.000 C 
ENDBRANCH  16  17
ENDBRANCH   2  16
BRANCH   5  25
ATOM     25  C   UNL     1      -1.485   2.567   1.177  0.00  0.00    +0.000 C 
BRANCH  25  26
ATOM     26  C   UNL     1      -2.373   3.282   0.260  0.00  0.00    +0.000 A 
ATOM     27  C   UNL     1      -1.968   4.414  -0.395  0.00  0.00    +0.000 A 
ATOM     28  C   UNL     1      -2.807   5.075  -1.251  0.00  0.00    +0.000 A 
ATOM     29  C   UNL     1      -4.098   4.599  -1.471  0.00  0.00    +0.000 A 
ATOM     30  C   UNL     1      -4.525   3.461  -0.822  0.00  0.00    +0.000 A 
ATOM     31  C   UNL     1      -3.651   2.821   0.035  0.00  0.00    +0.000 A 
ENDBRANCH  25  26
ENDBRANCH   5  25
TORSDOF 6
