REMARK  Name = 
REMARK  6 active torsions:
REMARK  status: ('A' for Active; 'I' for Inactive)
REMARK    1  A    between atoms: O_2  and  C_3
REMARK    2  A    between atoms: C_6  and  N_7
REMARK    3  A    between atoms: C_8  and  C_10
REMARK    4  A    between atoms: C_11  and  N_12
REMARK    5  A    between atoms: C_13  and  C_15
REMARK    6  A    between atoms: C_15  and  C_16
REMARK                            x       y       z     vdW  Elec       q    Type
REMARK                         _______ _______ _______ _____ _____    ______ ____
ROOT
ATOM      1  C   UNL     1       0.023  -2.138   0.257  0.00  0.00    +0.000 A 
ATOM      2  C   UNL     1      -1.315  -2.234   0.020  0.00  0.00    +0.000 A 
ATOM      3  S   UNL     1      -1.567  -3.974   0.295  0.00  0.00    +0.000 S 
ATOM      4  C   UNL     1      -0.005  -4.426   0.684  0.00  0.00    +0.000 A 
ATOM      5  C   UNL     1       0.693  -3.261   0.600  0.00  0.00    +0.000 A 
ATOM      6  C   UNL     1       2.180  -3.469   0.934  0.00  0.00    +0.000 C 
ATOM      7  C   UNL     1       2.624  -4.535  -0.076  0.00  0.00    +0.000 C 
ATOM      8  C   UNL     1       1.970  -5.861   0.229  0.00  0.00    +0.000 C 
ATOM      9  C   UNL     1       0.723  -5.702   1.065  0.00  0.00    +0.000 C 
ENDROOT
BRANCH   1  11
ATOM     10  N   UNL     1       2.169  -0.753   0.360  0.00  0.00    +0.000 NA
ATOM     11  C   UNL     1       0.795  -0.884  -0.001  0.00  0.00    +0.000 C 
ATOM     12  O   UNL     1       0.286   0.098  -0.535  0.00  0.00    +0.000 OA
BRANCH  10  16
ATOM     13  C   UNL     1       4.264   2.865  -0.412  0.00  0.00    +0.000 A 
ATOM     14  C   UNL     1       2.938   2.698  -0.761  0.00  0.00    +0.000 A 
ATOM     15  C   UNL     1       2.248   1.536  -0.519  0.00  0.00    +0.000 A 
ATOM     16  C   UNL     1       2.877   0.477   0.095  0.00  0.00    +0.000 A 
ATOM     17  C   UNL     1       4.195   0.613   0.453  0.00  0.00    +0.000 A 
ATOM     18  C   UNL     1       4.865   1.786   0.201  0.00  0.00    +0.000 A 
BRANCH  13  20
ATOM     19  C   UNL     1       4.412   5.152  -1.267  0.00  0.00    +0.000 C 
ATOM     20  O   UNL     1       4.981   4.026  -0.645  0.00  0.00    +0.000 OA
ENDBRANCH  13  20
ENDBRANCH  10  16
ENDBRANCH   1  11
BRANCH   2  21
ATOM     21  N   UNL     1      -2.393  -1.398  -0.201  0.00  0.00    +0.000 NA
ATOM     22  C   UNL     1      -2.844  -0.144  -0.134  0.00  0.00    +0.000 C 
ATOM     23  O   UNL     1      -2.124   0.767   0.306  0.00  0.00    +0.000 OA
BRANCH  22  24
ATOM     24  C   UNL     1      -4.231   0.298  -0.571  0.00  0.00    +0.000 C 
BRANCH  24  25
ATOM     25  C   UNL     1      -4.413   1.739  -0.369  0.00  0.00    +0.000 A 
ATOM     26  C   UNL     1      -4.920   2.123   0.868  0.00  0.00    +0.000 A 
ATOM     27  C   UNL     1      -5.130   3.447   1.164  0.00  0.00    +0.000 A 
ATOM     28  C   UNL     1      -4.838   4.421   0.233  0.00  0.00    +0.000 A 
ATOM     29  C   UNL     1      -4.337   4.028  -0.986  0.00  0.00    +0.000 A 
ATOM     30  C   UNL     1      -4.125   2.702  -1.287  0.00  0.00    +0.000 A 
ENDBRANCH  24  25
ENDBRANCH  22  24
ENDBRANCH   2  21
TORSDOF 6
