REMARK  Name = 
REMARK  7 active torsions:
REMARK  status: ('A' for Active; 'I' for Inactive)
REMARK    1  A    between atoms: O_2  and  C_3
REMARK    2  A    between atoms: C_8  and  N_9
REMARK    3  A    between atoms: C_10  and  C_12
REMARK    4  A    between atoms: C_13  and  N_14
REMARK    5  A    between atoms: C_15  and  C_17
REMARK    6  A    between atoms: C_17  and  O_18
REMARK    7  A    between atoms: O_18  and  C_19
REMARK                            x       y       z     vdW  Elec       q    Type
REMARK                         _______ _______ _______ _____ _____    ______ ____
ROOT
ATOM      1  C   UNL     1      -0.655  -0.435  -0.484  0.00  0.00    +0.000 A 
ATOM      2  C   UNL     1       0.718  -0.378  -0.455  0.00  0.00    +0.000 A 
ATOM      3  S   UNL     1       1.174  -2.012  -0.333  0.00  0.00    +0.000 S 
ATOM      4  C   UNL     1      -0.370  -2.734  -0.320  0.00  0.00    +0.000 A 
ATOM      5  C   UNL     1      -1.208  -1.657  -0.414  0.00  0.00    +0.000 A 
ATOM      6  C   UNL     1      -2.715  -1.863  -0.436  0.00  0.00    +0.000 C 
ATOM      7  C   UNL     1      -3.107  -2.383   0.936  0.00  0.00    +0.000 C 
ATOM      8  C   UNL     1      -1.953  -3.098   1.610  0.00  0.00    +0.000 C 
ATOM      9  C   UNL     1      -1.626  -4.411   0.923  0.00  0.00    +0.000 C 
ATOM     10  C   UNL     1      -0.666  -4.211  -0.226  0.00  0.00    +0.000 C 
ENDROOT
BRANCH   1  12
ATOM     11  N   UNL     1      -2.836   0.755  -0.617  0.00  0.00    +0.000 NA
ATOM     12  C   UNL     1      -1.437   0.813  -0.588  0.00  0.00    +0.000 C 
ATOM     13  O   UNL     1      -0.872   1.919  -0.650  0.00  0.00    +0.000 OA
BRANCH  11  19
ATOM     14  C   UNL     1      -5.051   1.685  -0.734  0.00  0.00    +0.000 A 
ATOM     15  C   UNL     1      -5.915   2.779  -0.829  0.00  0.00    +0.000 A 
ATOM     16  C   UNL     1      -5.389   4.050  -0.903  0.00  0.00    +0.000 A 
ATOM     17  C   UNL     1      -4.032   4.260  -0.886  0.00  0.00    +0.000 A 
ATOM     18  C   UNL     1      -3.194   3.146  -0.789  0.00  0.00    +0.000 A 
ATOM     19  C   UNL     1      -3.695   1.872  -0.714  0.00  0.00    +0.000 A 
BRANCH  14  21
ATOM     20  C   UNL     1      -6.983   0.206  -0.678  0.00  0.00    +0.000 C 
ATOM     21  O   UNL     1      -5.603   0.404  -0.659  0.00  0.00    +0.000 OA
ENDBRANCH  14  21
ENDBRANCH  11  19
ENDBRANCH   1  12
BRANCH   2  22
ATOM     22  N   UNL     1       1.571   0.764  -0.513  0.00  0.00    +0.000 NA
ATOM     23  C   UNL     1       2.996   0.562  -0.465  0.00  0.00    +0.000 C 
ATOM     24  O   UNL     1       3.398  -0.625  -0.375  0.00  0.00    +0.000 OA
BRANCH  23  25
ATOM     25  C   UNL     1       3.958   1.663  -0.518  0.00  0.00    +0.000 C 
BRANCH  25  26
ATOM     26  O   UNL     1       5.267   1.141  -0.449  0.00  0.00    +0.000 OA
BRANCH  26  27
ATOM     27  C   UNL     1       5.764   0.396   0.593  0.00  0.00    +0.000 A 
ATOM     28  C   UNL     1       7.079  -0.035   0.487  0.00  0.00    +0.000 A 
ATOM     29  C   UNL     1       7.689  -0.789   1.467  0.00  0.00    +0.000 A 
ATOM     30  C   UNL     1       6.969  -1.127   2.593  0.00  0.00    +0.000 A 
ATOM     31  C   UNL     1       5.663  -0.704   2.707  0.00  0.00    +0.000 A 
ATOM     32  C   UNL     1       5.064   0.048   1.721  0.00  0.00    +0.000 A 
ENDBRANCH  26  27
ENDBRANCH  25  26
ENDBRANCH  23  25
ENDBRANCH   2  22
TORSDOF 7
