REMARK  Name = 
REMARK  8 active torsions:
REMARK  status: ('A' for Active; 'I' for Inactive)
REMARK    1  A    between atoms: C_2  and  C_4
REMARK    2  A    between atoms: C_9  and  N_10
REMARK    3  A    between atoms: C_11  and  C_13
REMARK    4  A    between atoms: C_13  and  O_14
REMARK    5  A    between atoms: O_14  and  C_15
REMARK    6  A    between atoms: C_15  and  C_17
REMARK    7  A    between atoms: C_17  and  C_18
REMARK    8  A    between atoms: C_21  and  C_22
REMARK                            x       y       z     vdW  Elec       q    Type
REMARK                         _______ _______ _______ _____ _____    ______ ____
ROOT
ATOM      1  C   UNL     1       0.132  -0.716  -2.281  0.00  0.00    +0.000 C 
ATOM      2  O   UNL     1       0.114   0.152  -1.395  0.00  0.00    +0.000 OA
ENDROOT
BRANCH   1   3
ATOM      3  O   UNL     1      -1.011  -0.967  -3.009  0.00  0.00    +0.000 OA
BRANCH   3   4
ATOM      4  C   UNL     1      -2.181  -0.241  -2.744  0.00  0.00    +0.000 C 
BRANCH   4   6
ATOM      5  N   UNL     1      -3.831   0.229  -0.873  0.00  0.00    +0.000 NA
ATOM      6  C   UNL     1      -2.664  -0.409  -1.362  0.00  0.00    +0.000 C 
ATOM      7  O   UNL     1      -2.022  -1.143  -0.581  0.00  0.00    +0.000 OA
BRANCH   5  13
ATOM      8  C   UNL     1      -5.436   0.716   0.853  0.00  0.00    +0.000 A 
ATOM      9  C   UNL     1      -5.922   0.590   2.138  0.00  0.00    +0.000 A 
ATOM     10  C   UNL     1      -5.284  -0.192   3.087  0.00  0.00    +0.000 A 
ATOM     11  C   UNL     1      -4.131  -0.848   2.697  0.00  0.00    +0.000 A 
ATOM     12  C   UNL     1      -3.655  -0.715   1.410  0.00  0.00    +0.000 A 
ATOM     13  C   UNL     1      -4.281   0.058   0.463  0.00  0.00    +0.000 A 
BRANCH   8  15
ATOM     14  C   UNL     1      -7.421   2.165   0.519  0.00  0.00    +0.000 C 
ATOM     15  C   UNL     1      -6.193   1.580  -0.100  0.00  0.00    +0.000 C 
ATOM     16  C   UNL     1      -6.434   0.885  -1.410  0.00  0.00    +0.000 C 
ENDBRANCH   8  15
ENDBRANCH   5  13
ENDBRANCH   4   6
ENDBRANCH   3   4
ENDBRANCH   1   3
BRANCH   1  17
ATOM     17  C   UNL     1       1.389  -1.462  -2.533  0.00  0.00    +0.000 C 
BRANCH  17  18
ATOM     18  C   UNL     1       2.436  -0.998  -1.605  0.00  0.00    +0.000 A 
ATOM     19  C   UNL     1       2.598  -1.665  -0.402  0.00  0.00    +0.000 A 
ATOM     20  C   UNL     1       3.579  -1.223   0.463  0.00  0.00    +0.000 A 
ATOM     21  C   UNL     1       4.401  -0.162   0.195  0.00  0.00    +0.000 A 
ATOM     22  C   UNL     1       4.225   0.488  -1.005  0.00  0.00    +0.000 A 
ATOM     23  C   UNL     1       3.254   0.079  -1.901  0.00  0.00    +0.000 A 
BRANCH  21  24
ATOM     24  C   UNL     1       5.427   0.248   1.174  0.00  0.00    +0.000 A 
ATOM     25  C   UNL     1       6.043  -0.676   1.990  0.00  0.00    +0.000 A 
ATOM     26  C   UNL     1       7.006  -0.304   2.916  0.00  0.00    +0.000 A 
ATOM     27  C   UNL     1       7.356   1.022   3.023  0.00  0.00    +0.000 A 
ATOM     28  C   UNL     1       6.731   1.941   2.200  0.00  0.00    +0.000 A 
ATOM     29  C   UNL     1       5.776   1.570   1.281  0.00  0.00    +0.000 A 
ENDBRANCH  21  24
ENDBRANCH  17  18
ENDBRANCH   1  17
TORSDOF 8
