REMARK  Name = 
REMARK  7 active torsions:
REMARK  status: ('A' for Active; 'I' for Inactive)
REMARK    1  A    between atoms: O_2  and  C_3
REMARK    2  A    between atoms: C_6  and  C_7
REMARK    3  A    between atoms: C_9  and  C_10
REMARK    4  A    between atoms: N_12  and  C_13
REMARK    5  A    between atoms: C_13  and  C_14
REMARK    6  A    between atoms: C_14  and  C_15
REMARK    7  A    between atoms: C_23  and  C_24
REMARK                            x       y       z     vdW  Elec       q    Type
REMARK                         _______ _______ _______ _____ _____    ______ ____
ROOT
ATOM      1  C   UNL     1      -2.092  -0.814   0.652  0.00  0.00    +0.000 A 
ATOM      2  C   UNL     1      -0.928  -0.328   1.245  0.00  0.00    +0.000 A 
ATOM      3  C   UNL     1      -0.094   0.538   0.572  0.00  0.00    +0.000 A 
ATOM      4  C   UNL     1      -0.384   0.955  -0.710  0.00  0.00    +0.000 A 
ATOM      5  C   UNL     1       0.406   1.816  -1.433  0.00  0.00    +0.000 A 
ATOM      6  C   UNL     1       0.075   2.210  -2.724  0.00  0.00    +0.000 A 
ATOM      7  C   UNL     1      -1.094   1.688  -3.243  0.00  0.00    +0.000 A 
ATOM      8  C   UNL     1      -1.916   0.828  -2.568  0.00  0.00    +0.000 A 
ATOM      9  C   UNL     1      -1.553   0.455  -1.278  0.00  0.00    +0.000 A 
ATOM     10  N   UNL     1      -2.345  -0.389  -0.593  0.00  0.00    +0.000 NA
ENDROOT
BRANCH   1  14
ATOM     11  C   UNL     1      -4.720  -3.483   2.642  0.00  0.00    +0.000 A 
ATOM     12  C   UNL     1      -4.998  -3.061   1.366  0.00  0.00    +0.000 A 
ATOM     13  C   UNL     1      -4.116  -2.184   0.738  0.00  0.00    +0.000 A 
ATOM     14  C   UNL     1      -2.977  -1.732   1.365  0.00  0.00    +0.000 A 
ATOM     15  C   UNL     1      -2.702  -2.154   2.636  0.00  0.00    +0.000 A 
ATOM     16  C   UNL     1      -3.589  -3.033   3.262  0.00  0.00    +0.000 A 
BRANCH  11  18
ATOM     17  C   UNL     1      -6.757  -4.826   2.652  0.00  0.00    +0.000 C 
ATOM     18  O   UNL     1      -5.598  -4.363   3.281  0.00  0.00    +0.000 OA
ENDBRANCH  11  18
ENDBRANCH   1  14
BRANCH   3  19
ATOM     19  C   UNL     1       1.137   1.047   1.206  0.00  0.00    +0.000 C 
ATOM     20  O   UNL     1       1.460   0.707   2.373  0.00  0.00    +0.000 OA
ATOM     21  N   UNL     1       2.005   1.941   0.524  0.00  0.00    +0.000 NA
BRANCH  21  22
ATOM     22  C   UNL     1       3.214   2.479   1.064  0.00  0.00    +0.000 C 
BRANCH  22  23
ATOM     23  C   UNL     1       4.235   1.457   1.443  0.00  0.00    +0.000 C 
BRANCH  23  24
ATOM     24  C   UNL     1       4.682   0.614   0.316  0.00  0.00    +0.000 A 
ATOM     25  C   UNL     1       5.771   1.034  -0.432  0.00  0.00    +0.000 A 
ATOM     26  C   UNL     1       6.175   0.242  -1.474  0.00  0.00    +0.000 A 
ATOM     27  C   UNL     1       5.500  -0.931  -1.747  0.00  0.00    +0.000 A 
ATOM     28  C   UNL     1       4.418  -1.339  -0.994  0.00  0.00    +0.000 A 
ATOM     29  C   UNL     1       4.003  -0.557   0.050  0.00  0.00    +0.000 A 
ENDBRANCH  23  24
ENDBRANCH  22  23
ENDBRANCH  21  22
ENDBRANCH   3  19
BRANCH   6  30
ATOM     30  C   UNL     1       0.922   3.142  -3.514  0.00  0.00    +0.000 C 
ATOM     31  C   UNL     1       1.821   3.869  -2.506  0.00  0.00    +0.000 C 
ATOM     32  C   UNL     1       0.037   4.171  -4.170  0.00  0.00    +0.000 C 
ENDBRANCH   6  30
TORSDOF 7
