REMARK  Name = 
REMARK  7 active torsions:
REMARK  status: ('A' for Active; 'I' for Inactive)
REMARK    1  A    between atoms: C_5  and  N_6
REMARK    2  A    between atoms: C_7  and  C_8
REMARK    3  A    between atoms: C_8  and  C_9
REMARK    4  A    between atoms: C_17  and  S_18
REMARK    5  A    between atoms: S_18  and  C_19
REMARK    6  A    between atoms: C_19  and  C_20
REMARK    7  A    between atoms: N_22  and  C_23
REMARK                            x       y       z     vdW  Elec       q    Type
REMARK                         _______ _______ _______ _____ _____    ______ ____
ROOT
ATOM      1  N   UNL     1      -1.145   0.121   0.099  0.00  0.00    +0.000 N 
ATOM      2  C   UNL     1      -1.251  -1.096   0.660  0.00  0.00    +0.000 A 
ATOM      3  N   UNL     1      -0.195  -1.823   0.262  0.00  0.00    +0.000 NA
ATOM      4  N   UNL     1       0.571  -1.096  -0.534  0.00  0.00    +0.000 NA
ATOM      5  C   UNL     1      -0.019   0.110  -0.634  0.00  0.00    +0.000 A 
ENDROOT
BRANCH   1  10
ATOM      6  C   UNL     1      -4.788   4.522   0.695  0.00  0.00    +0.000 C 
ATOM      7  C   UNL     1      -3.828   3.381   0.561  0.00  0.00    +0.000 A 
ATOM      8  C   UNL     1      -2.861   3.141   1.513  0.00  0.00    +0.000 A 
ATOM      9  C   UNL     1      -2.008   2.075   1.331  0.00  0.00    +0.000 A 
ATOM     10  C   UNL     1      -2.053   1.218   0.249  0.00  0.00    +0.000 A 
ATOM     11  C   UNL     1      -3.037   1.483  -0.697  0.00  0.00    +0.000 A 
ATOM     12  C   UNL     1      -3.903   2.553  -0.529  0.00  0.00    +0.000 A 
ENDBRANCH   1  10
BRANCH   2  13
ATOM     13  C   UNL     1      -2.309  -1.610   1.562  0.00  0.00    +0.000 C 
BRANCH  13  14
ATOM     14  C   UNL     1      -3.428  -2.233   0.783  0.00  0.00    +0.000 A 
ATOM     15  C   UNL     1      -3.428  -3.559   0.448  0.00  0.00    +0.000 A 
ATOM     16  C   UNL     1      -4.478  -4.076  -0.266  0.00  0.00    +0.000 A 
ATOM     17  C   UNL     1      -5.548  -3.295  -0.664  0.00  0.00    +0.000 A 
ATOM     18  C   UNL     1      -5.516  -1.950  -0.307  0.00  0.00    +0.000 A 
ATOM     19  C   UNL     1      -4.468  -1.434   0.406  0.00  0.00    +0.000 A 
ENDBRANCH  13  14
ENDBRANCH   2  13
BRANCH   5  20
ATOM     20  S   UNL     1       0.565   1.527  -1.587  0.00  0.00    +0.000 S 
BRANCH  20  21
ATOM     21  C   UNL     1       1.646   2.562  -0.548  0.00  0.00    +0.000 C 
BRANCH  21  22
ATOM     22  C   UNL     1       2.891   1.825  -0.211  0.00  0.00    +0.000 C 
ATOM     23  O   UNL     1       3.747   2.403   0.504  0.00  0.00    +0.000 OA
ATOM     24  N   UNL     1       3.156   0.500  -0.661  0.00  0.00    +0.000 NA
BRANCH  24  25
ATOM     25  C   UNL     1       4.359  -0.175  -0.320  0.00  0.00    +0.000 A 
ATOM     26  C   UNL     1       4.401  -0.942   0.841  0.00  0.00    +0.000 A 
ATOM     27  C   UNL     1       3.166  -1.012   1.665  0.00  0.00    +0.000 C 
ATOM     28  C   UNL     1       5.566  -1.583   1.155  0.00  0.00    +0.000 A 
ATOM     29  C   UNL     1       6.687  -1.494   0.367  0.00  0.00    +0.000 A 
ATOM     30  C   UNL     1       6.649  -0.737  -0.781  0.00  0.00    +0.000 A 
ATOM     31  C   UNL     1       5.473  -0.068  -1.131  0.00  0.00    +0.000 A 
ATOM     32  C   UNL     1       5.387   0.762  -2.362  0.00  0.00    +0.000 C 
ENDBRANCH  24  25
ENDBRANCH  21  22
ENDBRANCH  20  21
ENDBRANCH   5  20
TORSDOF 7
