REMARK  Name = 
REMARK  8 active torsions:
REMARK  status: ('A' for Active; 'I' for Inactive)
REMARK    1  A    between atoms: C_5  and  C_6
REMARK    2  A    between atoms: C_9  and  S_10
REMARK    3  A    between atoms: S_10  and  C_11
REMARK    4  A    between atoms: C_11  and  C_12
REMARK    5  A    between atoms: C_15  and  C_16
REMARK    6  A    between atoms: N_18  and  C_19
REMARK    7  A    between atoms: C_19  and  C_20
REMARK    8  A    between atoms: C_20  and  C_21
REMARK                            x       y       z     vdW  Elec       q    Type
REMARK                         _______ _______ _______ _____ _____    ______ ____
ROOT
ATOM      1  C   UNL     1       0.607  -0.693  -3.783  0.00  0.00    +0.000 C 
ENDROOT
BRANCH   1   2
ATOM      2  C   UNL     1       1.417  -0.516  -2.556  0.00  0.00    +0.000 A 
ATOM      3  C   UNL     1       1.014  -1.135  -1.397  0.00  0.00    +0.000 A 
ATOM      4  C   UNL     1       1.770  -0.967  -0.266  0.00  0.00    +0.000 A 
ATOM      5  C   UNL     1       2.902  -0.208  -0.261  0.00  0.00    +0.000 A 
ATOM      6  C   UNL     1       3.310   0.416  -1.425  0.00  0.00    +0.000 A 
ATOM      7  C   UNL     1       2.547   0.242  -2.552  0.00  0.00    +0.000 A 
BRANCH   5   8
ATOM      8  C   UNL     1       3.692  -0.045   0.956  0.00  0.00    +0.000 C 
ATOM      9  O   UNL     1       3.366  -0.601   2.027  0.00  0.00    +0.000 OA
ATOM     10  N   UNL     1       4.853   0.751   0.949  0.00  0.00    +0.000 NA
BRANCH  10  11
ATOM     11  C   UNL     1       5.719   0.999   2.058  0.00  0.00    +0.000 C 
BRANCH  11  12
ATOM     12  C   UNL     1       6.334  -0.273   2.614  0.00  0.00    +0.000 C 
BRANCH  12  13
ATOM     13  C   UNL     1       7.145  -0.957   1.534  0.00  0.00    +0.000 C 
ATOM     14  C   UNL     1       7.763  -2.218   2.063  0.00  0.00    +0.000 C 
ATOM     15  C   UNL     1       6.234  -1.296   0.389  0.00  0.00    +0.000 C 
ENDBRANCH  12  13
ENDBRANCH  11  12
ENDBRANCH  10  11
ENDBRANCH   5   8
ENDBRANCH   1   2
BRANCH   1  16
ATOM     16  S   UNL     1      -0.662   0.591  -3.914  0.00  0.00    +0.000 S 
BRANCH  16  20
ATOM     17  C   UNL     1      -3.711   0.116  -0.569  0.00  0.00    +0.000 A 
ATOM     18  C   UNL     1      -3.869   1.135  -1.468  0.00  0.00    +0.000 A 
ATOM     19  C   UNL     1      -2.945   1.286  -2.487  0.00  0.00    +0.000 A 
ATOM     20  C   UNL     1      -1.877   0.424  -2.603  0.00  0.00    +0.000 A 
ATOM     21  N   UNL     1      -1.771  -0.559  -1.693  0.00  0.00    +0.000 NA
ATOM     22  N   UNL     1      -2.655  -0.698  -0.722  0.00  0.00    +0.000 NA
BRANCH  17  27
ATOM     23  C   UNL     1      -7.524  -0.592   3.717  0.00  0.00    +0.000 C 
ATOM     24  C   UNL     1      -6.539  -0.416   2.616  0.00  0.00    +0.000 A 
ATOM     25  C   UNL     1      -6.676   0.606   1.693  0.00  0.00    +0.000 A 
ATOM     26  C   UNL     1      -5.763   0.779   0.663  0.00  0.00    +0.000 A 
ATOM     27  C   UNL     1      -4.679  -0.059   0.514  0.00  0.00    +0.000 A 
ATOM     28  C   UNL     1      -4.550  -1.076   1.438  0.00  0.00    +0.000 A 
ATOM     29  C   UNL     1      -5.454  -1.254   2.465  0.00  0.00    +0.000 A 
ENDBRANCH  17  27
ENDBRANCH  16  20
ENDBRANCH   1  16
TORSDOF 8
