REMARK  Name = 
REMARK  6 active torsions:
REMARK  status: ('A' for Active; 'I' for Inactive)
REMARK    1  A    between atoms: C_2  and  C_3
REMARK    2  A    between atoms: C_3  and  C_4
REMARK    3  A    between atoms: C_4  and  C_5
REMARK    4  A    between atoms: C_5  and  C_6
REMARK    5  A    between atoms: C_6  and  C_7
REMARK    6  A    between atoms: C_11  and  C_12
REMARK                            x       y       z     vdW  Elec       q    Type
REMARK                         _______ _______ _______ _____ _____    ______ ____
ROOT
ATOM      1  C   UNL     1       3.549   0.714   0.307  0.00  0.00    +0.000 A 
ATOM      2  C   UNL     1       2.533   0.429  -0.579  0.00  0.00    +0.000 A 
ATOM      3  C   UNL     1       1.199   0.410  -0.157  0.00  0.00    +0.000 A 
ATOM      4  C   UNL     1       0.176   0.126  -1.040  0.00  0.00    +0.000 A 
ATOM      5  C   UNL     1      -1.132   0.111  -0.610  0.00  0.00    +0.000 A 
ATOM      6  C   UNL     1      -1.398   0.387   0.726  0.00  0.00    +0.000 A 
ATOM      7  N   UNL     1      -2.582   0.434   1.379  0.00  0.00    +0.000 NA
ATOM      8  C   UNL     1      -2.373   0.743   2.680  0.00  0.00    +0.000 A 
ATOM      9  C   UNL     1      -3.217   0.917   3.773  0.00  0.00    +0.000 A 
ATOM     10  C   UNL     1      -2.702   1.236   5.003  0.00  0.00    +0.000 A 
ATOM     11  C   UNL     1      -1.350   1.379   5.135  0.00  0.00    +0.000 A 
ATOM     12  C   UNL     1      -0.508   1.205   4.038  0.00  0.00    +0.000 A 
ATOM     13  C   UNL     1      -1.006   0.883   2.793  0.00  0.00    +0.000 A 
ATOM     14  N   UNL     1      -0.418   0.666   1.602  0.00  0.00    +0.000 N 
ATOM     15  C   UNL     1       0.853   0.673   1.150  0.00  0.00    +0.000 A 
ATOM     16  C   UNL     1       1.872   0.959   2.039  0.00  0.00    +0.000 A 
ATOM     17  C   UNL     1       3.185   0.976   1.615  0.00  0.00    +0.000 A 
ATOM     18  O   UNL     1       4.233   1.264   2.504  0.00  0.00    +0.000 OA
ENDROOT
BRANCH   5  19
ATOM     19  C   UNL     1      -2.244  -0.187  -1.520  0.00  0.00    +0.000 A 
ATOM     20  N   UNL     1      -3.540  -0.215  -1.181  0.00  0.00    +0.000 NA
ATOM     21  C   UNL     1      -4.304  -0.518  -2.243  0.00  0.00    +0.000 A 
ATOM     22  C   UNL     1      -5.652  -0.682  -2.480  0.00  0.00    +0.000 A 
ATOM     23  C   UNL     1      -6.147  -1.004  -3.722  0.00  0.00    +0.000 A 
ATOM     24  C   UNL     1      -5.283  -1.173  -4.773  0.00  0.00    +0.000 A 
ATOM     25  C   UNL     1      -3.939  -1.016  -4.558  0.00  0.00    +0.000 A 
ATOM     26  C   UNL     1      -3.443  -0.695  -3.325  0.00  0.00    +0.000 A 
ATOM     27  N   UNL     1      -2.192  -0.480  -2.827  0.00  0.00    +0.000 NA
ENDBRANCH   5  19
BRANCH   1  28
ATOM     28  C   UNL     1       4.981   0.749  -0.096  0.00  0.00    +0.000 C 
BRANCH  28  29
ATOM     29  C   UNL     1       5.769  -0.440   0.327  0.00  0.00    +0.000 C 
BRANCH  29  30
ATOM     30  C   UNL     1       5.258  -1.752  -0.236  0.00  0.00    +0.000 C 
BRANCH  30  31
ATOM     31  C   UNL     1       5.336  -1.612  -1.750  0.00  0.00    +0.000 C 
BRANCH  31  33
ATOM     32  C   UNL     1       7.710  -2.457  -1.791  0.00  0.00    +0.000 C 
ATOM     33  C   UNL     1       6.777  -1.356  -2.184  0.00  0.00    +0.000 C 
ENDBRANCH  31  33
ENDBRANCH  30  31
ENDBRANCH  29  30
ENDBRANCH  28  29
ENDBRANCH   1  28
TORSDOF 6
