REMARK  Name = 
REMARK  9 active torsions:
REMARK  status: ('A' for Active; 'I' for Inactive)
REMARK    1  A    between atoms: O_2  and  C_3
REMARK    2  A    between atoms: C_6  and  S_7
REMARK    3  A    between atoms: S_7  and  N_10
REMARK    4  A    between atoms: N_10  and  C_11
REMARK    5  A    between atoms: C_11  and  C_12
REMARK    6  A    between atoms: C_12  and  C_13
REMARK    7  A    between atoms: C_13  and  C_14
REMARK    8  A    between atoms: N_16  and  C_17
REMARK    9  A    between atoms: C_17  and  C_18
REMARK                            x       y       z     vdW  Elec       q    Type
REMARK                         _______ _______ _______ _____ _____    ______ ____
ROOT
ATOM      1  C   UNL     1      -1.676   0.293   0.168  0.00  0.00    +0.000 A 
ATOM      2  C   UNL     1      -2.404  -0.264  -0.877  0.00  0.00    +0.000 A 
ATOM      3  N   UNL     1      -3.495   0.498  -1.067  0.00  0.00    +0.000 N 
ATOM      4  C   UNL     1      -3.531   1.529  -0.207  0.00  0.00    +0.000 A 
ATOM      5  C   UNL     1      -4.425   2.579   0.005  0.00  0.00    +0.000 A 
ATOM      6  C   UNL     1      -4.179   3.509   0.997  0.00  0.00    +0.000 A 
ATOM      7  C   UNL     1      -3.039   3.343   1.740  0.00  0.00    +0.000 A 
ATOM      8  C   UNL     1      -2.137   2.316   1.555  0.00  0.00    +0.000 A 
ATOM      9  C   UNL     1      -2.386   1.390   0.563  0.00  0.00    +0.000 A 
ENDROOT
BRANCH   1  10
ATOM     10  C   UNL     1      -0.402  -0.279   0.662  0.00  0.00    +0.000 C 
BRANCH  10  11
ATOM     11  C   UNL     1       0.730   0.580   0.140  0.00  0.00    +0.000 C 
BRANCH  11  12
ATOM     12  C   UNL     1       2.078   0.072   0.590  0.00  0.00    +0.000 C 
BRANCH  12  13
ATOM     13  N   UNL     1       2.322  -1.281   0.127  0.00  0.00    +0.000 NA
BRANCH  13  14
ATOM     14  S   UNL     1       3.835  -1.884   0.616  0.00  0.00    +0.000 S 
ATOM     15  O   UNL     1       3.897  -1.828   2.121  0.00  0.00    +0.000 OA
ATOM     16  O   UNL     1       3.919  -3.322   0.137  0.00  0.00    +0.000 OA
BRANCH  14  20
ATOM     17  C   UNL     1       7.360   0.517  -0.942  0.00  0.00    +0.000 A 
ATOM     18  C   UNL     1       6.748   0.814   0.277  0.00  0.00    +0.000 A 
ATOM     19  C   UNL     1       5.673   0.069   0.735  0.00  0.00    +0.000 A 
ATOM     20  C   UNL     1       5.182  -0.978   0.005  0.00  0.00    +0.000 A 
ATOM     21  C   UNL     1       5.763  -1.293  -1.196  0.00  0.00    +0.000 A 
ATOM     22  C   UNL     1       6.850  -0.537  -1.654  0.00  0.00    +0.000 A 
BRANCH  17  24
ATOM     23  C   UNL     1       9.110   1.082  -2.549  0.00  0.00    +0.000 C 
ATOM     24  O   UNL     1       8.429   1.303  -1.339  0.00  0.00    +0.000 OA
ENDBRANCH  17  24
ENDBRANCH  14  20
ENDBRANCH  13  14
ENDBRANCH  12  13
ENDBRANCH  11  12
ENDBRANCH  10  11
ENDBRANCH   1  10
BRANCH   3  25
ATOM     25  C   UNL     1      -4.487   0.234  -2.068  0.00  0.00    +0.000 C 
BRANCH  25  26
ATOM     26  C   UNL     1      -5.566  -0.638  -1.546  0.00  0.00    +0.000 A 
ATOM     27  C   UNL     1      -6.690  -0.043  -0.960  0.00  0.00    +0.000 A 
ATOM     28  C   UNL     1      -7.729  -0.806  -0.456  0.00  0.00    +0.000 A 
ATOM     29  C   UNL     1      -7.637  -2.164  -0.540  0.00  0.00    +0.000 A 
ATOM     30  C   UNL     1      -6.570  -2.804  -1.099  0.00  0.00    +0.000 A 
ATOM     31  C   UNL     1      -5.544  -2.010  -1.596  0.00  0.00    +0.000 A 
ENDBRANCH  25  26
ENDBRANCH   3  25
TORSDOF 9
