REMARK  Name = 
REMARK  6 active torsions:
REMARK  status: ('A' for Active; 'I' for Inactive)
REMARK    1  A    between atoms: C_2  and  C_19
REMARK    2  A    between atoms: N_3  and  C_4
REMARK    3  A    between atoms: C_7  and  C_8
REMARK    4  A    between atoms: N_25  and  C_26
REMARK    5  A    between atoms: C_26  and  C_27
REMARK    6  A    between atoms: C_27  and  N_28
REMARK                            x       y       z     vdW  Elec       q    Type
REMARK                         _______ _______ _______ _____ _____    ______ ____
ROOT
ATOM      1  O   UNL     1       1.697  -0.795   0.325  0.00  0.00    +0.000 OA
ATOM      2  C   UNL     1       2.006  -1.131  -0.843  0.00  0.00    +0.000 C 
ATOM      3  N   UNL     1       0.953  -1.140  -1.809  0.00  0.00    +0.000 NA
ENDROOT
BRANCH   2   4
ATOM      4  C   UNL     1       3.369  -1.488  -1.165  0.00  0.00    +0.000 A 
ATOM      5  C   UNL     1       3.762  -1.860  -2.431  0.00  0.00    +0.000 A 
ATOM      6  C   UNL     1       5.077  -2.187  -2.675  0.00  0.00    +0.000 A 
ATOM      7  C   UNL     1       6.009  -2.147  -1.666  0.00  0.00    +0.000 A 
ATOM      8  N   UNL     1       5.622  -1.786  -0.440  0.00  0.00    +0.000 NA
ATOM      9  C   UNL     1       4.333  -1.461  -0.182  0.00  0.00    +0.000 A 
ATOM     10  N   UNL     1       3.922  -1.079   1.122  0.00  0.00    +0.000 NA
BRANCH  10  11
ATOM     11  C   UNL     1       4.923  -1.047   2.167  0.00  0.00    +0.000 C 
BRANCH  11  12
ATOM     12  C   UNL     1       5.983  -0.050   1.752  0.00  0.00    +0.000 C 
BRANCH  12  13
ATOM     13  N   UNL     1       5.416   1.258   1.583  0.00  0.00    +0.000 NA
ATOM     14  C   UNL     1       4.520   1.392   0.476  0.00  0.00    +0.000 C 
ATOM     15  C   UNL     1       3.463   2.400   0.878  0.00  0.00    +0.000 C 
ATOM     16  C   UNL     1       3.647   2.630   2.361  0.00  0.00    +0.000 C 
ATOM     17  C   UNL     1       4.696   1.628   2.779  0.00  0.00    +0.000 C 
ENDBRANCH  12  13
ENDBRANCH  11  12
ENDBRANCH  10  11
ENDBRANCH   2   4
BRANCH   3  18
ATOM     18  C   UNL     1      -0.379  -0.770  -1.410  0.00  0.00    +0.000 A 
ATOM     19  C   UNL     1      -0.612  -0.400  -0.105  0.00  0.00    +0.000 A 
ATOM     20  C   UNL     1      -1.894  -0.034   0.326  0.00  0.00    +0.000 A 
ATOM     21  C   UNL     1      -2.932  -0.048  -0.576  0.00  0.00    +0.000 A 
ATOM     22  C   UNL     1      -2.698  -0.420  -1.881  0.00  0.00    +0.000 A 
ATOM     23  C   UNL     1      -1.421  -0.783  -2.307  0.00  0.00    +0.000 A 
BRANCH  21  24
ATOM     24  C   UNL     1      -4.304   0.327  -0.186  0.00  0.00    +0.000 A 
ATOM     25  C   UNL     1      -4.758   0.730   1.029  0.00  0.00    +0.000 A 
ATOM     26  C   UNL     1      -6.057   1.026   1.159  0.00  0.00    +0.000 A 
ATOM     27  C   UNL     1      -6.698   1.458   2.339  0.00  0.00    +0.000 A 
ATOM     28  C   UNL     1      -8.028   1.719   2.305  0.00  0.00    +0.000 A 
ATOM     29  C   UNL     1      -8.842   1.607   1.223  0.00  0.00    +0.000 A 
ATOM     30  C   UNL     1      -8.219   1.179   0.045  0.00  0.00    +0.000 A 
ATOM     31  C   UNL     1      -6.842   0.899   0.045  0.00  0.00    +0.000 A 
ATOM     32  S   UNL     1      -5.716   0.369  -1.137  0.00  0.00    +0.000 S 
ENDBRANCH  21  24
ENDBRANCH   3  18
TORSDOF 6
