REMARK  Name = 
REMARK  7 active torsions:
REMARK  status: ('A' for Active; 'I' for Inactive)
REMARK    1  A    between atoms: C_2  and  C_3
REMARK    2  A    between atoms: C_3  and  C_5
REMARK    3  A    between atoms: C_5  and  O_6
REMARK    4  A    between atoms: O_6  and  C_7
REMARK    5  A    between atoms: C_7  and  C_9
REMARK    6  A    between atoms: N_12  and  C_13
REMARK    7  A    between atoms: C_13  and  C_15
REMARK                            x       y       z     vdW  Elec       q    Type
REMARK                         _______ _______ _______ _____ _____    ______ ____
ROOT
ATOM      1  C   UNL     1       0.647  -0.044  -0.697  0.00  0.00    +0.000 A 
ATOM      2  C   UNL     1      -0.425   0.154  -1.563  0.00  0.00    +0.000 A 
ATOM      3  N   UNL     1      -0.424  -0.070  -2.986  0.00  0.00    +0.000 NA
ATOM      4  N   UNL     1      -1.411   0.587  -0.787  0.00  0.00    +0.000 N 
ATOM      5  C   UNL     1      -1.047   0.677   0.498  0.00  0.00    +0.000 A 
ATOM      6  N   UNL     1      -1.655   1.052   1.653  0.00  0.00    +0.000 NA
ATOM      7  C   UNL     1      -1.040   1.050   2.846  0.00  0.00    +0.000 A 
ATOM      8  C   UNL     1      -1.691   1.439   4.009  0.00  0.00    +0.000 A 
ATOM      9  C   UNL     1      -1.072   1.440   5.236  0.00  0.00    +0.000 A 
ATOM     10  C   UNL     1       0.254   1.037   5.313  0.00  0.00    +0.000 A 
ATOM     11  C   UNL     1       0.908   0.646   4.147  0.00  0.00    +0.000 A 
ATOM     12  C   UNL     1       0.276   0.649   2.921  0.00  0.00    +0.000 A 
ATOM     13  N   UNL     1       0.906   0.269   1.777  0.00  0.00    +0.000 NA
ATOM     14  C   UNL     1       0.277   0.277   0.588  0.00  0.00    +0.000 A 
ENDROOT
BRANCH   1  15
ATOM     15  C   UNL     1       1.990  -0.534  -1.127  0.00  0.00    +0.000 C 
ATOM     16  O   UNL     1       2.192  -0.789  -2.330  0.00  0.00    +0.000 OA
BRANCH  15  17
ATOM     17  O   UNL     1       3.005  -0.710  -0.238  0.00  0.00    +0.000 OA
BRANCH  17  18
ATOM     18  C   UNL     1       4.236  -1.097  -0.344  0.00  0.00    +0.000 C 
BRANCH  18  19
ATOM     19  C   UNL     1       5.349  -0.216  -1.067  0.00  0.00    +0.000 C 
ATOM     20  C   UNL     1       4.393   0.484  -2.177  0.00  0.00    +0.000 C 
BRANCH  19  22
ATOM     21  C   UNL     1       6.105   0.674   1.135  0.00  0.00    +0.000 C 
ATOM     22  C   UNL     1       5.243   1.108  -0.048  0.00  0.00    +0.000 C 
ENDBRANCH  19  22
ENDBRANCH  18  19
ENDBRANCH  17  18
ENDBRANCH  15  17
ENDBRANCH   1  15
BRANCH   4  23
ATOM     23  C   UNL     1      -2.844   0.951  -1.277  0.00  0.00    +0.000 C 
ATOM     24  C   UNL     1      -2.410   1.568  -2.745  0.00  0.00    +0.000 C 
BRANCH  23  25
ATOM     25  C   UNL     1      -3.249  -0.508  -1.789  0.00  0.00    +0.000 A 
ATOM     26  C   UNL     1      -3.072  -0.939  -3.019  0.00  0.00    +0.000 A 
ATOM     27  C   UNL     1      -3.436  -2.196  -3.400  0.00  0.00    +0.000 A 
ATOM     28  C   UNL     1      -3.997  -3.027  -2.488  0.00  0.00    +0.000 A 
ATOM     29  C   UNL     1      -4.193  -2.607  -1.204  0.00  0.00    +0.000 A 
ATOM     30  C   UNL     1      -3.816  -1.327  -0.838  0.00  0.00    +0.000 A 
ENDBRANCH  23  25
ENDBRANCH   4  23
TORSDOF 7
