REMARK  Name = 
REMARK  7 active torsions:
REMARK  status: ('A' for Active; 'I' for Inactive)
REMARK    1  A    between atoms: C_2  and  O_3
REMARK    2  A    between atoms: O_3  and  C_4
REMARK    3  A    between atoms: C_9  and  N_10
REMARK    4  A    between atoms: N_10  and  C_11
REMARK    5  A    between atoms: C_12  and  S_13
REMARK    6  A    between atoms: S_13  and  C_14
REMARK    7  A    between atoms: N_22  and  C_23
REMARK                            x       y       z     vdW  Elec       q    Type
REMARK                         _______ _______ _______ _____ _____    ______ ____
ROOT
ATOM      1  C   UNL     1      -0.708   0.217  -0.168  0.00  0.00    +0.000 C 
ATOM      2  C   UNL     1       0.302  -0.676  -0.323  0.00  0.00    +0.000 C 
ATOM      3  C   UNL     1       1.528  -0.016   0.086  0.00  0.00    +0.000 C 
ATOM      4  O   UNL     1       2.713  -0.424   0.124  0.00  0.00    +0.000 OA
ATOM      5  N   UNL     1       1.246   1.341   0.508  0.00  0.00    +0.000 N 
ATOM      6  C   UNL     1      -0.152   1.465   0.341  0.00  0.00    +0.000 C 
ATOM      7  O   UNL     1      -0.859   2.483   0.584  0.00  0.00    +0.000 OA
ENDROOT
BRANCH   5   8
ATOM      8  C   UNL     1       2.147   2.325   0.981  0.00  0.00    +0.000 A 
ATOM      9  C   UNL     1       2.778   2.121   2.191  0.00  0.00    +0.000 A 
ATOM     10  C   UNL     1       3.674   3.059   2.691  0.00  0.00    +0.000 A 
ATOM     11  C   UNL     1       3.952   4.223   1.979  0.00  0.00    +0.000 A 
ATOM     12  C   UNL     1       3.328   4.430   0.774  0.00  0.00    +0.000 A 
ATOM     13  C   UNL     1       3.630   5.688   0.002  0.00  0.00    +0.000 C 
ATOM     14  C   UNL     1       2.448   3.488   0.305  0.00  0.00    +0.000 A 
ATOM     15  C   UNL     1       1.759   3.690  -1.004  0.00  0.00    +0.000 C 
ENDBRANCH   5   8
BRANCH   1  16
ATOM     16  N   UNL     1      -2.028  -0.114  -0.486  0.00  0.00    +0.000 NA
BRANCH  16  22
ATOM     17  C   UNL     1      -4.303  -0.764  -0.242  0.00  0.00    +0.000 A 
ATOM     18  C   UNL     1      -5.411  -1.117   0.488  0.00  0.00    +0.000 A 
ATOM     19  C   UNL     1      -5.298  -1.161   1.860  0.00  0.00    +0.000 A 
ATOM     20  C   UNL     1      -4.097  -0.856   2.445  0.00  0.00    +0.000 A 
ATOM     21  C   UNL     1      -2.996  -0.505   1.706  0.00  0.00    +0.000 A 
ATOM     22  C   UNL     1      -3.089  -0.455   0.340  0.00  0.00    +0.000 A 
BRANCH  17  23
ATOM     23  O   UNL     1      -4.414  -0.717  -1.644  0.00  0.00    +0.000 OA
BRANCH  23  25
ATOM     24  C   UNL     1      -6.763  -0.122  -1.879  0.00  0.00    +0.000 C 
ATOM     25  C   UNL     1      -5.625  -1.022  -2.287  0.00  0.00    +0.000 C 
ENDBRANCH  23  25
ENDBRANCH  17  23
ENDBRANCH  16  22
ENDBRANCH   1  16
BRANCH   2  26
ATOM     26  S   UNL     1       0.097  -2.327  -0.927  0.00  0.00    +0.000 S 
BRANCH  26  27
ATOM     27  C   UNL     1       1.599  -3.199  -1.166  0.00  0.00    +0.000 A 
ATOM     28  C   UNL     1       2.865  -2.768  -0.987  0.00  0.00    +0.000 A 
ATOM     29  C   UNL     1       3.965  -3.552  -1.210  0.00  0.00    +0.000 A 
ATOM     30  C   UNL     1       3.776  -4.863  -1.642  0.00  0.00    +0.000 A 
ATOM     31  C   UNL     1       2.498  -5.341  -1.837  0.00  0.00    +0.000 A 
ATOM     32  C   UNL     1       1.438  -4.532  -1.605  0.00  0.00    +0.000 A 
ENDBRANCH  26  27
ENDBRANCH   2  26
TORSDOF 7
