REMARK  Name = 
REMARK  8 active torsions:
REMARK  status: ('A' for Active; 'I' for Inactive)
REMARK    1  A    between atoms: O_2  and  C_3
REMARK    2  A    between atoms: C_6  and  C_7
REMARK    3  A    between atoms: C_10  and  S_11
REMARK    4  A    between atoms: S_11  and  C_12
REMARK    5  A    between atoms: C_12  and  C_13
REMARK    6  A    between atoms: C_17  and  C_18
REMARK    7  A    between atoms: N_20  and  C_21
REMARK    8  A    between atoms: C_21  and  C_22
REMARK                            x       y       z     vdW  Elec       q    Type
REMARK                         _______ _______ _______ _____ _____    ______ ____
ROOT
ATOM      1  S   UNL     1      -0.776  -2.584   1.762  0.00  0.00    +0.000 S 
ENDROOT
BRANCH   1   5
ATOM      2  C   UNL     1       3.170  -0.945   0.410  0.00  0.00    +0.000 A 
ATOM      3  C   UNL     1       2.807  -2.219   0.040  0.00  0.00    +0.000 A 
ATOM      4  C   UNL     1       1.608  -2.760   0.430  0.00  0.00    +0.000 A 
ATOM      5  C   UNL     1       0.784  -1.949   1.220  0.00  0.00    +0.000 A 
ATOM      6  N   UNL     1       1.196  -0.727   1.542  0.00  0.00    +0.000 NA
ATOM      7  N   UNL     1       2.340  -0.196   1.176  0.00  0.00    +0.000 NA
BRANCH   2  11
ATOM      8  C   UNL     1       6.843   0.622  -0.821  0.00  0.00    +0.000 A 
ATOM      9  C   UNL     1       6.510  -0.636  -1.209  0.00  0.00    +0.000 A 
ATOM     10  C   UNL     1       5.281  -1.153  -0.794  0.00  0.00    +0.000 A 
ATOM     11  C   UNL     1       4.445  -0.399  -0.017  0.00  0.00    +0.000 A 
ATOM     12  C   UNL     1       4.801   0.865   0.361  0.00  0.00    +0.000 A 
ATOM     13  C   UNL     1       6.014   1.401  -0.037  0.00  0.00    +0.000 A 
BRANCH   8  15
ATOM     14  C   UNL     1       8.996   0.564  -1.980  0.00  0.00    +0.000 C 
ATOM     15  O   UNL     1       8.059   1.232  -1.188  0.00  0.00    +0.000 OA
ENDBRANCH   8  15
ENDBRANCH   2  11
ENDBRANCH   1   5
BRANCH   1  16
ATOM     16  C   UNL     1      -1.621  -1.315   2.733  0.00  0.00    +0.000 C 
BRANCH  16  17
ATOM     17  C   UNL     1      -1.965  -0.193   1.796  0.00  0.00    +0.000 A 
ATOM     18  C   UNL     1      -1.090   0.852   1.614  0.00  0.00    +0.000 A 
ATOM     19  C   UNL     1      -1.416   1.857   0.762  0.00  0.00    +0.000 A 
ATOM     20  C   UNL     1      -2.620   1.852   0.069  0.00  0.00    +0.000 A 
ATOM     21  C   UNL     1      -3.513   0.814   0.236  0.00  0.00    +0.000 A 
ATOM     22  C   UNL     1      -3.165  -0.195   1.103  0.00  0.00    +0.000 A 
BRANCH  21  23
ATOM     23  C   UNL     1      -4.784   0.806  -0.496  0.00  0.00    +0.000 C 
ATOM     24  O   UNL     1      -5.031   1.748  -1.278  0.00  0.00    +0.000 OA
ATOM     25  N   UNL     1      -5.725  -0.225  -0.345  0.00  0.00    +0.000 NA
BRANCH  25  26
ATOM     26  C   UNL     1      -6.992  -0.381  -0.968  0.00  0.00    +0.000 C 
BRANCH  26  27
ATOM     27  C   UNL     1      -8.026   0.640  -0.733  0.00  0.00    +0.000 C 
ATOM     28  C   UNL     1      -7.688   2.024  -1.161  0.00  0.00    +0.000 C 
ATOM     29  C   UNL     1      -8.442   0.599   0.725  0.00  0.00    +0.000 C 
ENDBRANCH  26  27
ENDBRANCH  25  26
ENDBRANCH  21  23
ENDBRANCH  16  17
ENDBRANCH   1  16
TORSDOF 8
