REMARK  Name = 
REMARK  8 active torsions:
REMARK  status: ('A' for Active; 'I' for Inactive)
REMARK    1  A    between atoms: C_2  and  N_3
REMARK    2  A    between atoms: N_3  and  C_4
REMARK    3  A    between atoms: N_3  and  C_6
REMARK    4  A    between atoms: C_6  and  C_7
REMARK    5  A    between atoms: C_7  and  C_9
REMARK    6  A    between atoms: C_9  and  N_10
REMARK    7  A    between atoms: C_11  and  C_12
REMARK    8  A    between atoms: C_18  and  C_19
REMARK                            x       y       z     vdW  Elec       q    Type
REMARK                         _______ _______ _______ _____ _____    ______ ____
ROOT
ATOM      1  N   UNL     1       0.402  -0.796  -0.194  0.00  0.00    +0.000 N 
ATOM      2  C   UNL     1      -0.678  -0.250   0.395  0.00  0.00    +0.000 A 
ATOM      3  C   UNL     1      -1.749  -0.248  -0.468  0.00  0.00    +0.000 A 
ATOM      4  C   UNL     1      -1.321  -0.821  -1.657  0.00  0.00    +0.000 A 
ATOM      5  C   UNL     1      -1.956  -1.077  -2.859  0.00  0.00    +0.000 A 
ATOM      6  C   UNL     1      -1.276  -1.671  -3.902  0.00  0.00    +0.000 A 
ATOM      7  C   UNL     1      -1.964  -1.951  -5.215  0.00  0.00    +0.000 C 
ATOM      8  C   UNL     1       0.040  -1.992  -3.698  0.00  0.00    +0.000 A 
ATOM      9  C   UNL     1       0.674  -1.737  -2.498  0.00  0.00    +0.000 A 
ATOM     10  C   UNL     1       2.090  -2.078  -2.271  0.00  0.00    +0.000 C 
ATOM     11  C   UNL     1       0.003  -1.138  -1.435  0.00  0.00    +0.000 A 
ENDROOT
BRANCH   2  12
ATOM     12  C   UNL     1      -0.788   0.287   1.753  0.00  0.00    +0.000 A 
ATOM     13  C   UNL     1      -1.093   1.603   2.023  0.00  0.00    +0.000 A 
ATOM     14  C   UNL     1      -1.193   2.094   3.311  0.00  0.00    +0.000 A 
ATOM     15  C   UNL     1      -0.988   1.266   4.390  0.00  0.00    +0.000 A 
ATOM     16  C   UNL     1      -0.679  -0.065   4.156  0.00  0.00    +0.000 A 
ATOM     17  C   UNL     1      -0.586  -0.524   2.871  0.00  0.00    +0.000 A 
ENDBRANCH   2  12
BRANCH   3  18
ATOM     18  C   UNL     1      -3.117   0.232  -0.287  0.00  0.00    +0.000 A 
ATOM     19  C   UNL     1      -3.430   1.542  -0.038  0.00  0.00    +0.000 A 
ATOM     20  C   UNL     1      -4.751   1.907   0.117  0.00  0.00    +0.000 A 
ATOM     21  C   UNL     1      -5.794   1.011   0.034  0.00  0.00    +0.000 A 
ATOM     22  C   UNL     1      -5.485  -0.306  -0.216  0.00  0.00    +0.000 A 
ATOM     23  C   UNL     1      -4.164  -0.667  -0.371  0.00  0.00    +0.000 A 
ENDBRANCH   3  18
BRANCH   1  24
ATOM     24  C   UNL     1       1.721  -0.975   0.393  0.00  0.00    +0.000 C 
BRANCH  24  25
ATOM     25  C   UNL     1       2.523   0.451  -0.017  0.00  0.00    +0.000 C 
ATOM     26  O   UNL     1       2.026   1.152   1.267  0.00  0.00    +0.000 OA
BRANCH  25  27
ATOM     27  C   UNL     1       3.917  -0.082   0.767  0.00  0.00    +0.000 C 
BRANCH  27  28
ATOM     28  N   UNL     1       4.538   1.165   1.171  0.00  0.00    +0.000 NA
BRANCH  28  30
ATOM     29  C   UNL     1       5.856   1.133  -0.889  0.00  0.00    +0.000 C 
ATOM     30  C   UNL     1       5.021   1.942   0.065  0.00  0.00    +0.000 C 
ENDBRANCH  28  30
BRANCH  28  31
ATOM     31  C   UNL     1       5.644   0.792   2.007  0.00  0.00    +0.000 C 
ATOM     32  C   UNL     1       6.556  -0.198   1.294  0.00  0.00    +0.000 C 
ENDBRANCH  28  31
ENDBRANCH  27  28
ENDBRANCH  25  27
ENDBRANCH  24  25
ENDBRANCH   1  24
TORSDOF 8
