REMARK  Name = 
REMARK  9 active torsions:
REMARK  status: ('A' for Active; 'I' for Inactive)
REMARK    1  A    between atoms: C_2  and  C_3
REMARK    2  A    between atoms: C_3  and  C_4
REMARK    3  A    between atoms: C_3  and  C_6
REMARK    4  A    between atoms: C_6  and  O_7
REMARK    5  A    between atoms: O_7  and  C_8
REMARK    6  A    between atoms: C_8  and  C_10
REMARK    7  A    between atoms: N_13  and  C_14
REMARK    8  A    between atoms: C_14  and  C_15
REMARK    9  A    between atoms: C_18  and  O_19
REMARK                            x       y       z     vdW  Elec       q    Type
REMARK                         _______ _______ _______ _____ _____    ______ ____
ROOT
ATOM      1  C   UNL     1       1.072  -0.288   0.092  0.00  0.00    +0.000 A 
ATOM      2  C   UNL     1       0.155  -0.934  -0.699  0.00  0.00    +0.000 A 
ATOM      3  N   UNL     1       0.211  -2.299  -1.102  0.00  0.00    +0.000 NA
ATOM      4  N   UNL     1      -0.824  -0.099  -1.053  0.00  0.00    +0.000 N 
ATOM      5  C   UNL     1      -0.569   1.105  -0.503  0.00  0.00    +0.000 A 
ATOM      6  N   UNL     1      -1.198   2.280  -0.526  0.00  0.00    +0.000 NA
ATOM      7  C   UNL     1      -0.732   3.351   0.115  0.00  0.00    +0.000 A 
ATOM      8  C   UNL     1      -1.410   4.559   0.072  0.00  0.00    +0.000 A 
ATOM      9  C   UNL     1      -0.923   5.652   0.733  0.00  0.00    +0.000 A 
ATOM     10  C   UNL     1       0.246   5.531   1.439  0.00  0.00    +0.000 A 
ATOM     11  C   UNL     1       0.932   4.338   1.491  0.00  0.00    +0.000 A 
ATOM     12  C   UNL     1       0.440   3.253   0.829  0.00  0.00    +0.000 A 
ATOM     13  N   UNL     1       1.104   2.075   0.872  0.00  0.00    +0.000 NA
ATOM     14  C   UNL     1       0.609   1.004   0.213  0.00  0.00    +0.000 A 
ENDROOT
BRANCH   1  15
ATOM     15  C   UNL     1       2.297  -0.833   0.696  0.00  0.00    +0.000 C 
ATOM     16  O   UNL     1       3.020  -0.112   1.388  0.00  0.00    +0.000 OA
BRANCH  15  17
ATOM     17  O   UNL     1       2.675  -2.148   0.514  0.00  0.00    +0.000 OA
BRANCH  17  18
ATOM     18  C   UNL     1       3.794  -2.786   1.016  0.00  0.00    +0.000 C 
BRANCH  18  19
ATOM     19  C   UNL     1       5.113  -2.367   0.673  0.00  0.00    +0.000 C 
BRANCH  19  21
ATOM     20  C   UNL     1       5.706  -0.244  -0.370  0.00  0.00    +0.000 C 
ATOM     21  C   UNL     1       5.671  -1.054   0.925  0.00  0.00    +0.000 C 
ENDBRANCH  19  21
BRANCH  19  22
ATOM     22  C   UNL     1       5.840  -3.183  -0.307  0.00  0.00    +0.000 C 
ATOM     23  C   UNL     1       7.275  -3.412   0.171  0.00  0.00    +0.000 C 
ENDBRANCH  19  22
ENDBRANCH  18  19
ENDBRANCH  17  18
ENDBRANCH  15  17
ENDBRANCH   1  15
BRANCH   4  24
ATOM     24  C   UNL     1      -1.995  -0.348  -1.879  0.00  0.00    +0.000 C 
BRANCH  24  25
ATOM     25  C   UNL     1      -3.156  -0.804  -1.078  0.00  0.00    +0.000 A 
ATOM     26  C   UNL     1      -4.037   0.105  -0.560  0.00  0.00    +0.000 A 
ATOM     27  C   UNL     1      -5.126  -0.354   0.193  0.00  0.00    +0.000 A 
ATOM     28  C   UNL     1      -5.315  -1.690   0.414  0.00  0.00    +0.000 A 
ATOM     29  C   UNL     1      -4.438  -2.600  -0.100  0.00  0.00    +0.000 A 
ATOM     30  C   UNL     1      -3.353  -2.133  -0.851  0.00  0.00    +0.000 A 
BRANCH  28  31
ATOM     31  O   UNL     1      -6.398  -2.114   1.161  0.00  0.00    +0.000 OA
ATOM     32  C   UNL     1      -6.687  -3.450   1.449  0.00  0.00    +0.000 C 
ENDBRANCH  28  31
ENDBRANCH  24  25
ENDBRANCH   4  24
TORSDOF 9
