REMARK  Name = 
REMARK  9 active torsions:
REMARK  status: ('A' for Active; 'I' for Inactive)
REMARK    1  A    between atoms: C_2  and  C_3
REMARK    2  A    between atoms: C_3  and  C_5
REMARK    3  A    between atoms: C_5  and  O_6
REMARK    4  A    between atoms: O_6  and  C_7
REMARK    5  A    between atoms: C_7  and  C_9
REMARK    6  A    between atoms: N_12  and  C_13
REMARK    7  A    between atoms: C_13  and  C_14
REMARK    8  A    between atoms: C_14  and  C_15
REMARK    9  A    between atoms: C_18  and  O_19
REMARK                            x       y       z     vdW  Elec       q    Type
REMARK                         _______ _______ _______ _____ _____    ______ ____
ROOT
ATOM      1  C   UNL     1      -1.895   0.500  -0.073  0.00  0.00    +0.000 A 
ATOM      2  C   UNL     1      -0.831   1.353   0.166  0.00  0.00    +0.000 A 
ATOM      3  N   UNL     1      -0.850   2.769   0.148  0.00  0.00    +0.000 NA
ATOM      4  N   UNL     1       0.280   0.612   0.432  0.00  0.00    +0.000 N 
ATOM      5  C   UNL     1      -0.022  -0.698   0.375  0.00  0.00    +0.000 A 
ATOM      6  N   UNL     1       0.654  -1.849   0.543  0.00  0.00    +0.000 NA
ATOM      7  C   UNL     1       0.046  -3.062   0.414  0.00  0.00    +0.000 A 
ATOM      8  C   UNL     1       0.714  -4.245   0.581  0.00  0.00    +0.000 A 
ATOM      9  C   UNL     1       0.076  -5.463   0.444  0.00  0.00    +0.000 A 
ATOM     10  C   UNL     1      -1.264  -5.497   0.133  0.00  0.00    +0.000 A 
ATOM     11  C   UNL     1      -1.948  -4.319  -0.037  0.00  0.00    +0.000 A 
ATOM     12  C   UNL     1      -1.296  -3.115   0.102  0.00  0.00    +0.000 A 
ATOM     13  N   UNL     1      -1.972  -1.959  -0.067  0.00  0.00    +0.000 NA
ATOM     14  C   UNL     1      -1.383  -0.766   0.059  0.00  0.00    +0.000 A 
ENDROOT
BRANCH   1  15
ATOM     15  C   UNL     1      -3.261   0.889  -0.394  0.00  0.00    +0.000 C 
ATOM     16  O   UNL     1      -3.625   2.082  -0.491  0.00  0.00    +0.000 OA
BRANCH  15  17
ATOM     17  O   UNL     1      -4.194  -0.118  -0.603  0.00  0.00    +0.000 OA
BRANCH  17  18
ATOM     18  C   UNL     1      -5.510   0.183  -0.921  0.00  0.00    +0.000 C 
BRANCH  18  19
ATOM     19  C   UNL     1      -6.072   1.000   0.376  0.00  0.00    +0.000 C 
ATOM     20  C   UNL     1      -7.644   0.544   0.035  0.00  0.00    +0.000 C 
BRANCH  19  22
ATOM     21  C   UNL     1      -4.465  -0.117   1.973  0.00  0.00    +0.000 C 
ATOM     22  C   UNL     1      -5.859  -0.236   1.423  0.00  0.00    +0.000 C 
ENDBRANCH  19  22
ENDBRANCH  18  19
ENDBRANCH  17  18
ENDBRANCH  15  17
ENDBRANCH   1  15
BRANCH   4  23
ATOM     23  C   UNL     1       1.606   1.115   0.735  0.00  0.00    +0.000 C 
BRANCH  23  24
ATOM     24  C   UNL     1       2.337   1.252  -0.599  0.00  0.00    +0.000 C 
BRANCH  24  25
ATOM     25  C   UNL     1       3.705   1.756  -0.433  0.00  0.00    +0.000 A 
ATOM     26  C   UNL     1       3.963   3.120  -0.457  0.00  0.00    +0.000 A 
ATOM     27  C   UNL     1       5.249   3.594  -0.301  0.00  0.00    +0.000 A 
ATOM     28  C   UNL     1       6.320   2.749  -0.117  0.00  0.00    +0.000 A 
ATOM     29  C   UNL     1       6.060   1.393  -0.093  0.00  0.00    +0.000 A 
ATOM     30  C   UNL     1       4.776   0.910  -0.248  0.00  0.00    +0.000 A 
BRANCH  28  31
ATOM     31  O   UNL     1       7.610   3.238   0.039  0.00  0.00    +0.000 OA
ATOM     32  C   UNL     1       8.695   2.384   0.226  0.00  0.00    +0.000 C 
ENDBRANCH  28  31
ENDBRANCH  24  25
ENDBRANCH  23  24
ENDBRANCH   4  23
TORSDOF 9
