REMARK  Name = 
REMARK  7 active torsions:
REMARK  status: ('A' for Active; 'I' for Inactive)
REMARK    1  A    between atoms: C_2  and  C_28
REMARK    2  A    between atoms: N_3  and  C_4
REMARK    3  A    between atoms: N_7  and  C_8
REMARK    4  A    between atoms: C_8  and  C_9
REMARK    5  A    between atoms: C_9  and  C_10
REMARK    6  A    between atoms: N_12  and  C_13
REMARK    7  A    between atoms: C_13  and  C_14
REMARK                            x       y       z     vdW  Elec       q    Type
REMARK                         _______ _______ _______ _____ _____    ______ ____
ROOT
ATOM      1  C   UNL     1       0.205   0.905   0.104  0.00  0.00    +0.000 C 
ENDROOT
BRANCH   1   2
ATOM      2  C   UNL     1      -1.164   0.922  -0.476  0.00  0.00    +0.000 A 
ATOM      3  C   UNL     1      -1.847  -0.135  -1.066  0.00  0.00    +0.000 A 
ATOM      4  N   UNL     1      -3.049   0.270  -1.440  0.00  0.00    +0.000 N 
ATOM      5  C   UNL     1      -3.222   1.564  -1.137  0.00  0.00    +0.000 A 
ATOM      6  C   UNL     1      -4.287   2.417  -1.334  0.00  0.00    +0.000 A 
ATOM      7  C   UNL     1      -4.179   3.723  -0.912  0.00  0.00    +0.000 A 
ATOM      8  C   UNL     1      -3.009   4.131  -0.308  0.00  0.00    +0.000 A 
ATOM      9  C   UNL     1      -1.940   3.285  -0.111  0.00  0.00    +0.000 A 
ATOM     10  C   UNL     1      -2.056   1.972  -0.539  0.00  0.00    +0.000 A 
BRANCH   4  11
ATOM     11  C   UNL     1      -4.041  -0.568  -2.095  0.00  0.00    +0.000 C 
BRANCH  11  12
ATOM     12  C   UNL     1      -4.936  -1.211  -1.115  0.00  0.00    +0.000 A 
ATOM     13  C   UNL     1      -4.671  -2.401  -0.498  0.00  0.00    +0.000 A 
ATOM     14  C   UNL     1      -5.533  -2.976   0.404  0.00  0.00    +0.000 A 
ATOM     15  C   UNL     1      -6.718  -2.360   0.725  0.00  0.00    +0.000 A 
ATOM     16  C   UNL     1      -6.988  -1.157   0.103  0.00  0.00    +0.000 A 
ATOM     17  C   UNL     1      -6.130  -0.586  -0.794  0.00  0.00    +0.000 A 
ENDBRANCH  11  12
ENDBRANCH   4  11
ENDBRANCH   1   2
BRANCH   1  18
ATOM     18  C   UNL     1       0.849  -0.429  -0.238  0.00  0.00    +0.000 C 
BRANCH  18  22
ATOM     19  C   UNL     1       2.572  -1.644   1.251  0.00  0.00    +0.000 C 
ATOM     20  C   UNL     1       1.564  -0.905   2.057  0.00  0.00    +0.000 C 
ATOM     21  C   UNL     1       0.144  -1.316   1.793  0.00  0.00    +0.000 C 
ATOM     22  N   UNL     1       0.003  -1.450   0.340  0.00  0.00    +0.000 NA
ATOM     23  C   UNL     1       0.639  -2.733   0.025  0.00  0.00    +0.000 C 
ATOM     24  C   UNL     1       2.064  -2.770   0.442  0.00  0.00    +0.000 C 
BRANCH  19  27
ATOM     25  O   UNL     1       5.102  -1.412   2.266  0.00  0.00    +0.000 OA
ATOM     26  C   UNL     1       4.872  -0.755   1.205  0.00  0.00    +0.000 C 
ATOM     27  N   UNL     1       3.571  -0.829   0.619  0.00  0.00    +0.000 NA
BRANCH  26  28
ATOM     28  C   UNL     1       5.969   0.028   0.667  0.00  0.00    +0.000 A 
ATOM     29  C   UNL     1       5.863   0.749  -0.512  0.00  0.00    +0.000 A 
ATOM     30  C   UNL     1       6.859   1.494  -1.063  0.00  0.00    +0.000 A 
ATOM     31  C   UNL     1       8.065   1.551  -0.419  0.00  0.00    +0.000 A 
ATOM     32  C   UNL     1       8.232   0.853   0.762  0.00  0.00    +0.000 A 
ATOM     33  C   UNL     1       7.199   0.104   1.295  0.00  0.00    +0.000 A 
ENDBRANCH  26  28
ENDBRANCH  19  27
ENDBRANCH  18  22
ENDBRANCH   1  18
TORSDOF 7
