REMARK  Name = 
REMARK  8 active torsions:
REMARK  status: ('A' for Active; 'I' for Inactive)
REMARK    1  A    between atoms: C_2  and  O_3
REMARK    2  A    between atoms: O_3  and  C_4
REMARK    3  A    between atoms: C_7  and  N_8
REMARK    4  A    between atoms: N_8  and  C_9
REMARK    5  A    between atoms: C_10  and  S_11
REMARK    6  A    between atoms: S_11  and  C_12
REMARK    7  A    between atoms: N_20  and  C_21
REMARK    8  A    between atoms: C_24  and  O_25
REMARK                            x       y       z     vdW  Elec       q    Type
REMARK                         _______ _______ _______ _____ _____    ______ ____
ROOT
ATOM      1  C   UNL     1      -0.528   0.701   0.300  0.00  0.00    +0.000 C 
ATOM      2  C   UNL     1      -1.512   1.285  -0.326  0.00  0.00    +0.000 C 
ATOM      3  C   UNL     1      -2.519   0.219  -0.587  0.00  0.00    +0.000 C 
ATOM      4  O   UNL     1      -3.630   0.346  -1.172  0.00  0.00    +0.000 OA
ATOM      5  N   UNL     1      -2.057  -0.999  -0.079  0.00  0.00    +0.000 N 
ATOM      6  C   UNL     1      -0.790  -0.745   0.497  0.00  0.00    +0.000 C 
ATOM      7  O   UNL     1      -0.023  -1.562   1.067  0.00  0.00    +0.000 OA
ENDROOT
BRANCH   5   8
ATOM      8  C   UNL     1      -2.696  -2.288  -0.108  0.00  0.00    +0.000 A 
ATOM      9  C   UNL     1      -2.987  -2.994   1.039  0.00  0.00    +0.000 A 
ATOM     10  C   UNL     1      -3.601  -4.225   0.943  0.00  0.00    +0.000 A 
ATOM     11  C   UNL     1      -3.945  -4.798  -0.252  0.00  0.00    +0.000 A 
ATOM     12  C   UNL     1      -3.655  -4.091  -1.409  0.00  0.00    +0.000 A 
ATOM     13  C   UNL     1      -3.041  -2.860  -1.316  0.00  0.00    +0.000 A 
BRANCH  11  14
ATOM     14  O   UNL     1      -4.570  -6.051  -0.351  0.00  0.00    +0.000 OA
ATOM     15  C   UNL     1      -4.836  -6.716   0.870  0.00  0.00    +0.000 C 
ENDBRANCH  11  14
ENDBRANCH   5   8
BRANCH   1  16
ATOM     16  N   UNL     1       0.660   1.365   0.744  0.00  0.00    +0.000 NA
BRANCH  16  20
ATOM     17  C   UNL     1       4.455  -0.238  -0.134  0.00  0.00    +0.000 A 
ATOM     18  C   UNL     1       3.289  -0.872  -0.564  0.00  0.00    +0.000 A 
ATOM     19  C   UNL     1       2.067  -0.332  -0.267  0.00  0.00    +0.000 A 
ATOM     20  C   UNL     1       1.954   0.835   0.454  0.00  0.00    +0.000 A 
ATOM     21  C   UNL     1       3.094   1.472   0.886  0.00  0.00    +0.000 A 
ATOM     22  C   UNL     1       4.335   0.924   0.584  0.00  0.00    +0.000 A 
BRANCH  17  23
ATOM     23  O   UNL     1       5.643  -0.842  -0.472  0.00  0.00    +0.000 OA
BRANCH  23  25
ATOM     24  C   UNL     1       7.946  -1.339  -0.709  0.00  0.00    +0.000 C 
ATOM     25  C   UNL     1       6.921  -0.357  -0.131  0.00  0.00    +0.000 C 
ENDBRANCH  23  25
ENDBRANCH  17  23
ENDBRANCH  16  20
ENDBRANCH   1  16
BRANCH   2  26
ATOM     26  S   UNL     1      -1.809   2.936  -0.850  0.00  0.00    +0.000 S 
BRANCH  26  27
ATOM     27  C   UNL     1      -0.569   4.109  -0.513  0.00  0.00    +0.000 A 
ATOM     28  C   UNL     1       0.627   3.946   0.107  0.00  0.00    +0.000 A 
ATOM     29  C   UNL     1       1.485   5.009   0.281  0.00  0.00    +0.000 A 
ATOM     30  C   UNL     1       1.182   6.280  -0.157  0.00  0.00    +0.000 A 
ATOM     31  C   UNL     1      -0.025   6.459  -0.785  0.00  0.00    +0.000 A 
ATOM     32  C   UNL     1      -0.865   5.420  -0.957  0.00  0.00    +0.000 A 
ENDBRANCH  26  27
ENDBRANCH   2  26
TORSDOF 8
