REMARK  Name = 
REMARK  7 active torsions:
REMARK  status: ('A' for Active; 'I' for Inactive)
REMARK    1  A    between atoms: N_10  and  C_11
REMARK    2  A    between atoms: C_11  and  C_12
REMARK    3  A    between atoms: C_12  and  C_14
REMARK    4  A    between atoms: C_14  and  O_15
REMARK    5  A    between atoms: O_15  and  C_16
REMARK    6  A    between atoms: C_19  and  C_20
REMARK    7  A    between atoms: C_20  and  C_23
REMARK                            x       y       z     vdW  Elec       q    Type
REMARK                         _______ _______ _______ _____ _____    ______ ____
ROOT
ATOM      1  C   UNL     1       1.027  -2.308   0.342  0.00  0.00    +0.000 C 
ATOM      2  O   UNL     1       0.646  -3.679   0.889  0.00  0.00    +0.000 OA
ENDROOT
BRANCH   1   3
ATOM      3  C   UNL     1       2.645  -2.669   0.297  0.00  0.00    +0.000 C 
BRANCH   3  13
ATOM      4  C   UNL     1       3.171  -2.020  -2.655  0.00  0.00    +0.000 C 
ATOM      5  C   UNL     1       3.506  -1.118  -1.501  0.00  0.00    +0.000 A 
ATOM      6  N   UNL     1       4.081   0.095  -1.540  0.00  0.00    +0.000 NA
ATOM      7  C   UNL     1       4.189   0.529  -0.262  0.00  0.00    +0.000 A 
ATOM      8  C   UNL     1       4.687   1.678   0.317  0.00  0.00    +0.000 A 
ATOM      9  C   UNL     1       4.654   1.827   1.697  0.00  0.00    +0.000 A 
ATOM     10  C   UNL     1       4.138   0.866   2.539  0.00  0.00    +0.000 A 
ATOM     11  C   UNL     1       3.638  -0.289   1.956  0.00  0.00    +0.000 A 
ATOM     12  C   UNL     1       3.671  -0.439   0.573  0.00  0.00    +0.000 A 
ATOM     13  N   UNL     1       3.260  -1.439  -0.226  0.00  0.00    +0.000 N 
ATOM     14  O   UNL     1       4.130   1.067   3.917  0.00  0.00    +0.000 OA
ATOM     15  C   UNL     1       4.207   2.404   4.438  0.00  0.00    +0.000 C 
ATOM     16  C   UNL     1       5.187   3.234   3.656  0.00  0.00    +0.000 C 
ATOM     17  O   UNL     1       5.153   2.979   2.275  0.00  0.00    +0.000 OA
ENDBRANCH   3  13
ENDBRANCH   1   3
BRANCH   1  18
ATOM     18  C   UNL     1       0.786  -2.763  -1.230  0.00  0.00    +0.000 C 
BRANCH  18  19
ATOM     19  O   UNL     1      -0.566  -3.140  -1.279  0.00  0.00    +0.000 OA
BRANCH  19  20
ATOM     20  C   UNL     1      -1.603  -2.281  -0.970  0.00  0.00    +0.000 A 
ATOM     21  C   UNL     1      -2.891  -2.758  -1.052  0.00  0.00    +0.000 A 
ATOM     22  C   UNL     1      -3.954  -1.954  -0.759  0.00  0.00    +0.000 A 
ATOM     23  C   UNL     1      -3.777  -0.653  -0.375  0.00  0.00    +0.000 A 
ATOM     24  C   UNL     1      -2.473  -0.174  -0.293  0.00  0.00    +0.000 A 
ATOM     25  C   UNL     1      -1.416  -0.981  -0.587  0.00  0.00    +0.000 A 
BRANCH  23  26
ATOM     26  C   UNL     1      -4.945   0.197  -0.064  0.00  0.00    +0.000 C 
ATOM     27  C   UNL     1      -4.843   0.817   1.326  0.00  0.00    +0.000 C 
ATOM     28  C   UNL     1      -6.193  -0.665  -0.113  0.00  0.00    +0.000 C 
BRANCH  26  29
ATOM     29  C   UNL     1      -4.976   1.300  -1.051  0.00  0.00    +0.000 A 
ATOM     30  C   UNL     1      -5.219   0.962  -2.376  0.00  0.00    +0.000 A 
ATOM     31  C   UNL     1      -5.263   1.919  -3.353  0.00  0.00    +0.000 A 
ATOM     32  C   UNL     1      -5.062   3.232  -2.995  0.00  0.00    +0.000 A 
ATOM     33  C   UNL     1      -4.819   3.602  -1.690  0.00  0.00    +0.000 A 
ATOM     34  C   UNL     1      -4.777   2.623  -0.711  0.00  0.00    +0.000 A 
ENDBRANCH  26  29
ENDBRANCH  23  26
ENDBRANCH  19  20
ENDBRANCH  18  19
ENDBRANCH   1  18
TORSDOF 7
