REMARK  Name = 
REMARK  7 active torsions:
REMARK  status: ('A' for Active; 'I' for Inactive)
REMARK    1  A    between atoms: O_2  and  C_3
REMARK    2  A    between atoms: C_6  and  C_7
REMARK    3  A    between atoms: C_12  and  N_13
REMARK    4  A    between atoms: C_14  and  C_16
REMARK    5  A    between atoms: C_16  and  O_17
REMARK    6  A    between atoms: O_17  and  C_18
REMARK    7  A    between atoms: C_18  and  C_20
REMARK                            x       y       z     vdW  Elec       q    Type
REMARK                         _______ _______ _______ _____ _____    ______ ____
ROOT
ATOM      1  O   UNL     1      -1.347  -1.839  -0.569  0.00  0.00    +0.000 OA
ENDROOT
BRANCH   1   2
ATOM      2  C   UNL     1      -1.669  -0.737   0.220  0.00  0.00    +0.000 C 
ATOM      3  O   UNL     1      -1.001  -0.531   1.247  0.00  0.00    +0.000 OA
BRANCH   2   4
ATOM      4  C   UNL     1      -2.753   0.169  -0.123  0.00  0.00    +0.000 A 
ATOM      5  C   UNL     1      -2.572   1.281  -0.927  0.00  0.00    +0.000 A 
ATOM      6  C   UNL     1      -1.317   1.551  -1.445  0.00  0.00    +0.000 A 
ATOM      7  C   UNL     1      -1.128   2.652  -2.250  0.00  0.00    +0.000 A 
ATOM      8  C   UNL     1      -2.153   3.508  -2.566  0.00  0.00    +0.000 A 
ATOM      9  C   UNL     1      -3.402   3.265  -2.068  0.00  0.00    +0.000 A 
ATOM     10  C   UNL     1      -3.591   2.158  -1.258  0.00  0.00    +0.000 A 
ATOM     11  C   UNL     1      -4.848   1.895  -0.750  0.00  0.00    +0.000 A 
ATOM     12  C   UNL     1      -5.076   0.809   0.048  0.00  0.00    +0.000 A 
ATOM     13  C   UNL     1      -6.352   0.598   0.530  0.00  0.00    +0.000 A 
ATOM     14  C   UNL     1      -6.535  -0.496   1.328  0.00  0.00    +0.000 A 
ATOM     15  C   UNL     1      -5.529  -1.368   1.659  0.00  0.00    +0.000 A 
ATOM     16  C   UNL     1      -4.252  -1.154   1.174  0.00  0.00    +0.000 A 
ATOM     17  C   UNL     1      -4.030  -0.045   0.356  0.00  0.00    +0.000 A 
ENDBRANCH   2   4
ENDBRANCH   1   2
BRANCH   1  18
ATOM     18  C   UNL     1      -0.341  -2.761  -0.327  0.00  0.00    +0.000 C 
BRANCH  18  20
ATOM     19  N   UNL     1       1.313  -0.857  -0.265  0.00  0.00    +0.000 NA
ATOM     20  C   UNL     1       1.015  -2.246  -0.210  0.00  0.00    +0.000 C 
ATOM     21  O   UNL     1       1.974  -3.030  -0.054  0.00  0.00    +0.000 OA
BRANCH  19  27
ATOM     22  C   UNL     1       2.899   0.965  -0.154  0.00  0.00    +0.000 A 
ATOM     23  C   UNL     1       4.222   1.415  -0.047  0.00  0.00    +0.000 A 
ATOM     24  C   UNL     1       5.242   0.503   0.062  0.00  0.00    +0.000 A 
ATOM     25  C   UNL     1       5.015  -0.874   0.072  0.00  0.00    +0.000 A 
ATOM     26  C   UNL     1       3.717  -1.278  -0.035  0.00  0.00    +0.000 A 
ATOM     27  C   UNL     1       2.664  -0.386  -0.147  0.00  0.00    +0.000 A 
BRANCH  25  28
ATOM     28  C   UNL     1       6.155  -1.803   0.190  0.00  0.00    +0.000 C 
ATOM     29  C   UNL     1       7.471  -1.163  -0.179  0.00  0.00    +0.000 C 
ATOM     30  C   UNL     1       5.976  -3.021  -0.708  0.00  0.00    +0.000 C 
ATOM     31  C   UNL     1       6.326  -2.337   1.609  0.00  0.00    +0.000 C 
ENDBRANCH  25  28
BRANCH  22  33
ATOM     32  C   UNL     1       2.055   3.269  -0.274  0.00  0.00    +0.000 C 
ATOM     33  O   UNL     1       1.853   1.886  -0.264  0.00  0.00    +0.000 OA
ENDBRANCH  22  33
ENDBRANCH  19  27
ENDBRANCH  18  20
ENDBRANCH   1  18
TORSDOF 7
