REMARK  Name = 
REMARK  9 active torsions:
REMARK  status: ('A' for Active; 'I' for Inactive)
REMARK    1  A    between atoms: C_2  and  O_5
REMARK    2  A    between atoms: O_5  and  C_6
REMARK    3  A    between atoms: C_9  and  C_10
REMARK    4  A    between atoms: C_10  and  CA_11
REMARK    5  A    between atoms: CA_11  and  C_12
REMARK    6  A    between atoms: CA_11  and  N_14
REMARK    7  A    between atoms: C_15  and  O_17
REMARK    8  A    between atoms: O_17  and  C_18
REMARK    9  A    between atoms: C_18  and  C_19
REMARK                            x       y       z     vdW  Elec       q    Type
REMARK                         _______ _______ _______ _____ _____    ______ ____
ROOT
ATOM      1  N   UNL     1       0.613  -2.278  -0.270  0.00  0.00    +0.000 NA
ATOM      2  C   UNL     1      -0.152  -1.344   0.411  0.00  0.00    +0.000 C 
ATOM      3  O   UNL     1       0.075  -1.150   1.641  0.00  0.00    +0.000 OA
ENDROOT
BRANCH   1   4
ATOM      4  CA  UNL     1       1.736  -3.077   0.484  0.00  0.00    +0.000 C 
BRANCH   4   5
ATOM      5  C   UNL     1       0.749  -3.626   1.694  0.00  0.00    +0.000 C 
ATOM      6  O   UNL     1       1.603  -4.385   2.490  0.00  0.00    +0.000 OA
ENDBRANCH   4   5
BRANCH   4   7
ATOM      7  C   UNL     1       2.267  -1.780   1.361  0.00  0.00    +0.000 C 
BRANCH   7  11
ATOM      8  C   UNL     1       4.967  -0.068  -1.518  0.00  0.00    +0.000 A 
ATOM      9  C   UNL     1       5.416  -0.990  -0.588  0.00  0.00    +0.000 A 
ATOM     10  C   UNL     1       4.528  -1.529   0.328  0.00  0.00    +0.000 A 
ATOM     11  C   UNL     1       3.199  -1.167   0.339  0.00  0.00    +0.000 A 
ATOM     12  C   UNL     1       2.745  -0.249  -0.583  0.00  0.00    +0.000 A 
ATOM     13  C   UNL     1       3.633   0.290  -1.500  0.00  0.00    +0.000 A 
BRANCH   8  14
ATOM     14  O   UNL     1       5.854   0.471  -2.435  0.00  0.00    +0.000 OA
BRANCH  14  16
ATOM     15  C   UNL     1       5.426   2.752  -1.811  0.00  0.00    +0.000 C 
ATOM     16  C   UNL     1       6.511   1.689  -2.049  0.00  0.00    +0.000 C 
ATOM     17  C   UNL     1       7.484   2.151  -3.108  0.00  0.00    +0.000 C 
ATOM     18  C   UNL     1       7.238   1.565  -0.746  0.00  0.00    +0.000 C 
ENDBRANCH  14  16
ENDBRANCH   8  14
ENDBRANCH   7  11
ENDBRANCH   4   7
ENDBRANCH   1   4
BRANCH   2  19
ATOM     19  O   UNL     1      -1.154  -0.611  -0.201  0.00  0.00    +0.000 OA
BRANCH  19  20
ATOM     20  C   UNL     1      -1.861   0.322   0.604  0.00  0.00    +0.000 C 
BRANCH  20  21
ATOM     21  C   UNL     1      -2.886   0.982  -0.294  0.00  0.00    +0.000 C 
ATOM     22  C   UNL     1      -3.618   1.961   0.537  0.00  0.00    +0.000 A 
ATOM     23  C   UNL     1      -3.277   3.081   1.259  0.00  0.00    +0.000 A 
ATOM     24  C   UNL     1      -4.165   3.858   1.974  0.00  0.00    +0.000 A 
ATOM     25  C   UNL     1      -5.492   3.494   1.971  0.00  0.00    +0.000 A 
ATOM     26  C   UNL     1      -5.871   2.378   1.259  0.00  0.00    +0.000 A 
ATOM     27  C   UNL     1      -4.949   1.602   0.539  0.00  0.00    +0.000 A 
ATOM     28  C   UNL     1      -5.158   0.397  -0.254  0.00  0.00    +0.000 A 
ATOM     29  C   UNL     1      -6.309  -0.327  -0.529  0.00  0.00    +0.000 A 
ATOM     30  C   UNL     1      -6.253  -1.460  -1.311  0.00  0.00    +0.000 A 
ATOM     31  C   UNL     1      -5.051  -1.851  -1.806  0.00  0.00    +0.000 A 
ATOM     32  C   UNL     1      -3.920  -1.123  -1.526  0.00  0.00    +0.000 A 
ATOM     33  C   UNL     1      -3.927   0.021  -0.746  0.00  0.00    +0.000 A 
ENDBRANCH  20  21
ENDBRANCH  19  20
ENDBRANCH   2  19
TORSDOF 9
