REMARK  Name = 
REMARK  8 active torsions:
REMARK  status: ('A' for Active; 'I' for Inactive)
REMARK    1  A    between atoms: C_2  and  C_3
REMARK    2  A    between atoms: C_3  and  N_4
REMARK    3  A    between atoms: C_5  and  C_7
REMARK    4  A    between atoms: C_12  and  N_13
REMARK    5  A    between atoms: C_14  and  C_16
REMARK    6  A    between atoms: C_19  and  C_20
REMARK    7  A    between atoms: C_20  and  S_21
REMARK    8  A    between atoms: S_21  and  C_22
REMARK                            x       y       z     vdW  Elec       q    Type
REMARK                         _______ _______ _______ _____ _____    ______ ____
ROOT
ATOM      1  N   UNL     1      -2.073   0.971  -0.488  0.00  0.00    +0.000 NA
ATOM      2  C   UNL     1      -0.766   1.525  -0.538  0.00  0.00    +0.000 C 
ATOM      3  O   UNL     1      -0.482   2.373  -1.424  0.00  0.00    +0.000 OA
ENDROOT
BRANCH   1   9
ATOM      4  C   UNL     1      -4.303   0.828  -1.365  0.00  0.00    +0.000 A 
ATOM      5  C   UNL     1      -5.235   1.236  -2.290  0.00  0.00    +0.000 A 
ATOM      6  C   UNL     1      -4.929   2.170  -3.266  0.00  0.00    +0.000 A 
ATOM      7  C   UNL     1      -3.662   2.714  -3.326  0.00  0.00    +0.000 A 
ATOM      8  C   UNL     1      -2.713   2.322  -2.412  0.00  0.00    +0.000 A 
ATOM      9  C   UNL     1      -3.045   1.377  -1.434  0.00  0.00    +0.000 A 
BRANCH   4  11
ATOM     10  N   UNL     1      -5.886  -0.747  -0.225  0.00  0.00    +0.000 NA
ATOM     11  C   UNL     1      -4.602  -0.155  -0.327  0.00  0.00    +0.000 C 
ATOM     12  O   UNL     1      -3.727  -0.513   0.515  0.00  0.00    +0.000 OA
BRANCH  10  13
ATOM     13  C   UNL     1      -6.185  -1.713   0.785  0.00  0.00    +0.000 C 
BRANCH  13  15
ATOM     14  C   UNL     1      -4.403  -3.050  -0.264  0.00  0.00    +0.000 C 
ATOM     15  C   UNL     1      -5.321  -2.911   0.667  0.00  0.00    +0.000 C 
ENDBRANCH  13  15
ENDBRANCH  10  13
ENDBRANCH   4  11
ENDBRANCH   1   9
BRANCH   2  16
ATOM     16  C   UNL     1       0.212   1.083   0.456  0.00  0.00    +0.000 A 
ATOM     17  C   UNL     1       1.496   1.591   0.491  0.00  0.00    +0.000 A 
ATOM     18  C   UNL     1       2.427   1.183   1.421  0.00  0.00    +0.000 A 
ATOM     19  C   UNL     1       2.107   0.235   2.371  0.00  0.00    +0.000 A 
ATOM     20  C   UNL     1       0.823  -0.277   2.341  0.00  0.00    +0.000 A 
ATOM     21  C   UNL     1      -0.104   0.136   1.405  0.00  0.00    +0.000 A 
BRANCH  19  22
ATOM     22  C   UNL     1       3.098  -0.222   3.391  0.00  0.00    +0.000 C 
BRANCH  22  23
ATOM     23  S   UNL     1       4.067  -1.628   2.832  0.00  0.00    +0.000 S 
BRANCH  23  24
ATOM     24  C   UNL     1       5.118  -1.167   1.467  0.00  0.00    +0.000 A 
ATOM     25  C   UNL     1       5.943  -2.081   0.882  0.00  0.00    +0.000 A 
ATOM     26  C   UNL     1       6.779  -1.754  -0.186  0.00  0.00    +0.000 A 
ATOM     27  C   UNL     1       6.752  -0.460  -0.647  0.00  0.00    +0.000 A 
ATOM     28  C   UNL     1       7.614  -0.001  -1.794  0.00  0.00    +0.000 C 
ATOM     29  C   UNL     1       5.912   0.461  -0.048  0.00  0.00    +0.000 A 
ATOM     30  C   UNL     1       5.087   0.130   1.010  0.00  0.00    +0.000 A 
ENDBRANCH  23  24
ENDBRANCH  22  23
ENDBRANCH  19  22
ENDBRANCH   2  16
TORSDOF 8
