REMARK  Name = 
REMARK  8 active torsions:
REMARK  status: ('A' for Active; 'I' for Inactive)
REMARK    1  A    between atoms: C_2  and  O_3
REMARK    2  A    between atoms: O_3  and  C_4
REMARK    3  A    between atoms: C_9  and  N_10
REMARK    4  A    between atoms: N_10  and  C_11
REMARK    5  A    between atoms: C_12  and  S_13
REMARK    6  A    between atoms: S_13  and  C_14
REMARK    7  A    between atoms: N_23  and  C_24
REMARK    8  A    between atoms: C_24  and  C_25
REMARK                            x       y       z     vdW  Elec       q    Type
REMARK                         _______ _______ _______ _____ _____    ______ ____
ROOT
ATOM      1  C   UNL     1      -0.339  -0.336  -0.370  0.00  0.00    +0.000 C 
ATOM      2  C   UNL     1      -1.108   0.035  -1.380  0.00  0.00    +0.000 C 
ATOM      3  C   UNL     1      -2.001  -1.055  -1.764  0.00  0.00    +0.000 C 
ATOM      4  O   UNL     1      -2.877  -1.065  -2.689  0.00  0.00    +0.000 OA
ATOM      5  N   UNL     1      -1.742  -2.169  -0.911  0.00  0.00    +0.000 N 
ATOM      6  C   UNL     1      -0.709  -1.729  -0.041  0.00  0.00    +0.000 C 
ATOM      7  O   UNL     1      -0.184  -2.404   0.867  0.00  0.00    +0.000 OA
ENDROOT
BRANCH   1   8
ATOM      8  N   UNL     1       0.662   0.423   0.300  0.00  0.00    +0.000 NA
BRANCH   8  14
ATOM      9  C   UNL     1       3.021   0.674   0.961  0.00  0.00    +0.000 A 
ATOM     10  C   UNL     1       4.315   0.201   0.954  0.00  0.00    +0.000 A 
ATOM     11  C   UNL     1       4.633  -0.985   0.304  0.00  0.00    +0.000 A 
ATOM     12  C   UNL     1       3.641  -1.679  -0.329  0.00  0.00    +0.000 A 
ATOM     13  C   UNL     1       2.351  -1.188  -0.310  0.00  0.00    +0.000 A 
ATOM     14  C   UNL     1       2.014  -0.013   0.328  0.00  0.00    +0.000 A 
BRANCH   9  15
ATOM     15  O   UNL     1       2.751   1.848   1.613  0.00  0.00    +0.000 OA
BRANCH  15  17
ATOM     16  C   UNL     1       4.377   1.837   3.410  0.00  0.00    +0.000 C 
ATOM     17  C   UNL     1       3.714   2.618   2.287  0.00  0.00    +0.000 C 
ENDBRANCH  15  17
ENDBRANCH   9  15
ENDBRANCH   8  14
ENDBRANCH   1   8
BRANCH   2  18
ATOM     18  S   UNL     1      -1.076   1.634  -2.175  0.00  0.00    +0.000 S 
BRANCH  18  19
ATOM     19  C   UNL     1       0.137   2.707  -1.440  0.00  0.00    +0.000 A 
ATOM     20  C   UNL     1      -0.251   3.507  -0.389  0.00  0.00    +0.000 A 
ATOM     21  C   UNL     1       0.645   4.359   0.218  0.00  0.00    +0.000 A 
ATOM     22  C   UNL     1       1.970   4.451  -0.198  0.00  0.00    +0.000 A 
ATOM     23  C   UNL     1       2.933   5.379   0.465  0.00  0.00    +0.000 C 
ATOM     24  C   UNL     1       2.323   3.636  -1.253  0.00  0.00    +0.000 A 
ATOM     25  C   UNL     1       1.438   2.779  -1.869  0.00  0.00    +0.000 A 
ENDBRANCH  18  19
ENDBRANCH   2  18
BRANCH   5  26
ATOM     26  C   UNL     1      -2.407  -3.460  -0.948  0.00  0.00    +0.000 C 
BRANCH  26  27
ATOM     27  C   UNL     1      -3.587  -3.405  -0.052  0.00  0.00    +0.000 A 
ATOM     28  C   UNL     1      -3.900  -2.256   0.652  0.00  0.00    +0.000 A 
ATOM     29  C   UNL     1      -4.991  -2.180   1.492  0.00  0.00    +0.000 A 
ATOM     30  C   UNL     1      -5.820  -3.261   1.661  0.00  0.00    +0.000 A 
ATOM     31  C   UNL     1      -5.513  -4.413   0.961  0.00  0.00    +0.000 A 
ATOM     32  C   UNL     1      -4.421  -4.490   0.121  0.00  0.00    +0.000 A 
ENDBRANCH  26  27
ENDBRANCH   5  26
TORSDOF 8
