REMARK  Name = 
REMARK  6 active torsions:
REMARK  status: ('A' for Active; 'I' for Inactive)
REMARK    1  A    between atoms: C_2  and  C_3
REMARK    2  A    between atoms: C_6  and  O_7
REMARK    3  A    between atoms: C_9  and  C_10
REMARK    4  A    between atoms: C_20  and  O_21
REMARK    5  A    between atoms: O_21  and  C_22
REMARK    6  A    between atoms: C_22  and  C_23
REMARK                            x       y       z     vdW  Elec       q    Type
REMARK                         _______ _______ _______ _____ _____    ______ ____
ROOT
ATOM      1  C   UNL     1      -2.793  -1.267   0.527  0.00  0.00    +0.000 C 
ATOM      2  N   UNL     1      -3.005  -1.975  -0.878  0.00  0.00    +0.000 NA
ATOM      3  C   UNL     1      -2.414  -3.294  -0.618  0.00  0.00    +0.000 C 
ATOM      4  C   UNL     1      -1.038  -3.144   0.013  0.00  0.00    +0.000 C 
ATOM      5  C   UNL     1      -0.538  -1.744  -0.075  0.00  0.00    +0.000 A 
ATOM      6  C   UNL     1      -1.347  -0.673   0.171  0.00  0.00    +0.000 A 
ATOM      7  N   UNL     1      -0.748   0.443   0.049  0.00  0.00    +0.000 NA
ATOM      8  C   UNL     1       0.531   0.224  -0.294  0.00  0.00    +0.000 A 
ATOM      9  C   UNL     1       1.635   0.991  -0.563  0.00  0.00    +0.000 A 
ATOM     10  C   UNL     1       2.861   0.420  -0.905  0.00  0.00    +0.000 A 
ATOM     11  C   UNL     1       3.020  -0.939  -0.990  0.00  0.00    +0.000 A 
ATOM     12  C   UNL     1       1.893  -1.723  -0.716  0.00  0.00    +0.000 A 
ATOM     13  C   UNL     1       0.690  -1.141  -0.379  0.00  0.00    +0.000 A 
ENDROOT
BRANCH   1  18
ATOM     14  C   UNL     1      -5.278   1.189  -1.046  0.00  0.00    +0.000 A 
ATOM     15  C   UNL     1      -5.136   2.274  -0.216  0.00  0.00    +0.000 A 
ATOM     16  C   UNL     1      -4.258   2.249   0.843  0.00  0.00    +0.000 A 
ATOM     17  C   UNL     1      -3.485   1.102   1.099  0.00  0.00    +0.000 A 
ATOM     18  C   UNL     1      -3.629   0.029   0.275  0.00  0.00    +0.000 A 
ATOM     19  C   UNL     1      -4.489   0.066  -0.756  0.00  0.00    +0.000 A 
BRANCH  14  21
ATOM     20  C   UNL     1      -7.587   0.750  -1.713  0.00  0.00    +0.000 C 
ATOM     21  C   UNL     1      -6.228   1.243  -2.180  0.00  0.00    +0.000 C 
ENDBRANCH  14  21
BRANCH  17  22
ATOM     22  O   UNL     1      -2.603   1.095   2.174  0.00  0.00    +0.000 OA
ATOM     23  C   UNL     1      -2.457   2.204   3.022  0.00  0.00    +0.000 C 
ENDBRANCH  17  22
ENDBRANCH   1  18
BRANCH  11  24
ATOM     24  O   UNL     1       4.215  -1.557  -1.326  0.00  0.00    +0.000 OA
BRANCH  24  25
ATOM     25  C   UNL     1       5.375  -0.823  -1.612  0.00  0.00    +0.000 C 
BRANCH  25  26
ATOM     26  C   UNL     1       5.742  -0.021  -0.424  0.00  0.00    +0.000 A 
ATOM     27  C   UNL     1       6.396  -0.660   0.622  0.00  0.00    +0.000 A 
ATOM     28  C   UNL     1       6.791   0.005   1.777  0.00  0.00    +0.000 A 
ATOM     29  C   UNL     1       6.525   1.345   1.890  0.00  0.00    +0.000 A 
ATOM     30  C   UNL     1       5.868   2.013   0.854  0.00  0.00    +0.000 A 
ATOM     31  C   UNL     1       5.493   1.321  -0.274  0.00  0.00    +0.000 A 
ENDBRANCH  25  26
ENDBRANCH  24  25
ENDBRANCH  11  24
TORSDOF 6
