REMARK  Name = 
REMARK  8 active torsions:
REMARK  status: ('A' for Active; 'I' for Inactive)
REMARK    1  A    between atoms: C_2  and  O_3
REMARK    2  A    between atoms: O_3  and  C_4
REMARK    3  A    between atoms: C_6  and  C_7
REMARK    4  A    between atoms: C_8  and  C_9
REMARK    5  A    between atoms: C_8  and  C_11
REMARK    6  A    between atoms: C_22  and  O_23
REMARK    7  A    between atoms: O_23  and  C_24
REMARK    8  A    between atoms: C_24  and  C_25
REMARK                            x       y       z     vdW  Elec       q    Type
REMARK                         _______ _______ _______ _____ _____    ______ ____
ROOT
ATOM      1  C   UNL     1       0.617  -0.673   1.877  0.00  0.00    +0.000 A 
ATOM      2  C   UNL     1      -0.406   0.242   1.765  0.00  0.00    +0.000 A 
ATOM      3  C   UNL     1      -0.251   1.527   1.299  0.00  0.00    +0.000 A 
ATOM      4  C   UNL     1       1.063   1.865   0.928  0.00  0.00    +0.000 A 
ATOM      5  C   UNL     1       2.104   0.953   1.036  0.00  0.00    +0.000 A 
ATOM      6  C   UNL     1       1.913  -0.316   1.504  0.00  0.00    +0.000 A 
ENDROOT
BRANCH   3   7
ATOM      7  C   UNL     1      -1.283   2.505   1.162  0.00  0.00    +0.000 C 
ATOM      8  C   UNL     1      -2.424   2.306   0.610  0.00  0.00    +0.000 C 
BRANCH   8   9
ATOM      9  C   UNL     1      -2.781   1.042  -0.006  0.00  0.00    +0.000 A 
ATOM     10  N   UNL     1      -4.012   0.788  -0.554  0.00  0.00    +0.000 NA
ATOM     11  C   UNL     1      -4.055  -0.443  -1.075  0.00  0.00    +0.000 A 
ATOM     12  C   UNL     1      -5.060  -1.166  -1.738  0.00  0.00    +0.000 A 
ATOM     13  C   UNL     1      -4.832  -2.447  -2.184  0.00  0.00    +0.000 A 
ATOM     14  C   UNL     1      -3.591  -3.000  -1.963  0.00  0.00    +0.000 A 
ATOM     15  C   UNL     1      -2.601  -2.293  -1.313  0.00  0.00    +0.000 A 
ATOM     16  C   UNL     1      -2.822  -1.012  -0.864  0.00  0.00    +0.000 A 
ATOM     17  N   UNL     1      -2.109  -0.074  -0.222  0.00  0.00    +0.000 NA
ENDBRANCH   8   9
BRANCH   8  18
ATOM     18  C   UNL     1      -3.372   3.416   0.558  0.00  0.00    +0.000 C 
ATOM     19  N   UNL     1      -4.113   4.301   0.514  0.00  0.00    +0.000 NA
ENDBRANCH   8  18
ENDBRANCH   3   7
BRANCH   1  20
ATOM     20  O   UNL     1       0.434  -1.964   2.351  0.00  0.00    +0.000 OA
BRANCH  20  22
ATOM     21  C   UNL     1      -1.392  -1.653   3.906  0.00  0.00    +0.000 C 
ATOM     22  C   UNL     1      -0.827  -2.461   2.767  0.00  0.00    +0.000 C 
ENDBRANCH  20  22
ENDBRANCH   1  20
BRANCH   6  23
ATOM     23  O   UNL     1       2.924  -1.249   1.625  0.00  0.00    +0.000 OA
BRANCH  23  24
ATOM     24  C   UNL     1       4.258  -1.134   1.323  0.00  0.00    +0.000 C 
BRANCH  24  25
ATOM     25  C   UNL     1       4.448  -0.861  -0.116  0.00  0.00    +0.000 A 
ATOM     26  C   UNL     1       5.722  -0.821  -0.690  0.00  0.00    +0.000 A 
ATOM     27  C   UNL     1       5.867  -0.576  -2.044  0.00  0.00    +0.000 A 
ATOM     28  C   UNL     1       4.788  -0.364  -2.871  0.00  0.00    +0.000 A 
ATOM     29  C   UNL     1       4.898  -0.106  -4.316  0.00  0.00    +0.000 C 
ATOM     30  C   UNL     1       3.511  -0.400  -2.319  0.00  0.00    +0.000 A 
ATOM     31  C   UNL     1       3.384  -0.650  -0.949  0.00  0.00    +0.000 A 
ENDBRANCH  24  25
ENDBRANCH  23  24
ENDBRANCH   6  23
TORSDOF 8
