REMARK  Name = 
REMARK  7 active torsions:
REMARK  status: ('A' for Active; 'I' for Inactive)
REMARK    1  A    between atoms: C_5  and  C_6
REMARK    2  A    between atoms: C_9  and  S_10
REMARK    3  A    between atoms: S_10  and  C_11
REMARK    4  A    between atoms: C_11  and  C_12
REMARK    5  A    between atoms: C_16  and  C_17
REMARK    6  A    between atoms: N_19  and  C_20
REMARK    7  A    between atoms: C_20  and  C_22
REMARK                            x       y       z     vdW  Elec       q    Type
REMARK                         _______ _______ _______ _____ _____    ______ ____
ROOT
ATOM      1  C   UNL     1       0.998  -2.160  -2.437  0.00  0.00    +0.000 C 
ENDROOT
BRANCH   1   2
ATOM      2  C   UNL     1       1.454  -1.955  -1.061  0.00  0.00    +0.000 A 
ATOM      3  C   UNL     1       0.661  -2.334  -0.023  0.00  0.00    +0.000 A 
ATOM      4  C   UNL     1       1.032  -2.180   1.304  0.00  0.00    +0.000 A 
ATOM      5  C   UNL     1       2.272  -1.613   1.534  0.00  0.00    +0.000 A 
ATOM      6  C   UNL     1       3.112  -1.213   0.517  0.00  0.00    +0.000 A 
ATOM      7  C   UNL     1       2.673  -1.397  -0.791  0.00  0.00    +0.000 A 
BRANCH   6   8
ATOM      8  C   UNL     1       4.425  -0.620   0.825  0.00  0.00    +0.000 C 
ATOM      9  O   UNL     1       4.965  -0.951   1.906  0.00  0.00    +0.000 OA
ATOM     10  N   UNL     1       5.093   0.289  -0.026  0.00  0.00    +0.000 NA
BRANCH  10  11
ATOM     11  C   UNL     1       6.473   0.724   0.609  0.00  0.00    +0.000 C 
ATOM     12  C   UNL     1       7.346   0.181  -0.712  0.00  0.00    +0.000 C 
BRANCH  11  13
ATOM     13  C   UNL     1       6.385   2.266  -0.012  0.00  0.00    +0.000 C 
ATOM     14  C   UNL     1       7.703   2.841   0.536  0.00  0.00    +0.000 C 
ATOM     15  C   UNL     1       5.238   2.793   0.839  0.00  0.00    +0.000 C 
ENDBRANCH  11  13
ENDBRANCH  10  11
ENDBRANCH   6   8
ENDBRANCH   1   2
BRANCH   1  16
ATOM     16  S   UNL     1       0.139  -0.714  -3.015  0.00  0.00    +0.000 S 
BRANCH  16  20
ATOM     17  C   UNL     1      -3.733   0.183  -0.677  0.00  0.00    +0.000 A 
ATOM     18  C   UNL     1      -3.767  -0.610  -1.800  0.00  0.00    +0.000 A 
ATOM     19  C   UNL     1      -2.604  -0.902  -2.532  0.00  0.00    +0.000 A 
ATOM     20  C   UNL     1      -1.388  -0.392  -2.135  0.00  0.00    +0.000 A 
ATOM     21  N   UNL     1      -1.423   0.376  -1.030  0.00  0.00    +0.000 NA
ATOM     22  N   UNL     1      -2.520   0.649  -0.343  0.00  0.00    +0.000 NA
BRANCH  17  27
ATOM     23  C   UNL     1      -8.348   1.538   2.488  0.00  0.00    +0.000 C 
ATOM     24  C   UNL     1      -7.150   1.194   1.675  0.00  0.00    +0.000 A 
ATOM     25  C   UNL     1      -7.273   0.412   0.571  0.00  0.00    +0.000 A 
ATOM     26  C   UNL     1      -6.161   0.083  -0.195  0.00  0.00    +0.000 A 
ATOM     27  C   UNL     1      -4.902   0.530   0.130  0.00  0.00    +0.000 A 
ATOM     28  C   UNL     1      -4.810   1.319   1.254  0.00  0.00    +0.000 A 
ATOM     29  C   UNL     1      -5.890   1.664   2.034  0.00  0.00    +0.000 A 
ENDBRANCH  17  27
ENDBRANCH  16  20
ENDBRANCH   1  16
TORSDOF 7
