REMARK  Name = 
REMARK  8 active torsions:
REMARK  status: ('A' for Active; 'I' for Inactive)
REMARK    1  A    between atoms: C_2  and  C_3
REMARK    2  A    between atoms: C_3  and  N_4
REMARK    3  A    between atoms: C_5  and  S_6
REMARK    4  A    between atoms: S_6  and  C_7
REMARK    5  A    between atoms: C_7  and  C_8
REMARK    6  A    between atoms: N_10  and  C_11
REMARK    7  A    between atoms: C_16  and  C_17
REMARK    8  A    between atoms: C_22  and  C_23
REMARK                            x       y       z     vdW  Elec       q    Type
REMARK                         _______ _______ _______ _____ _____    ______ ____
ROOT
ATOM      1  N   UNL     1       2.238   0.160  -0.030  0.00  0.00    +0.000 N 
ATOM      2  C   UNL     1       1.358  -0.302   0.889  0.00  0.00    +0.000 A 
ATOM      3  N   UNL     1       2.083  -0.692   1.951  0.00  0.00    +0.000 NA
ATOM      4  N   UNL     1       3.353  -0.473   1.679  0.00  0.00    +0.000 NA
ATOM      5  C   UNL     1       3.495   0.065   0.436  0.00  0.00    +0.000 A 
ENDROOT
BRANCH   5   6
ATOM      6  C   UNL     1       4.731   0.441  -0.226  0.00  0.00    +0.000 A 
ATOM      7  C   UNL     1       4.734   0.964  -1.490  0.00  0.00    +0.000 A 
ATOM      8  C   UNL     1       5.928   1.317  -2.107  0.00  0.00    +0.000 A 
ATOM      9  C   UNL     1       7.138   1.156  -1.475  0.00  0.00    +0.000 A 
ATOM     10  C   UNL     1       7.142   0.630  -0.203  0.00  0.00    +0.000 A 
ATOM     11  C   UNL     1       8.454   0.462   0.466  0.00  0.00    +0.000 C 
ATOM     12  C   UNL     1       5.944   0.282   0.401  0.00  0.00    +0.000 A 
ENDBRANCH   5   6
BRANCH   1  13
ATOM     13  C   UNL     1       1.798   0.660  -1.308  0.00  0.00    +0.000 C 
BRANCH  13  15
ATOM     14  C   UNL     1       2.090   2.970  -2.067  0.00  0.00    +0.000 C 
ATOM     15  C   UNL     1       1.488   2.092  -1.306  0.00  0.00    +0.000 C 
ENDBRANCH  13  15
ENDBRANCH   1  13
BRANCH   2  16
ATOM     16  S   UNL     1      -0.419  -0.375   0.719  0.00  0.00    +0.000 S 
BRANCH  16  17
ATOM     17  C   UNL     1      -0.963  -1.928  -0.002  0.00  0.00    +0.000 C 
BRANCH  17  18
ATOM     18  C   UNL     1      -2.439  -1.911  -0.111  0.00  0.00    +0.000 C 
ATOM     19  O   UNL     1      -2.973  -2.958  -0.609  0.00  0.00    +0.000 OA
ATOM     20  N   UNL     1      -3.282  -0.867   0.279  0.00  0.00    +0.000 NA
BRANCH  20  21
ATOM     21  C   UNL     1      -4.703  -1.013   0.104  0.00  0.00    +0.000 A 
ATOM     22  C   UNL     1      -5.231  -2.171  -0.443  0.00  0.00    +0.000 A 
ATOM     23  C   UNL     1      -6.587  -2.328  -0.618  0.00  0.00    +0.000 A 
ATOM     24  C   UNL     1      -7.475  -1.331  -0.253  0.00  0.00    +0.000 A 
ATOM     25  C   UNL     1      -6.924  -0.188   0.289  0.00  0.00    +0.000 A 
ATOM     26  C   UNL     1      -5.568  -0.024   0.467  0.00  0.00    +0.000 A 
BRANCH  26  27
ATOM     27  C   UNL     1      -5.020   1.231   1.056  0.00  0.00    +0.000 C 
ATOM     28  C   UNL     1      -6.186   2.154   1.386  0.00  0.00    +0.000 C 
ATOM     29  C   UNL     1      -4.204   1.978  -0.008  0.00  0.00    +0.000 C 
ENDBRANCH  26  27
ENDBRANCH  20  21
ENDBRANCH  17  18
ENDBRANCH  16  17
ENDBRANCH   2  16
TORSDOF 8
