REMARK  Name = 
REMARK  4 active torsions:
REMARK  status: ('A' for Active; 'I' for Inactive)
REMARK    1  A    between atoms: C_4  and  O_5
REMARK    2  A    between atoms: O_5  and  C_6
REMARK    3  A    between atoms: C_6  and  C_8
REMARK    4  A    between atoms: C_8  and  C_10
REMARK                            x       y       z     vdW  Elec       q    Type
REMARK                         _______ _______ _______ _____ _____    ______ ____
ROOT
ATOM      1  O   UNL     1      -0.265  -0.534  -0.663  0.00  0.00    +0.000 OA
ENDROOT
BRANCH   1   5
ATOM      2  C   UNL     1      -2.400   1.710   1.418  0.00  0.00    +0.000 C 
ATOM      3  C   UNL     1      -3.017   0.217   1.827  0.00  0.00    +0.000 C 
ATOM      4  C   UNL     1      -2.080  -0.760   0.825  0.00  0.00    +0.000 C 
ATOM      5  C   UNL     1      -1.169   0.396   0.093  0.00  0.00    +0.000 C 
ATOM      6  C   UNL     1      -2.331   0.389  -1.217  0.00  0.00    +0.000 C 
ATOM      7  C   UNL     1      -3.586   0.816  -0.606  0.00  0.00    +0.000 C 
ATOM      8  C   UNL     1      -3.718   2.343  -0.792  0.00  0.00    +0.000 C 
ATOM      9  C   UNL     1      -4.597   0.261  -1.650  0.00  0.00    +0.000 C 
ATOM     10  C   UNL     1      -4.160   0.315   0.612  0.00  0.00    +0.000 C 
ENDBRANCH   1   5
BRANCH   1  11
ATOM     11  C   UNL     1       0.581  -1.165   0.151  0.00  0.00    +0.000 C 
ATOM     12  O   UNL     1       0.482  -1.095   1.340  0.00  0.00    +0.000 OA
BRANCH  11  13
ATOM     13  C   UNL     1       1.739  -1.964  -0.644  0.00  0.00    +0.000 C 
ATOM     14  O   UNL     1       2.407  -2.599   0.627  0.00  0.00    +0.000 OA
BRANCH  13  15
ATOM     15  C   UNL     1       2.792  -0.694  -0.516  0.00  0.00    +0.000 A 
ATOM     16  C   UNL     1       2.355   0.509  -0.113  0.00  0.00    +0.000 A 
ATOM     17  C   UNL     1       3.307   1.499  -0.046  0.00  0.00    +0.000 A 
ATOM     18  C   UNL     1       4.631   1.321  -0.350  0.00  0.00    +0.000 A 
ATOM     19  C   UNL     1       4.972   0.035  -0.744  0.00  0.00    +0.000 A 
ATOM     20  C   UNL     1       4.058  -1.000  -0.834  0.00  0.00    +0.000 A 
ENDBRANCH  13  15
ENDBRANCH  11  13
ENDBRANCH   1  11
TORSDOF 4
