REMARK  Name = 
REMARK  10 active torsions:
REMARK  status: ('A' for Active; 'I' for Inactive)
REMARK    1  A    between atoms: C_2  and  O_3
REMARK    2  A    between atoms: O_3  and  C_4
REMARK    3  A    between atoms: C_4  and  C_6
REMARK    4  A    between atoms: C_7  and  C_8
REMARK    5  A    between atoms: C_17  and  N_18
REMARK    6  A    between atoms: C_19  and  C_21
REMARK    7  A    between atoms: C_21  and  N_22
REMARK    8  A    between atoms: N_22  and  C_23
REMARK    9  A    between atoms: C_23  and  C_24
REMARK   10  A    between atoms: C_24  and  C_25
REMARK                            x       y       z     vdW  Elec       q    Type
REMARK                         _______ _______ _______ _____ _____    ______ ____
ROOT
ATOM      1  C   UNL     1      -2.163   0.074  -0.003  0.00  0.00    +0.000 A 
ATOM      2  C   UNL     1      -3.094  -0.583   0.734  0.00  0.00    +0.000 A 
ATOM      3  C   UNL     1      -2.621  -1.582   1.553  0.00  0.00    +0.000 A 
ATOM      4  S   UNL     1      -0.955  -1.587   1.294  0.00  0.00    +0.000 S 
ATOM      5  C   UNL     1      -0.857  -0.334   0.156  0.00  0.00    +0.000 A 
ENDROOT
BRANCH   2   6
ATOM      6  C   UNL     1      -4.563  -0.286   0.751  0.00  0.00    +0.000 A 
ATOM      7  C   UNL     1      -5.062   0.969   1.001  0.00  0.00    +0.000 A 
ATOM      8  C   UNL     1      -6.417   1.224   1.014  0.00  0.00    +0.000 A 
ATOM      9  C   UNL     1      -7.333   0.224   0.776  0.00  0.00    +0.000 A 
ATOM     10  C   UNL     1      -8.812   0.503   0.790  0.00  0.00    +0.000 C 
ATOM     11  C   UNL     1      -6.847  -1.040   0.524  0.00  0.00    +0.000 A 
ATOM     12  C   UNL     1      -5.487  -1.281   0.514  0.00  0.00    +0.000 A 
ENDBRANCH   2   6
BRANCH   5  13
ATOM     13  N   UNL     1       0.310   0.215  -0.517  0.00  0.00    +0.000 NA
ATOM     14  C   UNL     1       1.556  -0.375  -0.185  0.00  0.00    +0.000 C 
ATOM     15  O   UNL     1       1.611  -1.318   0.647  0.00  0.00    +0.000 OA
BRANCH  14  16
ATOM     16  C   UNL     1       2.818   0.079  -0.787  0.00  0.00    +0.000 C 
BRANCH  16  17
ATOM     17  N   UNL     1       3.963  -0.662  -0.304  0.00  0.00    +0.000 NA
BRANCH  17  18
ATOM     18  C   UNL     1       4.233  -0.390   1.098  0.00  0.00    +0.000 C 
BRANCH  18  19
ATOM     19  C   UNL     1       5.447  -1.227   1.474  0.00  0.00    +0.000 C 
BRANCH  19  20
ATOM     20  C   UNL     1       6.642  -0.892   0.677  0.00  0.00    +0.000 A 
ATOM     21  C   UNL     1       6.878  -1.538  -0.503  0.00  0.00    +0.000 A 
ATOM     22  C   UNL     1       7.978  -1.257  -1.269  0.00  0.00    +0.000 A 
ATOM     23  C   UNL     1       8.856  -0.293  -0.818  0.00  0.00    +0.000 A 
ATOM     24  C   UNL     1       8.626   0.373   0.384  0.00  0.00    +0.000 A 
ATOM     25  C   UNL     1       7.509   0.061   1.125  0.00  0.00    +0.000 A 
ENDBRANCH  19  20
ENDBRANCH  18  19
ENDBRANCH  17  18
ENDBRANCH  16  17
ENDBRANCH  14  16
ENDBRANCH   5  13
BRANCH   1  26
ATOM     26  C   UNL     1      -2.509   1.170  -0.958  0.00  0.00    +0.000 C 
ATOM     27  O   UNL     1      -3.672   1.575  -1.148  0.00  0.00    +0.000 OA
BRANCH  26  28
ATOM     28  O   UNL     1      -1.515   1.813  -1.705  0.00  0.00    +0.000 OA
BRANCH  28  30
ATOM     29  C   UNL     1      -2.729   2.389  -3.708  0.00  0.00    +0.000 C 
ATOM     30  C   UNL     1      -1.792   2.839  -2.606  0.00  0.00    +0.000 C 
ENDBRANCH  28  30
ENDBRANCH  26  28
ENDBRANCH   1  26
TORSDOF 10
