REMARK  Name = 
REMARK  6 active torsions:
REMARK  status: ('A' for Active; 'I' for Inactive)
REMARK    1  A    between atoms: O_2  and  C_3
REMARK    2  A    between atoms: C_6  and  O_7
REMARK    3  A    between atoms: C_9  and  C_10
REMARK    4  A    between atoms: C_20  and  O_21
REMARK    5  A    between atoms: O_21  and  C_22
REMARK    6  A    between atoms: C_22  and  C_23
REMARK                            x       y       z     vdW  Elec       q    Type
REMARK                         _______ _______ _______ _____ _____    ______ ____
ROOT
ATOM      1  C   UNL     1      -2.175  -2.274  -1.212  0.00  0.00    +0.000 C 
ATOM      2  N   UNL     1      -1.843  -3.134   0.075  0.00  0.00    +0.000 NA
ATOM      3  C   UNL     1      -1.913  -2.454   1.250  0.00  0.00    +0.000 C 
ATOM      4  C   UNL     1      -1.564  -0.995   1.293  0.00  0.00    +0.000 C 
ATOM      5  C   UNL     1      -0.685  -0.735   0.156  0.00  0.00    +0.000 A 
ATOM      6  C   UNL     1      -0.901  -1.289  -1.037  0.00  0.00    +0.000 A 
ATOM      7  N   UNL     1      -0.015  -0.949  -1.948  0.00  0.00    +0.000 NA
ATOM      8  C   UNL     1       0.846  -0.109  -1.307  0.00  0.00    +0.000 A 
ATOM      9  C   UNL     1       1.974   0.579  -1.705  0.00  0.00    +0.000 A 
ATOM     10  C   UNL     1       2.673   1.380  -0.827  0.00  0.00    +0.000 A 
ATOM     11  C   UNL     1       2.293   1.538   0.477  0.00  0.00    +0.000 A 
ATOM     12  C   UNL     1       1.152   0.848   0.898  0.00  0.00    +0.000 A 
ATOM     13  C   UNL     1       0.462   0.051   0.010  0.00  0.00    +0.000 A 
ENDROOT
BRANCH   1  18
ATOM     14  C   UNL     1      -4.102   0.919  -0.328  0.00  0.00    +0.000 A 
ATOM     15  C   UNL     1      -5.125   0.420   0.450  0.00  0.00    +0.000 A 
ATOM     16  C   UNL     1      -5.205  -0.946   0.696  0.00  0.00    +0.000 A 
ATOM     17  C   UNL     1      -4.259  -1.798   0.158  0.00  0.00    +0.000 A 
ATOM     18  C   UNL     1      -3.266  -1.289  -0.600  0.00  0.00    +0.000 A 
ATOM     19  C   UNL     1      -3.184   0.033  -0.841  0.00  0.00    +0.000 A 
BRANCH  14  21
ATOM     20  C   UNL     1      -4.958   3.155  -0.046  0.00  0.00    +0.000 C 
ATOM     21  O   UNL     1      -4.001   2.301  -0.590  0.00  0.00    +0.000 OA
ENDBRANCH  14  21
BRANCH  17  22
ATOM     22  O   UNL     1      -4.386  -3.128   0.428  0.00  0.00    +0.000 OA
ATOM     23  C   UNL     1      -5.371  -3.738   1.194  0.00  0.00    +0.000 C 
ENDBRANCH  17  22
ENDBRANCH   1  18
BRANCH  11  24
ATOM     24  O   UNL     1       3.011   2.344   1.330  0.00  0.00    +0.000 OA
BRANCH  24  25
ATOM     25  C   UNL     1       4.149   3.009   0.856  0.00  0.00    +0.000 C 
BRANCH  25  26
ATOM     26  C   UNL     1       5.133   2.010   0.396  0.00  0.00    +0.000 A 
ATOM     27  C   UNL     1       5.486   1.809  -0.911  0.00  0.00    +0.000 A 
ATOM     28  C   UNL     1       6.420   0.839  -1.191  0.00  0.00    +0.000 A 
ATOM     29  C   UNL     1       7.002   0.073  -0.207  0.00  0.00    +0.000 A 
ATOM     30  C   UNL     1       6.634   0.293   1.081  0.00  0.00    +0.000 A 
ATOM     31  C   UNL     1       5.718   1.239   1.395  0.00  0.00    +0.000 A 
ENDBRANCH  25  26
ENDBRANCH  24  25
ENDBRANCH  11  24
TORSDOF 6
