REMARK  Name = 
REMARK  9 active torsions:
REMARK  status: ('A' for Active; 'I' for Inactive)
REMARK    1  A    between atoms: O_2  and  C_3
REMARK    2  A    between atoms: C_8  and  C_9
REMARK    3  A    between atoms: C_9  and  C_10
REMARK    4  A    between atoms: C_10  and  N_11
REMARK    5  A    between atoms: C_12  and  C_14
REMARK    6  A    between atoms: C_17  and  C_18
REMARK    7  A    between atoms: C_18  and  O_19
REMARK    8  A    between atoms: O_19  and  C_20
REMARK    9  A    between atoms: C_23  and  C_24
REMARK                            x       y       z     vdW  Elec       q    Type
REMARK                         _______ _______ _______ _____ _____    ______ ____
ROOT
ATOM      1  C   UNL     1      -0.426  -0.214  -0.397  0.00  0.00    +0.000 A 
ATOM      2  C   UNL     1       0.577   0.472  -0.963  0.00  0.00    +0.000 A 
ATOM      3  C   UNL     1       1.741   0.148  -0.242  0.00  0.00    +0.000 A 
ATOM      4  C   UNL     1       1.328  -0.724   0.719  0.00  0.00    +0.000 A 
ATOM      5  O   UNL     1       0.013  -0.952   0.633  0.00  0.00    +0.000 OA
ENDROOT
BRANCH   1   7
ATOM      6  N   UNL     1      -2.749  -1.120  -0.058  0.00  0.00    +0.000 NA
ATOM      7  C   UNL     1      -1.865  -0.258  -0.721  0.00  0.00    +0.000 C 
ATOM      8  O   UNL     1      -2.324   0.505  -1.620  0.00  0.00    +0.000 OA
BRANCH   6   9
ATOM      9  C   UNL     1      -4.158  -1.229  -0.238  0.00  0.00    +0.000 C 
BRANCH   9  10
ATOM     10  C   UNL     1      -4.729   0.133   0.119  0.00  0.00    +0.000 C 
BRANCH  10  16
ATOM     11  C   UNL     1      -6.960   0.230  -1.036  0.00  0.00    +0.000 A 
ATOM     12  C   UNL     1      -8.325   0.298  -0.925  0.00  0.00    +0.000 A 
ATOM     13  C   UNL     1      -8.965   0.311   0.300  0.00  0.00    +0.000 A 
ATOM     14  C   UNL     1      -8.191   0.256   1.453  0.00  0.00    +0.000 A 
ATOM     15  C   UNL     1      -6.840   0.190   1.344  0.00  0.00    +0.000 A 
ATOM     16  C   UNL     1      -6.186   0.175   0.096  0.00  0.00    +0.000 A 
BRANCH  11  18
ATOM     17  C   UNL     1      -7.193   0.281  -3.446  0.00  0.00    +0.000 C 
ATOM     18  O   UNL     1      -6.337   0.215  -2.306  0.00  0.00    +0.000 OA
ENDBRANCH  11  18
ENDBRANCH  10  16
ENDBRANCH   9  10
ENDBRANCH   6   9
ENDBRANCH   1   7
BRANCH   4  19
ATOM     19  C   UNL     1       2.129  -1.380   1.760  0.00  0.00    +0.000 C 
BRANCH  19  20
ATOM     20  O   UNL     1       3.193  -0.685   2.251  0.00  0.00    +0.000 OA
BRANCH  20  21
ATOM     21  C   UNL     1       4.312  -0.313   1.537  0.00  0.00    +0.000 A 
ATOM     22  C   UNL     1       4.576  -0.611   0.237  0.00  0.00    +0.000 A 
ATOM     23  C   UNL     1       5.729  -0.225  -0.456  0.00  0.00    +0.000 A 
ATOM     24  C   UNL     1       6.697   0.532   0.242  0.00  0.00    +0.000 A 
ATOM     25  C   UNL     1       6.419   0.825   1.545  0.00  0.00    +0.000 A 
ATOM     26  C   UNL     1       5.291   0.450   2.235  0.00  0.00    +0.000 A 
BRANCH  24  27
ATOM     27  C   UNL     1       7.974   0.956  -0.379  0.00  0.00    +0.000 C 
ATOM     28  C   UNL     1       8.579   1.973   0.586  0.00  0.00    +0.000 C 
ATOM     29  C   UNL     1       8.906  -0.228  -0.560  0.00  0.00    +0.000 C 
ATOM     30  C   UNL     1       7.780   1.628  -1.707  0.00  0.00    +0.000 C 
ENDBRANCH  24  27
ENDBRANCH  20  21
ENDBRANCH  19  20
ENDBRANCH   4  19
TORSDOF 9
