REMARK  Name = 
REMARK  6 active torsions:
REMARK  status: ('A' for Active; 'I' for Inactive)
REMARK    1  A    between atoms: C_5  and  C_6
REMARK    2  A    between atoms: C_11  and  C_13
REMARK    3  A    between atoms: C_17  and  O_18
REMARK    4  A    between atoms: O_18  and  C_19
REMARK    5  A    between atoms: C_19  and  C_20
REMARK    6  A    between atoms: C_20  and  C_21
REMARK                            x       y       z     vdW  Elec       q    Type
REMARK                         _______ _______ _______ _____ _____    ______ ____
ROOT
ATOM      1  C   UNL     1      -3.116  -0.753   1.442  0.00  0.00    +0.000 A 
ATOM      2  C   UNL     1      -2.647  -1.234   2.644  0.00  0.00    +0.000 A 
ATOM      3  S   UNL     1      -0.956  -1.135   2.428  0.00  0.00    +0.000 S 
ATOM      4  C   UNL     1      -0.950  -0.499   0.849  0.00  0.00    +0.000 A 
ATOM      5  N   UNL     1       0.120  -0.131  -0.045  0.00  0.00    +0.000 NA
ATOM      6  C   UNL     1       1.471  -0.293   0.382  0.00  0.00    +0.000 C 
ATOM      7  O   UNL     1       1.658  -0.753   1.527  0.00  0.00    +0.000 OA
ATOM      8  N   UNL     1      -2.230  -0.394   0.566  0.00  0.00    +0.000 NA
ENDROOT
BRANCH   1  13
ATOM      9  C   UNL     1      -8.762  -0.355   0.349  0.00  0.00    +0.000 C 
ATOM     10  C   UNL     1      -7.290  -0.459   0.634  0.00  0.00    +0.000 A 
ATOM     11  C   UNL     1      -6.827  -0.940   1.837  0.00  0.00    +0.000 A 
ATOM     12  C   UNL     1      -5.486  -1.052   2.139  0.00  0.00    +0.000 A 
ATOM     13  C   UNL     1      -4.580  -0.669   1.205  0.00  0.00    +0.000 A 
ATOM     14  C   UNL     1      -5.032  -0.186  -0.001  0.00  0.00    +0.000 A 
ATOM     15  C   UNL     1      -4.121   0.212  -0.974  0.00  0.00    +0.000 A 
ATOM     16  C   UNL     1      -4.541   0.699  -2.191  0.00  0.00    +0.000 A 
ATOM     17  C   UNL     1      -5.881   0.814  -2.500  0.00  0.00    +0.000 A 
ATOM     18  C   UNL     1      -6.793   0.425  -1.551  0.00  0.00    +0.000 A 
ATOM     19  C   UNL     1      -6.369  -0.070  -0.314  0.00  0.00    +0.000 A 
ENDBRANCH   1  13
BRANCH   6  20
ATOM     20  C   UNL     1       2.602   0.053  -0.457  0.00  0.00    +0.000 A 
ATOM     21  C   UNL     1       2.440   0.563  -1.726  0.00  0.00    +0.000 A 
ATOM     22  C   UNL     1       3.534   0.886  -2.509  0.00  0.00    +0.000 A 
ATOM     23  C   UNL     1       4.802   0.707  -2.039  0.00  0.00    +0.000 A 
ATOM     24  C   UNL     1       5.006   0.201  -0.780  0.00  0.00    +0.000 A 
ATOM     25  C   UNL     1       3.890  -0.121  -0.001  0.00  0.00    +0.000 A 
BRANCH  24  26
ATOM     26  O   UNL     1       6.283   0.025  -0.319  0.00  0.00    +0.000 OA
BRANCH  26  27
ATOM     27  C   UNL     1       7.380   0.357  -1.125  0.00  0.00    +0.000 C 
BRANCH  27  28
ATOM     28  C   UNL     1       8.699   0.099  -0.460  0.00  0.00    +0.000 C 
BRANCH  28  29
ATOM     29  C   UNL     1       8.818   0.914   0.814  0.00  0.00    +0.000 C 
ATOM     30  C   UNL     1       8.704   2.375   0.399  0.00  0.00    +0.000 C 
ATOM     31  C   UNL     1      10.175   0.713   1.436  0.00  0.00    +0.000 C 
ENDBRANCH  28  29
ENDBRANCH  27  28
ENDBRANCH  26  27
ENDBRANCH  24  26
ENDBRANCH   6  20
TORSDOF 6
