REMARK  Name = 
REMARK  5 active torsions:
REMARK  status: ('A' for Active; 'I' for Inactive)
REMARK    1  A    between atoms: C_2  and  N_4
REMARK    2  A    between atoms: N_4  and  C_30
REMARK    3  A    between atoms: C_5  and  C_7
REMARK    4  A    between atoms: C_10  and  C_11
REMARK    5  A    between atoms: N_13  and  N_14
REMARK                            x       y       z     vdW  Elec       q    Type
REMARK                         _______ _______ _______ _____ _____    ______ ____
ROOT
ATOM      1  C   UNL     1      -0.266  -0.073  -0.712  0.00  0.00    +0.000 C 
ATOM      2  O   UNL     1      -0.687  -0.794  -1.646  0.00  0.00    +0.000 OA
ATOM      3  N   UNL     1      -1.229   0.531   0.129  0.00  0.00    +0.000 NA
ENDROOT
BRANCH   3   4
ATOM      4  N   UNL     1      -2.502   0.517   0.168  0.00  0.00    +0.000 NA
ATOM      5  C   UNL     1      -3.671   0.241   0.105  0.00  0.00    +0.000 C 
ATOM      6  C   UNL     1      -4.781   1.155   0.480  0.00  0.00    +0.000 A 
ATOM      7  C   UNL     1      -4.755   2.441   0.954  0.00  0.00    +0.000 A 
ATOM      8  C   UNL     1      -5.924   3.100   1.243  0.00  0.00    +0.000 A 
ATOM      9  C   UNL     1      -7.143   2.445   1.048  0.00  0.00    +0.000 A 
ATOM     10  C   UNL     1      -7.184   1.152   0.573  0.00  0.00    +0.000 A 
ATOM     11  C   UNL     1      -5.974   0.522   0.293  0.00  0.00    +0.000 A 
ATOM     12  C   UNL     1      -5.717  -0.839  -0.212  0.00  0.00    +0.000 A 
ATOM     13  C   UNL     1      -6.594  -1.847  -0.548  0.00  0.00    +0.000 A 
ATOM     14  C   UNL     1      -6.098  -3.040  -1.001  0.00  0.00    +0.000 A 
ATOM     15  C   UNL     1      -4.733  -3.203  -1.112  0.00  0.00    +0.000 A 
ATOM     16  C   UNL     1      -3.870  -2.188  -0.774  0.00  0.00    +0.000 A 
ATOM     17  C   UNL     1      -4.357  -0.992  -0.319  0.00  0.00    +0.000 A 
ENDBRANCH   3   4
BRANCH   1  21
ATOM     18  C   UNL     1       3.956   0.574  -0.117  0.00  0.00    +0.000 A 
ATOM     19  C   UNL     1       3.433  -0.682  -0.279  0.00  0.00    +0.000 A 
ATOM     20  C   UNL     1       2.071  -0.918  -0.472  0.00  0.00    +0.000 A 
ATOM     21  C   UNL     1       1.170   0.127  -0.508  0.00  0.00    +0.000 A 
ATOM     22  C   UNL     1       1.694   1.398  -0.344  0.00  0.00    +0.000 A 
ATOM     23  C   UNL     1       3.033   1.627  -0.156  0.00  0.00    +0.000 A 
BRANCH  18  25
ATOM     24  N   UNL     1       6.331  -0.138   0.297  0.00  0.00    +0.000 N 
ATOM     25  C   UNL     1       5.365   0.848   0.113  0.00  0.00    +0.000 C 
ATOM     26  O   UNL     1       5.723   2.074   0.148  0.00  0.00    +0.000 OA
BRANCH  24  28
ATOM     27  C   UNL     1       7.904   1.743   0.491  0.00  0.00    +0.000 C 
ATOM     28  C   UNL     1       7.732   0.241   0.497  0.00  0.00    +0.000 C 
ATOM     29  C   UNL     1       8.527  -0.319  -0.667  0.00  0.00    +0.000 C 
ENDBRANCH  24  28
BRANCH  24  30
ATOM     30  C   UNL     1       6.018  -1.551   0.326  0.00  0.00    +0.000 C 
ATOM     31  C   UNL     1       5.219  -1.785   1.622  0.00  0.00    +0.000 C 
ATOM     32  C   UNL     1       7.309  -2.367   0.492  0.00  0.00    +0.000 C 
ENDBRANCH  24  30
ENDBRANCH  18  25
ENDBRANCH   1  21
TORSDOF 5
