REMARK  Name = 
REMARK  7 active torsions:
REMARK  status: ('A' for Active; 'I' for Inactive)
REMARK    1  A    between atoms: C_2  and  C_3
REMARK    2  A    between atoms: C_3  and  C_4
REMARK    3  A    between atoms: C_4  and  C_5
REMARK    4  A    between atoms: C_5  and  N_6
REMARK    5  A    between atoms: C_9  and  C_10
REMARK    6  A    between atoms: N_12  and  C_13
REMARK    7  A    between atoms: C_13  and  C_14
REMARK                            x       y       z     vdW  Elec       q    Type
REMARK                         _______ _______ _______ _____ _____    ______ ____
ROOT
ATOM      1  N   UNL     1      -1.952   1.413   1.040  0.00  0.00    +0.000 N 
ATOM      2  C   UNL     1      -0.827   1.824   0.443  0.00  0.00    +0.000 A 
ATOM      3  N   UNL     1      -0.338   3.165   0.393  0.00  0.00    +0.000 NA
ATOM      4  C   UNL     1      -0.170   0.761  -0.140  0.00  0.00    +0.000 A 
ATOM      5  C   UNL     1      -0.977  -0.340   0.143  0.00  0.00    +0.000 A 
ATOM      6  N   UNL     1      -0.810  -1.633  -0.189  0.00  0.00    +0.000 NA
ATOM      7  C   UNL     1      -1.689  -2.582   0.164  0.00  0.00    +0.000 A 
ATOM      8  C   UNL     1      -1.534  -3.910  -0.166  0.00  0.00    +0.000 A 
ATOM      9  C   UNL     1      -2.453  -4.869   0.209  0.00  0.00    +0.000 A 
ATOM     10  C   UNL     1      -3.548  -4.450   0.938  0.00  0.00    +0.000 A 
ATOM     11  C   UNL     1      -3.711  -3.119   1.274  0.00  0.00    +0.000 A 
ATOM     12  C   UNL     1      -2.794  -2.164   0.898  0.00  0.00    +0.000 A 
ATOM     13  N   UNL     1      -2.959  -0.852   1.233  0.00  0.00    +0.000 NA
ATOM     14  C   UNL     1      -2.061   0.072   0.864  0.00  0.00    +0.000 A 
ENDROOT
BRANCH   4  15
ATOM     15  C   UNL     1       1.080   0.760  -0.883  0.00  0.00    +0.000 C 
ATOM     16  O   UNL     1       1.706   1.828  -1.061  0.00  0.00    +0.000 OA
ATOM     17  N   UNL     1       1.590  -0.441  -1.406  0.00  0.00    +0.000 NA
BRANCH  17  18
ATOM     18  C   UNL     1       2.833  -0.522  -2.161  0.00  0.00    +0.000 C 
BRANCH  18  19
ATOM     19  C   UNL     1       3.999  -0.435  -1.245  0.00  0.00    +0.000 A 
ATOM     20  C   UNL     1       5.242  -0.440  -1.839  0.00  0.00    +0.000 A 
ATOM     21  C   UNL     1       6.384  -0.367  -1.111  0.00  0.00    +0.000 A 
ATOM     22  C   UNL     1       6.254  -0.286   0.271  0.00  0.00    +0.000 A 
ATOM     23  C   UNL     1       7.521  -0.206   1.054  0.00  0.00    +0.000 C 
ATOM     24  C   UNL     1       5.003  -0.281   0.886  0.00  0.00    +0.000 A 
ATOM     25  C   UNL     1       3.862  -0.355   0.122  0.00  0.00    +0.000 A 
ENDBRANCH  18  19
ENDBRANCH  17  18
ENDBRANCH   4  15
BRANCH   1  26
ATOM     26  C   UNL     1      -2.916   2.229   1.760  0.00  0.00    +0.000 C 
BRANCH  26  27
ATOM     27  C   UNL     1      -3.952   2.708   0.779  0.00  0.00    +0.000 C 
BRANCH  27  28
ATOM     28  C   UNL     1      -3.268   3.520  -0.291  0.00  0.00    +0.000 C 
BRANCH  28  30
ATOM     29  C   UNL     1      -5.276   4.934  -0.655  0.00  0.00    +0.000 C 
ATOM     30  C   UNL     1      -4.235   4.041  -1.323  0.00  0.00    +0.000 C 
ENDBRANCH  28  30
ENDBRANCH  27  28
ENDBRANCH  26  27
ENDBRANCH   1  26
TORSDOF 7
