REMARK  Name = 
REMARK  6 active torsions:
REMARK  status: ('A' for Active; 'I' for Inactive)
REMARK    1  A    between atoms: C_2  and  O_3
REMARK    2  A    between atoms: O_3  and  C_4
REMARK    3  A    between atoms: C_7  and  N_8
REMARK    4  A    between atoms: C_9  and  C_11
REMARK    5  A    between atoms: C_12  and  N_13
REMARK    6  A    between atoms: C_14  and  C_16
REMARK                            x       y       z     vdW  Elec       q    Type
REMARK                         _______ _______ _______ _____ _____    ______ ____
ROOT
ATOM      1  C   UNL     1      -1.241  -1.511  -0.268  0.00  0.00    +0.000 A 
ATOM      2  C   UNL     1      -2.337  -0.720  -0.337  0.00  0.00    +0.000 A 
ATOM      3  S   UNL     1      -3.625  -1.920  -0.503  0.00  0.00    +0.000 S 
ATOM      4  C   UNL     1      -2.691  -3.329  -0.464  0.00  0.00    +0.000 A 
ATOM      5  C   UNL     1      -1.423  -2.871  -0.330  0.00  0.00    +0.000 A 
ATOM      6  C   UNL     1      -0.283  -3.904  -0.249  0.00  0.00    +0.000 C 
ATOM      7  C   UNL     1      -0.887  -5.120   0.417  0.00  0.00    +0.000 C 
ATOM      8  C   UNL     1      -1.884  -5.659  -0.622  0.00  0.00    +0.000 C 
ATOM      9  C   UNL     1      -3.075  -4.794  -0.548  0.00  0.00    +0.000 C 
ENDROOT
BRANCH   1  11
ATOM     10  N   UNL     1       1.306  -1.684  -0.123  0.00  0.00    +0.000 NA
ATOM     11  C   UNL     1       0.135  -0.910  -0.347  0.00  0.00    +0.000 C 
ATOM     12  O   UNL     1       0.289   0.280  -0.609  0.00  0.00    +0.000 OA
BRANCH  10  16
ATOM     13  C   UNL     1       5.131   0.084  -0.358  0.00  0.00    +0.000 A 
ATOM     14  C   UNL     1       5.015  -1.244  -0.055  0.00  0.00    +0.000 A 
ATOM     15  C   UNL     1       3.756  -1.849   0.028  0.00  0.00    +0.000 A 
ATOM     16  C   UNL     1       2.608  -1.131  -0.192  0.00  0.00    +0.000 A 
ATOM     17  C   UNL     1       2.741   0.204  -0.496  0.00  0.00    +0.000 A 
ATOM     18  C   UNL     1       3.984   0.812  -0.580  0.00  0.00    +0.000 A 
BRANCH  13  19
ATOM     19  O   UNL     1       6.380   0.718  -0.449  0.00  0.00    +0.000 OA
BRANCH  19  21
ATOM     20  C   UNL     1       5.712   2.925   0.276  0.00  0.00    +0.000 C 
ATOM     21  C   UNL     1       6.451   2.085  -0.763  0.00  0.00    +0.000 C 
ENDBRANCH  19  21
ENDBRANCH  13  19
ENDBRANCH  10  16
ENDBRANCH   1  11
BRANCH   2  22
ATOM     22  N   UNL     1      -2.674   0.624  -0.133  0.00  0.00    +0.000 NA
ATOM     23  C   UNL     1      -2.134   1.675   0.533  0.00  0.00    +0.000 C 
ATOM     24  O   UNL     1      -1.097   1.572   1.203  0.00  0.00    +0.000 OA
BRANCH  23  25
ATOM     25  C   UNL     1      -2.759   3.041   0.503  0.00  0.00    +0.000 A 
ATOM     26  C   UNL     1      -3.908   3.206  -0.223  0.00  0.00    +0.000 A 
ATOM     27  C   UNL     1      -4.503   4.451  -0.268  0.00  0.00    +0.000 A 
ATOM     28  C   UNL     1      -3.959   5.526   0.404  0.00  0.00    +0.000 A 
ATOM     29  C   UNL     1      -2.811   5.348   1.125  0.00  0.00    +0.000 A 
ATOM     30  C   UNL     1      -2.216   4.094   1.167  0.00  0.00    +0.000 A 
ENDBRANCH  23  25
ENDBRANCH   2  22
TORSDOF 6
