REMARK  Name = 
REMARK  7 active torsions:
REMARK  status: ('A' for Active; 'I' for Inactive)
REMARK    1  A    between atoms: C_2  and  O_3
REMARK    2  A    between atoms: O_3  and  C_4
REMARK    3  A    between atoms: C_4  and  C_6
REMARK    4  A    between atoms: C_17  and  N_18
REMARK    5  A    between atoms: N_18  and  C_19
REMARK    6  A    between atoms: C_22  and  N_23
REMARK    7  A    between atoms: N_23  and  C_24
REMARK                            x       y       z     vdW  Elec       q    Type
REMARK                         _______ _______ _______ _____ _____    ______ ____
ROOT
ATOM      1  C   UNL     1      -3.073   1.298  -0.039  0.00  0.00    +0.000 A 
ATOM      2  C   UNL     1      -4.399   1.055  -0.088  0.00  0.00    +0.000 A 
ATOM      3  N   UNL     1      -4.898  -0.183  -0.169  0.00  0.00    +0.000 NA
ATOM      4  C   UNL     1      -4.040  -1.218  -0.203  0.00  0.00    +0.000 A 
ATOM      5  C   UNL     1      -4.523  -2.510  -0.286  0.00  0.00    +0.000 A 
ATOM      6  C   UNL     1      -5.988  -2.722  -0.337  0.00  0.00    +0.000 C 
ATOM      7  C   UNL     1      -3.660  -3.588  -0.322  0.00  0.00    +0.000 A 
ATOM      8  C   UNL     1      -2.292  -3.381  -0.274  0.00  0.00    +0.000 A 
ATOM      9  C   UNL     1      -1.330  -4.507  -0.310  0.00  0.00    +0.000 C 
ATOM     10  C   UNL     1      -1.831  -2.107  -0.192  0.00  0.00    +0.000 A 
ATOM     11  C   UNL     1      -2.667  -1.024  -0.155  0.00  0.00    +0.000 A 
ATOM     12  C   UNL     1      -2.144   0.246  -0.072  0.00  0.00    +0.000 A 
ENDROOT
BRANCH   1  13
ATOM     13  C   UNL     1      -2.617   2.682   0.049  0.00  0.00    +0.000 C 
ATOM     14  O   UNL     1      -1.391   2.921   0.095  0.00  0.00    +0.000 OA
BRANCH  13  15
ATOM     15  O   UNL     1      -3.511   3.735   0.083  0.00  0.00    +0.000 OA
BRANCH  15  17
ATOM     16  C   UNL     1      -2.263   5.317   1.425  0.00  0.00    +0.000 C 
ATOM     17  C   UNL     1      -3.069   5.086   0.168  0.00  0.00    +0.000 C 
ENDBRANCH  15  17
ENDBRANCH  13  15
ENDBRANCH   1  13
BRANCH  12  18
ATOM     18  N   UNL     1      -0.832   0.611  -0.017  0.00  0.00    +0.000 NA
BRANCH  18  19
ATOM     19  C   UNL     1       0.422   0.042  -0.014  0.00  0.00    +0.000 A 
ATOM     20  C   UNL     1       1.544   0.906   0.063  0.00  0.00    +0.000 A 
ATOM     21  C   UNL     1       2.821   0.429   0.071  0.00  0.00    +0.000 A 
ATOM     22  C   UNL     1       3.107  -0.914   0.005  0.00  0.00    +0.000 A 
ATOM     23  C   UNL     1       2.033  -1.776  -0.070  0.00  0.00    +0.000 A 
ATOM     24  C   UNL     1       0.750  -1.290  -0.078  0.00  0.00    +0.000 A 
BRANCH  22  25
ATOM     25  N   UNL     1       4.435  -1.416   0.013  0.00  0.00    +0.000 NA
BRANCH  25  26
ATOM     26  C   UNL     1       5.505  -0.493   0.093  0.00  0.00    +0.000 A 
ATOM     27  C   UNL     1       6.818  -0.954   0.102  0.00  0.00    +0.000 A 
ATOM     28  C   UNL     1       7.882  -0.079   0.179  0.00  0.00    +0.000 A 
ATOM     29  C   UNL     1       7.620   1.261   0.245  0.00  0.00    +0.000 A 
ATOM     30  C   UNL     1       6.325   1.732   0.236  0.00  0.00    +0.000 A 
ATOM     31  C   UNL     1       5.267   0.841   0.159  0.00  0.00    +0.000 A 
ENDBRANCH  25  26
ENDBRANCH  22  25
ENDBRANCH  18  19
ENDBRANCH  12  18
TORSDOF 7
