REMARK  Name = 
REMARK  9 active torsions:
REMARK  status: ('A' for Active; 'I' for Inactive)
REMARK    1  A    between atoms: C_2  and  O_3
REMARK    2  A    between atoms: O_3  and  C_4
REMARK    3  A    between atoms: C_6  and  C_7
REMARK    4  A    between atoms: N_8  and  N_9
REMARK    5  A    between atoms: C_10  and  C_12
REMARK    6  A    between atoms: C_15  and  O_16
REMARK    7  A    between atoms: C_22  and  O_23
REMARK    8  A    between atoms: O_23  and  C_24
REMARK    9  A    between atoms: C_24  and  C_25
REMARK                            x       y       z     vdW  Elec       q    Type
REMARK                         _______ _______ _______ _____ _____    ______ ____
ROOT
ATOM      1  C   UNL     1       2.167  -0.025  -1.135  0.00  0.00    +0.000 A 
ATOM      2  C   UNL     1       0.794   0.154  -1.263  0.00  0.00    +0.000 A 
ATOM      3  C   UNL     1      -0.013   0.399  -0.173  0.00  0.00    +0.000 A 
ATOM      4  C   UNL     1       0.604   0.459   1.060  0.00  0.00    +0.000 A 
ATOM      5  C   UNL     1       1.965   0.284   1.220  0.00  0.00    +0.000 A 
ATOM      6  C   UNL     1       2.760   0.039   0.108  0.00  0.00    +0.000 A 
ENDROOT
BRANCH   3   7
ATOM      7  C   UNL     1      -1.470   0.587  -0.332  0.00  0.00    +0.000 C 
ATOM      8  N   UNL     1      -2.239   0.815   0.657  0.00  0.00    +0.000 NA
BRANCH   8   9
ATOM      9  N   UNL     1      -3.615   0.989   0.479  0.00  0.00    +0.000 NA
ATOM     10  C   UNL     1      -4.494  -0.126   0.412  0.00  0.00    +0.000 C 
ATOM     11  O   UNL     1      -3.984  -1.271   0.519  0.00  0.00    +0.000 OA
BRANCH  10  12
ATOM     12  C   UNL     1      -5.929   0.073   0.225  0.00  0.00    +0.000 A 
ATOM     13  C   UNL     1      -6.426   1.353   0.114  0.00  0.00    +0.000 A 
ATOM     14  C   UNL     1      -7.794   1.557  -0.064  0.00  0.00    +0.000 A 
ATOM     15  C   UNL     1      -8.691   0.512  -0.136  0.00  0.00    +0.000 A 
ATOM     16  C   UNL     1      -8.185  -0.765  -0.024  0.00  0.00    +0.000 A 
ATOM     17  C   UNL     1      -6.818  -0.977   0.154  0.00  0.00    +0.000 A 
BRANCH  15  18
ATOM     18  O   UNL     1     -10.064   0.714  -0.315  0.00  0.00    +0.000 OA
ATOM     19  C   UNL     1     -10.573   2.029  -0.429  0.00  0.00    +0.000 C 
ENDBRANCH  15  18
ENDBRANCH  10  12
ENDBRANCH   8   9
ENDBRANCH   3   7
BRANCH   1  20
ATOM     20  O   UNL     1       2.980  -0.272  -2.231  0.00  0.00    +0.000 OA
BRANCH  20  22
ATOM     21  C   UNL     1       1.508  -1.451  -3.754  0.00  0.00    +0.000 C 
ATOM     22  C   UNL     1       2.512  -0.363  -3.549  0.00  0.00    +0.000 C 
ENDBRANCH  20  22
ENDBRANCH   1  20
BRANCH   6  23
ATOM     23  O   UNL     1       4.130  -0.143   0.215  0.00  0.00    +0.000 OA
BRANCH  23  24
ATOM     24  C   UNL     1       4.837  -0.101   1.417  0.00  0.00    +0.000 C 
BRANCH  24  25
ATOM     25  C   UNL     1       6.268  -0.339   1.122  0.00  0.00    +0.000 A 
ATOM     26  C   UNL     1       7.127   0.694   0.843  0.00  0.00    +0.000 A 
ATOM     27  C   UNL     1       8.462   0.474   0.568  0.00  0.00    +0.000 A 
ATOM     28  C   UNL     1       8.924  -0.811   0.579  0.00  0.00    +0.000 A 
ATOM     29  C   UNL     1      10.386  -1.002   0.274  0.00  0.00    +0.000 C 
ATOM     30  C   UNL     1       8.104  -1.866   0.853  0.00  0.00    +0.000 A 
ATOM     31  C   UNL     1       6.766  -1.620   1.125  0.00  0.00    +0.000 A 
ENDBRANCH  24  25
ENDBRANCH  23  24
ENDBRANCH   6  23
TORSDOF 9
