REMARK  Name = 
REMARK  7 active torsions:
REMARK  status: ('A' for Active; 'I' for Inactive)
REMARK    1  A    between atoms: C_2  and  O_3
REMARK    2  A    between atoms: O_3  and  C_4
REMARK    3  A    between atoms: C_5  and  O_6
REMARK    4  A    between atoms: C_11  and  C_12
REMARK    5  A    between atoms: C_22  and  O_23
REMARK    6  A    between atoms: O_23  and  C_24
REMARK    7  A    between atoms: C_24  and  C_25
REMARK                            x       y       z     vdW  Elec       q    Type
REMARK                         _______ _______ _______ _____ _____    ______ ____
ROOT
ATOM      1  C   UNL     1      -2.379  -0.689  -1.623  0.00  0.00    +0.000 C 
ATOM      2  N   UNL     1      -2.884   0.795  -1.854  0.00  0.00    +0.000 NA
ATOM      3  C   UNL     1      -1.969   1.435  -2.729  0.00  0.00    +0.000 C 
ATOM      4  C   UNL     1      -0.960   2.035  -1.760  0.00  0.00    +0.000 C 
ATOM      5  C   UNL     1      -0.351   0.856  -1.136  0.00  0.00    +0.000 A 
ATOM      6  C   UNL     1      -0.920  -0.309  -1.058  0.00  0.00    +0.000 A 
ATOM      7  N   UNL     1      -0.133  -1.185  -0.440  0.00  0.00    +0.000 NA
ATOM      8  C   UNL     1       1.014  -0.583  -0.087  0.00  0.00    +0.000 A 
ATOM      9  C   UNL     1       2.156  -1.011   0.564  0.00  0.00    +0.000 A 
ATOM     10  C   UNL     1       3.205  -0.129   0.791  0.00  0.00    +0.000 A 
ATOM     11  C   UNL     1       3.109   1.173   0.367  0.00  0.00    +0.000 A 
ATOM     12  C   UNL     1       1.954   1.564  -0.280  0.00  0.00    +0.000 A 
ATOM     13  C   UNL     1       0.884   0.743  -0.533  0.00  0.00    +0.000 A 
ENDROOT
BRANCH   1  19
ATOM     14  C   UNL     1      -4.374  -0.324  -0.093  0.00  0.00    +0.000 A 
ATOM     15  C   UNL     1      -5.053  -0.427   1.116  0.00  0.00    +0.000 A 
ATOM     16  C   UNL     1      -4.410  -1.040   2.170  0.00  0.00    +0.000 A 
ATOM     17  C   UNL     1      -3.117  -1.538   2.015  0.00  0.00    +0.000 A 
ATOM     18  C   UNL     1      -2.451  -1.431   0.812  0.00  0.00    +0.000 A 
ATOM     19  C   UNL     1      -3.104  -0.831  -0.190  0.00  0.00    +0.000 A 
BRANCH  15  20
ATOM     20  O   UNL     1      -6.337   0.093   1.193  0.00  0.00    +0.000 OA
ATOM     21  C   UNL     1      -7.096   0.028   2.387  0.00  0.00    +0.000 C 
ENDBRANCH  15  20
BRANCH  14  22
ATOM     22  O   UNL     1      -5.036   0.297  -1.143  0.00  0.00    +0.000 OA
BRANCH  22  24
ATOM     23  C   UNL     1      -6.963  -1.044  -1.273  0.00  0.00    +0.000 C 
ATOM     24  C   UNL     1      -5.845  -0.388  -2.066  0.00  0.00    +0.000 C 
ENDBRANCH  22  24
ENDBRANCH  14  22
ENDBRANCH   1  19
BRANCH  11  25
ATOM     25  O   UNL     1       4.152   2.061   0.589  0.00  0.00    +0.000 OA
BRANCH  25  26
ATOM     26  C   UNL     1       5.349   1.760   1.228  0.00  0.00    +0.000 C 
BRANCH  26  27
ATOM     27  C   UNL     1       6.160   0.707   0.600  0.00  0.00    +0.000 A 
ATOM     28  C   UNL     1       7.075   0.988  -0.395  0.00  0.00    +0.000 A 
ATOM     29  C   UNL     1       7.824  -0.023  -0.964  0.00  0.00    +0.000 A 
ATOM     30  C   UNL     1       7.684  -1.343  -0.560  0.00  0.00    +0.000 A 
ATOM     31  C   UNL     1       6.781  -1.628   0.424  0.00  0.00    +0.000 A 
ATOM     32  C   UNL     1       6.039  -0.612   0.985  0.00  0.00    +0.000 A 
ENDBRANCH  26  27
ENDBRANCH  25  26
ENDBRANCH  11  25
TORSDOF 7
