REMARK  Name = 
REMARK  6 active torsions:
REMARK  status: ('A' for Active; 'I' for Inactive)
REMARK    1  A    between atoms: C_2  and  C_3
REMARK    2  A    between atoms: C_3  and  C_4
REMARK    3  A    between atoms: C_4  and  N_5
REMARK    4  A    between atoms: C_6  and  C_8
REMARK    5  A    between atoms: N_14  and  C_15
REMARK    6  A    between atoms: C_15  and  C_16
REMARK                            x       y       z     vdW  Elec       q    Type
REMARK                         _______ _______ _______ _____ _____    ______ ____
ROOT
ATOM      1  C   UNL     1       2.204  -0.916   0.276  0.00  0.00    +0.000 A 
ATOM      2  C   UNL     1       1.999  -1.748   1.352  0.00  0.00    +0.000 A 
ATOM      3  C   UNL     1       0.734  -2.111   1.723  0.00  0.00    +0.000 A 
ATOM      4  C   UNL     1      -0.358  -1.646   1.020  0.00  0.00    +0.000 A 
ATOM      5  C   UNL     1      -0.177  -0.797  -0.080  0.00  0.00    +0.000 A 
ATOM      6  C   UNL     1       1.117  -0.457  -0.417  0.00  0.00    +0.000 A 
ATOM      7  N   UNL     1      -1.139  -0.206  -0.937  0.00  0.00    +0.000 N 
ATOM      8  C   UNL     1      -2.445  -0.629  -1.227  0.00  0.00    +0.000 C 
ATOM      9  O   UNL     1      -3.054   0.091  -2.063  0.00  0.00    +0.000 OA
ATOM     10  C   UNL     1      -3.247  -1.748  -0.748  0.00  0.00    +0.000 A 
ATOM     11  C   UNL     1      -4.281  -2.108  -1.585  0.00  0.00    +0.000 A 
ATOM     12  C   UNL     1      -5.134  -3.129  -1.304  0.00  0.00    +0.000 A 
ATOM     13  C   UNL     1      -4.959  -3.835  -0.135  0.00  0.00    +0.000 A 
ATOM     14  C   UNL     1      -3.933  -3.484   0.704  0.00  0.00    +0.000 A 
ATOM     15  C   UNL     1      -3.066  -2.449   0.422  0.00  0.00    +0.000 A 
ATOM     16  S   UNL     1      -1.866  -2.264   1.706  0.00  0.00    +0.000 S 
ENDROOT
BRANCH   1  18
ATOM     17  N   UNL     1       3.845   0.305  -1.189  0.00  0.00    +0.000 NA
ATOM     18  C   UNL     1       3.580  -0.550  -0.088  0.00  0.00    +0.000 C 
ATOM     19  O   UNL     1       4.544  -0.999   0.582  0.00  0.00    +0.000 OA
BRANCH  17  20
ATOM     20  C   UNL     1       5.230   0.637  -1.509  0.00  0.00    +0.000 C 
BRANCH  20  21
ATOM     21  C   UNL     1       5.816   1.321  -0.311  0.00  0.00    +0.000 C 
BRANCH  21  23
ATOM     22  C   UNL     1       8.115   0.529  -0.783  0.00  0.00    +0.000 C 
ATOM     23  C   UNL     1       7.250   1.721  -0.504  0.00  0.00    +0.000 C 
ENDBRANCH  21  23
ENDBRANCH  20  21
ENDBRANCH  17  20
ENDBRANCH   1  18
BRANCH   7  24
ATOM     24  C   UNL     1      -0.681   1.000  -1.591  0.00  0.00    +0.000 C 
BRANCH  24  25
ATOM     25  C   UNL     1      -0.982   2.212  -0.789  0.00  0.00    +0.000 A 
ATOM     26  C   UNL     1      -0.611   3.448  -1.271  0.00  0.00    +0.000 A 
ATOM     27  C   UNL     1      -0.877   4.615  -0.545  0.00  0.00    +0.000 A 
ATOM     28  C   UNL     1      -1.513   4.517   0.655  0.00  0.00    +0.000 A 
ATOM     29  C   UNL     1      -1.894   3.303   1.160  0.00  0.00    +0.000 A 
ATOM     30  C   UNL     1      -2.595   3.210   2.487  0.00  0.00    +0.000 C 
ATOM     31  C   UNL     1      -1.622   2.168   0.429  0.00  0.00    +0.000 A 
ENDBRANCH  24  25
ENDBRANCH   7  24
TORSDOF 6
