REMARK  Name = 
REMARK  10 active torsions:
REMARK  status: ('A' for Active; 'I' for Inactive)
REMARK    1  A    between atoms: C_2  and  O_3
REMARK    2  A    between atoms: O_3  and  C_4
REMARK    3  A    between atoms: C_4  and  C_6
REMARK    4  A    between atoms: C_7  and  N_8
REMARK    5  A    between atoms: C_9  and  C_11
REMARK    6  A    between atoms: C_11  and  N_12
REMARK    7  A    between atoms: N_12  and  C_13
REMARK    8  A    between atoms: C_13  and  C_14
REMARK    9  A    between atoms: C_14  and  C_15
REMARK   10  A    between atoms: C_24  and  C_25
REMARK                            x       y       z     vdW  Elec       q    Type
REMARK                         _______ _______ _______ _____ _____    ______ ____
ROOT
ATOM      1  C   UNL     1      -1.728  -0.036  -0.327  0.00  0.00    +0.000 A 
ATOM      2  C   UNL     1      -0.567  -0.420   0.286  0.00  0.00    +0.000 A 
ATOM      3  S   UNL     1      -1.078  -0.964   1.812  0.00  0.00    +0.000 S 
ATOM      4  C   UNL     1      -2.754  -0.697   1.649  0.00  0.00    +0.000 A 
ATOM      5  C   UNL     1      -3.867  -0.959   2.643  0.00  0.00    +0.000 C 
ATOM      6  C   UNL     1      -2.866  -0.186   0.395  0.00  0.00    +0.000 A 
ENDROOT
BRANCH   6   7
ATOM      7  C   UNL     1      -4.203   0.188  -0.138  0.00  0.00    +0.000 A 
ATOM      8  C   UNL     1      -4.814  -0.729  -0.954  0.00  0.00    +0.000 A 
ATOM      9  C   UNL     1      -6.063  -0.513  -1.529  0.00  0.00    +0.000 A 
ATOM     10  C   UNL     1      -6.698   0.691  -1.248  0.00  0.00    +0.000 A 
ATOM     11  C   UNL     1      -8.037   1.027  -1.813  0.00  0.00    +0.000 C 
ATOM     12  C   UNL     1      -6.072   1.602  -0.427  0.00  0.00    +0.000 A 
ATOM     13  C   UNL     1      -4.819   1.371   0.141  0.00  0.00    +0.000 A 
ENDBRANCH   6   7
BRANCH   2  14
ATOM     14  N   UNL     1       0.774  -0.377  -0.230  0.00  0.00    +0.000 NA
ATOM     15  C   UNL     1       1.860  -0.828   0.587  0.00  0.00    +0.000 C 
ATOM     16  O   UNL     1       1.563  -1.243   1.734  0.00  0.00    +0.000 OA
BRANCH  15  17
ATOM     17  C   UNL     1       3.272  -0.795   0.072  0.00  0.00    +0.000 C 
BRANCH  17  18
ATOM     18  N   UNL     1       4.113  -1.309   1.135  0.00  0.00    +0.000 NA
BRANCH  18  19
ATOM     19  C   UNL     1       4.093  -0.349   2.214  0.00  0.00    +0.000 C 
BRANCH  19  20
ATOM     20  C   UNL     1       4.799   0.896   1.766  0.00  0.00    +0.000 C 
BRANCH  20  21
ATOM     21  C   UNL     1       6.200   0.605   1.400  0.00  0.00    +0.000 A 
ATOM     22  C   UNL     1       6.567   0.257   0.100  0.00  0.00    +0.000 A 
ATOM     23  C   UNL     1       7.885  -0.006  -0.196  0.00  0.00    +0.000 A 
ATOM     24  C   UNL     1       8.887   0.057   0.745  0.00  0.00    +0.000 A 
ATOM     25  C   UNL     1       8.537   0.400   2.036  0.00  0.00    +0.000 A 
ATOM     26  C   UNL     1       7.214   0.664   2.327  0.00  0.00    +0.000 A 
ENDBRANCH  20  21
ENDBRANCH  19  20
ENDBRANCH  18  19
ENDBRANCH  17  18
ENDBRANCH  15  17
ENDBRANCH   2  14
BRANCH   1  27
ATOM     27  C   UNL     1      -1.693   0.512  -1.715  0.00  0.00    +0.000 C 
ATOM     28  O   UNL     1      -0.610   0.624  -2.325  0.00  0.00    +0.000 OA
BRANCH  27  29
ATOM     29  O   UNL     1      -2.831   0.916  -2.380  0.00  0.00    +0.000 OA
BRANCH  29  31
ATOM     30  C   UNL     1      -4.250   1.757  -4.061  0.00  0.00    +0.000 C 
ATOM     31  C   UNL     1      -2.814   1.438  -3.697  0.00  0.00    +0.000 C 
ENDBRANCH  29  31
ENDBRANCH  27  29
ENDBRANCH   1  27
TORSDOF 10
