REMARK  Name = 
REMARK  8 active torsions:
REMARK  status: ('A' for Active; 'I' for Inactive)
REMARK    1  A    between atoms: O_2  and  C_3
REMARK    2  A    between atoms: C_3  and  C_4
REMARK    3  A    between atoms: C_5  and  C_6
REMARK    4  A    between atoms: C_6  and  O_8
REMARK    5  A    between atoms: O_8  and  C_9
REMARK    6  A    between atoms: C_20  and  O_21
REMARK    7  A    between atoms: O_21  and  C_22
REMARK    8  A    between atoms: C_22  and  C_23
REMARK                            x       y       z     vdW  Elec       q    Type
REMARK                         _______ _______ _______ _____ _____    ______ ____
ROOT
ATOM      1  C   UNL     1       1.857   0.011  -0.114  0.00  0.00    +0.000 A 
ATOM      2  C   UNL     1       3.090  -0.525  -0.547  0.00  0.00    +0.000 A 
ATOM      3  N   UNL     1       3.135  -1.270  -1.635  0.00  0.00    +0.000 NA
ATOM      4  C   UNL     1       2.073  -1.569  -2.385  0.00  0.00    +0.000 A 
ATOM      5  C   UNL     1       0.837  -1.079  -2.027  0.00  0.00    +0.000 A 
ATOM      6  N   UNL     1      -0.373  -1.179  -2.599  0.00  0.00    +0.000 NA
ATOM      7  C   UNL     1      -1.276  -0.494  -1.911  0.00  0.00    +0.000 A 
ATOM      8  C   UNL     1      -2.631  -0.233  -2.047  0.00  0.00    +0.000 A 
ATOM      9  C   UNL     1      -3.249   0.573  -1.121  0.00  0.00    +0.000 A 
ATOM     10  C   UNL     1      -2.588   1.147  -0.045  0.00  0.00    +0.000 A 
ATOM     11  C   UNL     1      -1.246   0.869   0.065  0.00  0.00    +0.000 A 
ATOM     12  C   UNL     1      -0.596   0.073  -0.834  0.00  0.00    +0.000 A 
ATOM     13  C   UNL     1       0.756  -0.288  -0.883  0.00  0.00    +0.000 A 
ENDROOT
BRANCH   2  14
ATOM     14  C   UNL     1       4.297  -0.240   0.221  0.00  0.00    +0.000 C 
ATOM     15  O   UNL     1       4.272   0.474   1.260  0.00  0.00    +0.000 OA
BRANCH  14  16
ATOM     16  O   UNL     1       5.538  -0.735  -0.145  0.00  0.00    +0.000 OA
BRANCH  16  17
ATOM     17  C   UNL     1       6.714  -0.454   0.608  0.00  0.00    +0.000 C 
ATOM     18  C   UNL     1       7.910  -1.127  -0.022  0.00  0.00    +0.000 C 
ATOM     19  C   UNL     1       6.973   1.025   0.715  0.00  0.00    +0.000 C 
ATOM     20  C   UNL     1       6.551  -1.060   1.996  0.00  0.00    +0.000 C 
ENDBRANCH  16  17
ENDBRANCH  14  16
ENDBRANCH   2  14
BRANCH   1  21
ATOM     21  C   UNL     1       1.899   0.821   1.038  0.00  0.00    +0.000 C 
BRANCH  21  23
ATOM     22  C   UNL     1       0.289   0.471   2.631  0.00  0.00    +0.000 C 
ATOM     23  O   UNL     1       0.995   1.362   1.788  0.00  0.00    +0.000 OA
ENDBRANCH  21  23
ENDBRANCH   1  21
BRANCH  10  24
ATOM     24  O   UNL     1      -3.228   1.962   0.884  0.00  0.00    +0.000 OA
BRANCH  24  25
ATOM     25  C   UNL     1      -4.588   2.239   0.765  0.00  0.00    +0.000 C 
BRANCH  25  26
ATOM     26  C   UNL     1      -5.427   1.026   0.828  0.00  0.00    +0.000 A 
ATOM     27  C   UNL     1      -5.971   0.472  -0.322  0.00  0.00    +0.000 A 
ATOM     28  C   UNL     1      -6.759  -0.653  -0.270  0.00  0.00    +0.000 A 
ATOM     29  C   UNL     1      -7.024  -1.258   0.934  0.00  0.00    +0.000 A 
ATOM     30  C   UNL     1      -6.507  -0.746   2.097  0.00  0.00    +0.000 A 
ATOM     31  C   UNL     1      -5.721   0.381   2.026  0.00  0.00    +0.000 A 
ENDBRANCH  25  26
ENDBRANCH  24  25
ENDBRANCH  10  24
TORSDOF 8
