REMARK  Name = 
REMARK  8 active torsions:
REMARK  status: ('A' for Active; 'I' for Inactive)
REMARK    1  A    between atoms: C_2  and  C_3
REMARK    2  A    between atoms: C_3  and  C_4
REMARK    3  A    between atoms: C_4  and  C_5
REMARK    4  A    between atoms: C_5  and  C_6
REMARK    5  A    between atoms: C_6  and  N_7
REMARK    6  A    between atoms: C_8  and  C_10
REMARK    7  A    between atoms: N_13  and  C_14
REMARK    8  A    between atoms: C_14  and  C_15
REMARK                            x       y       z     vdW  Elec       q    Type
REMARK                         _______ _______ _______ _____ _____    ______ ____
ROOT
ATOM      1  C   UNL     1       0.211  -1.261  -0.135  0.00  0.00    +0.000 A 
ATOM      2  C   UNL     1      -0.942  -1.667  -0.780  0.00  0.00    +0.000 A 
ATOM      3  N   UNL     1      -0.958  -2.565  -1.885  0.00  0.00    +0.000 NA
ATOM      4  N   UNL     1      -1.977  -1.078  -0.186  0.00  0.00    +0.000 N 
ATOM      5  C   UNL     1      -1.551  -0.314   0.807  0.00  0.00    +0.000 A 
ATOM      6  N   UNL     1      -2.214   0.475   1.693  0.00  0.00    +0.000 NA
ATOM      7  C   UNL     1      -1.531   1.173   2.637  0.00  0.00    +0.000 A 
ATOM      8  C   UNL     1      -2.192   1.976   3.540  0.00  0.00    +0.000 A 
ATOM      9  C   UNL     1      -1.463   2.675   4.491  0.00  0.00    +0.000 A 
ATOM     10  C   UNL     1      -0.084   2.598   4.569  0.00  0.00    +0.000 A 
ATOM     11  C   UNL     1       0.555   1.788   3.653  0.00  0.00    +0.000 A 
ATOM     12  C   UNL     1      -0.154   1.074   2.688  0.00  0.00    +0.000 A 
ATOM     13  N   UNL     1       0.509   0.292   1.810  0.00  0.00    +0.000 NA
ATOM     14  C   UNL     1      -0.180  -0.404   0.868  0.00  0.00    +0.000 A 
ENDROOT
BRANCH   1  16
ATOM     15  N   UNL     1       2.632  -1.096   0.371  0.00  0.00    +0.000 NA
ATOM     16  C   UNL     1       1.581  -1.622  -0.407  0.00  0.00    +0.000 C 
ATOM     17  O   UNL     1       1.848  -2.408  -1.340  0.00  0.00    +0.000 OA
BRANCH  15  18
ATOM     18  C   UNL     1       3.986  -1.485   0.063  0.00  0.00    +0.000 C 
BRANCH  18  19
ATOM     19  C   UNL     1       4.247  -1.042  -1.375  0.00  0.00    +0.000 C 
BRANCH  19  20
ATOM     20  C   UNL     1       5.681  -1.454  -1.705  0.00  0.00    +0.000 C 
BRANCH  20  21
ATOM     21  C   UNL     1       6.624  -0.758  -0.733  0.00  0.00    +0.000 C 
BRANCH  21  23
ATOM     22  C   UNL     1       6.841   1.201  -2.245  0.00  0.00    +0.000 C 
ATOM     23  C   UNL     1       6.499   0.744  -0.846  0.00  0.00    +0.000 C 
ENDBRANCH  21  23
ENDBRANCH  20  21
ENDBRANCH  19  20
ENDBRANCH  18  19
ENDBRANCH  15  18
ENDBRANCH   1  16
BRANCH   4  24
ATOM     24  C   UNL     1      -3.369  -1.260  -0.584  0.00  0.00    +0.000 C 
BRANCH  24  25
ATOM     25  C   UNL     1      -3.739  -0.246  -1.597  0.00  0.00    +0.000 A 
ATOM     26  C   UNL     1      -4.249   0.951  -1.169  0.00  0.00    +0.000 A 
ATOM     27  C   UNL     1      -4.612   1.932  -2.045  0.00  0.00    +0.000 A 
ATOM     28  C   UNL     1      -4.463   1.721  -3.384  0.00  0.00    +0.000 A 
ATOM     29  C   UNL     1      -3.949   0.518  -3.836  0.00  0.00    +0.000 A 
ATOM     30  C   UNL     1      -3.588  -0.461  -2.941  0.00  0.00    +0.000 A 
ENDBRANCH  24  25
ENDBRANCH   4  24
TORSDOF 8
