REMARK  Name = 
REMARK  6 active torsions:
REMARK  status: ('A' for Active; 'I' for Inactive)
REMARK    1  A    between atoms: N_10  and  C_11
REMARK    2  A    between atoms: C_17  and  C_18
REMARK    3  A    between atoms: C_21  and  O_22
REMARK    4  A    between atoms: O_22  and  C_23
REMARK    5  A    between atoms: C_23  and  C_24
REMARK    6  A    between atoms: C_24  and  N_25
REMARK                            x       y       z     vdW  Elec       q    Type
REMARK                         _______ _______ _______ _____ _____    ______ ____
ROOT
ATOM      1  O   UNL     1      -5.747   1.392  -2.923  0.00  0.00    +0.000 OA
ATOM      2  C   UNL     1      -4.643   0.717  -2.416  0.00  0.00    +0.000 A 
ATOM      3  C   UNL     1      -3.356   1.201  -2.493  0.00  0.00    +0.000 A 
ATOM      4  C   UNL     1      -2.280   0.502  -1.977  0.00  0.00    +0.000 A 
ATOM      5  C   UNL     1      -2.486  -0.650  -1.398  0.00  0.00    +0.000 A 
ATOM      6  C   UNL     1      -3.743  -1.219  -1.272  0.00  0.00    +0.000 A 
ATOM      7  C   UNL     1      -4.826  -0.501  -1.799  0.00  0.00    +0.000 A 
ATOM      8  C   UNL     1      -3.985  -2.526  -0.634  0.00  0.00    +0.000 C 
ATOM      9  C   UNL     1      -3.130  -2.714   0.592  0.00  0.00    +0.000 C 
ATOM     10  N   UNL     1      -2.157  -1.607   0.631  0.00  0.00    +0.000 N 
ATOM     11  C   UNL     1      -1.414  -1.604  -0.731  0.00  0.00    +0.000 C 
ENDROOT
BRANCH  10  12
ATOM     12  C   UNL     1      -1.989  -0.772   1.676  0.00  0.00    +0.000 A 
ATOM     13  C   UNL     1      -2.475  -1.240   2.914  0.00  0.00    +0.000 A 
ATOM     14  C   UNL     1      -2.411  -0.526   4.062  0.00  0.00    +0.000 A 
ATOM     15  C   UNL     1      -1.851   0.722   4.055  0.00  0.00    +0.000 A 
ATOM     16  C   UNL     1      -1.355   1.244   2.879  0.00  0.00    +0.000 A 
ATOM     17  C   UNL     1      -1.444   0.486   1.756  0.00  0.00    +0.000 A 
ENDBRANCH  10  12
BRANCH  11  18
ATOM     18  C   UNL     1      -0.196  -0.693  -0.491  0.00  0.00    +0.000 A 
ATOM     19  C   UNL     1       0.692  -0.775   0.504  0.00  0.00    +0.000 A 
ATOM     20  C   UNL     1       1.776   0.092   0.641  0.00  0.00    +0.000 A 
ATOM     21  C   UNL     1       1.979   1.094  -0.272  0.00  0.00    +0.000 A 
ATOM     22  C   UNL     1       1.077   1.194  -1.302  0.00  0.00    +0.000 A 
ATOM     23  C   UNL     1      -0.010   0.304  -1.416  0.00  0.00    +0.000 A 
BRANCH  21  24
ATOM     24  O   UNL     1       3.066   1.986  -0.162  0.00  0.00    +0.000 OA
BRANCH  24  25
ATOM     25  C   UNL     1       3.994   1.880   0.902  0.00  0.00    +0.000 C 
BRANCH  25  26
ATOM     26  C   UNL     1       4.614   0.490   0.784  0.00  0.00    +0.000 C 
BRANCH  26  27
ATOM     27  N   UNL     1       5.242   0.500  -0.548  0.00  0.00    +0.000 NA
ATOM     28  C   UNL     1       5.884  -0.738  -0.842  0.00  0.00    +0.000 C 
ATOM     29  C   UNL     1       7.364  -0.511  -0.901  0.00  0.00    +0.000 C 
ATOM     30  C   UNL     1       7.528   0.749  -0.071  0.00  0.00    +0.000 C 
ATOM     31  C   UNL     1       6.284   1.522  -0.455  0.00  0.00    +0.000 C 
ENDBRANCH  26  27
ENDBRANCH  25  26
ENDBRANCH  24  25
ENDBRANCH  21  24
ENDBRANCH  11  18
TORSDOF 6
