REMARK  Name = 
REMARK  7 active torsions:
REMARK  status: ('A' for Active; 'I' for Inactive)
REMARK    1  A    between atoms: C_9  and  O_10
REMARK    2  A    between atoms: O_10  and  C_11
REMARK    3  A    between atoms: C_11  and  C_13
REMARK    4  A    between atoms: C_13  and  C_15
REMARK    5  A    between atoms: C_13  and  C_21
REMARK    6  A    between atoms: C_27  and  C_28
REMARK    7  A    between atoms: C_28  and  N_29
REMARK                            x       y       z     vdW  Elec       q    Type
REMARK                         _______ _______ _______ _____ _____    ______ ____
ROOT
ATOM      1  O   UNL     1      -0.071  -1.340   0.173  0.00  0.00    +0.000 OA
ENDROOT
BRANCH   1  10
ATOM      2  C   UNL     1       1.726  -1.437  -1.905  0.00  0.00    +0.000 C 
ATOM      3  C   UNL     1       2.514  -2.219  -0.877  0.00  0.00    +0.000 C 
ATOM      4  C   UNL     1       3.540  -3.116  -1.427  0.00  0.00    +0.000 C 
ATOM      5  C   UNL     1       3.409  -1.118  -0.063  0.00  0.00    +0.000 C 
ATOM      6  C   UNL     1       3.485  -1.912   1.360  0.00  0.00    +0.000 C 
ATOM      7  C   UNL     1       2.897  -3.228   1.085  0.00  0.00    +0.000 C 
ATOM      8  C   UNL     1       1.783  -2.733   0.176  0.00  0.00    +0.000 C 
ATOM      9  C   UNL     1       0.745  -3.752   0.078  0.00  0.00    +0.000 C 
ATOM     10  C   UNL     1       1.200  -1.489   1.069  0.00  0.00    +0.000 C 
ATOM     11  C   UNL     1       1.991  -0.253   0.212  0.00  0.00    +0.000 C 
BRANCH  11  12
ATOM     12  C   UNL     1       2.549   0.464   1.528  0.00  0.00    +0.000 C 
BRANCH  12  13
ATOM     13  N   UNL     1       3.717   1.190   1.000  0.00  0.00    +0.000 NA
ATOM     14  C   UNL     1       3.183   2.242   0.130  0.00  0.00    +0.000 C 
ATOM     15  C   UNL     1       4.267   3.316   0.104  0.00  0.00    +0.000 C 
ATOM     16  C   UNL     1       5.084   3.042   1.323  0.00  0.00    +0.000 C 
ATOM     17  C   UNL     1       4.322   1.956   2.070  0.00  0.00    +0.000 C 
ENDBRANCH  12  13
ENDBRANCH  11  12
ENDBRANCH   1  10
BRANCH   1  18
ATOM     18  C   UNL     1      -0.942  -0.358   0.538  0.00  0.00    +0.000 C 
ATOM     19  O   UNL     1      -0.704   0.348   1.522  0.00  0.00    +0.000 OA
BRANCH  18  20
ATOM     20  C   UNL     1      -2.169  -0.162  -0.272  0.00  0.00    +0.000 C 
ATOM     21  O   UNL     1      -2.223  -1.075  -1.338  0.00  0.00    +0.000 OA
BRANCH  20  22
ATOM     22  C   UNL     1      -3.362  -0.390   0.587  0.00  0.00    +0.000 A 
ATOM     23  C   UNL     1      -3.475   0.385   1.722  0.00  0.00    +0.000 A 
ATOM     24  C   UNL     1      -4.551   0.228   2.561  0.00  0.00    +0.000 A 
ATOM     25  C   UNL     1      -5.548  -0.700   2.301  0.00  0.00    +0.000 A 
ATOM     26  C   UNL     1      -5.420  -1.477   1.150  0.00  0.00    +0.000 A 
ATOM     27  C   UNL     1      -4.333  -1.324   0.296  0.00  0.00    +0.000 A 
ENDBRANCH  20  22
BRANCH  20  28
ATOM     28  C   UNL     1      -2.216   1.201  -0.809  0.00  0.00    +0.000 A 
ATOM     29  C   UNL     1      -2.138   1.421  -2.162  0.00  0.00    +0.000 A 
ATOM     30  C   UNL     1      -2.192   2.729  -2.621  0.00  0.00    +0.000 A 
ATOM     31  C   UNL     1      -2.320   3.764  -1.745  0.00  0.00    +0.000 A 
ATOM     32  C   UNL     1      -2.400   3.549  -0.375  0.00  0.00    +0.000 A 
ATOM     33  C   UNL     1      -2.345   2.248   0.060  0.00  0.00    +0.000 A 
ENDBRANCH  20  28
ENDBRANCH  18  20
ENDBRANCH   1  18
TORSDOF 7
