REMARK  Name = 
REMARK  8 active torsions:
REMARK  status: ('A' for Active; 'I' for Inactive)
REMARK    1  A    between atoms: C_2  and  O_3
REMARK    2  A    between atoms: O_3  and  C_4
REMARK    3  A    between atoms: C_6  and  C_7
REMARK    4  A    between atoms: N_9  and  N_10
REMARK    5  A    between atoms: C_25  and  O_26
REMARK    6  A    between atoms: O_26  and  C_27
REMARK    7  A    between atoms: C_29  and  O_30
REMARK    8  A    between atoms: O_30  and  C_31
REMARK                            x       y       z     vdW  Elec       q    Type
REMARK                         _______ _______ _______ _____ _____    ______ ____
ROOT
ATOM      1  C   UNL     1       0.355   0.376   1.297  0.00  0.00    +0.000 C 
ATOM      2  O   UNL     1      -0.151   0.397   2.444  0.00  0.00    +0.000 OA
ATOM      3  N   UNL     1      -0.355   1.029   0.257  0.00  0.00    +0.000 NA
ENDROOT
BRANCH   3   4
ATOM      4  N   UNL     1      -1.563   1.677   0.457  0.00  0.00    +0.000 NA
ATOM      5  C   UNL     1      -2.608   1.476  -0.283  0.00  0.00    +0.000 C 
ATOM      6  C   UNL     1      -3.922   2.097  -0.165  0.00  0.00    +0.000 A 
ATOM      7  C   UNL     1      -4.345   3.041   0.763  0.00  0.00    +0.000 A 
ATOM      8  C   UNL     1      -5.647   3.490   0.680  0.00  0.00    +0.000 A 
ATOM      9  C   UNL     1      -6.503   3.016  -0.296  0.00  0.00    +0.000 A 
ATOM     10  C   UNL     1      -6.048   2.082  -1.199  0.00  0.00    +0.000 A 
ATOM     11  C   UNL     1      -4.756   1.609  -1.149  0.00  0.00    +0.000 A 
ATOM     12  C   UNL     1      -4.003   0.633  -1.958  0.00  0.00    +0.000 A 
ATOM     13  C   UNL     1      -4.351  -0.135  -3.045  0.00  0.00    +0.000 A 
ATOM     14  C   UNL     1      -3.417  -0.973  -3.603  0.00  0.00    +0.000 A 
ATOM     15  C   UNL     1      -2.158  -1.024  -3.063  0.00  0.00    +0.000 A 
ATOM     16  C   UNL     1      -1.773  -0.271  -1.977  0.00  0.00    +0.000 A 
ATOM     17  C   UNL     1      -2.713   0.569  -1.420  0.00  0.00    +0.000 A 
ENDBRANCH   3   4
BRANCH   1  20
ATOM     18  C   UNL     1       3.482  -1.562   1.879  0.00  0.00    +0.000 A 
ATOM     19  C   UNL     1       2.284  -0.918   2.075  0.00  0.00    +0.000 A 
ATOM     20  C   UNL     1       1.623  -0.290   1.021  0.00  0.00    +0.000 A 
ATOM     21  C   UNL     1       2.182  -0.322  -0.215  0.00  0.00    +0.000 A 
ATOM     22  C   UNL     1       3.384  -0.959  -0.448  0.00  0.00    +0.000 A 
ATOM     23  C   UNL     1       4.012  -1.569   0.608  0.00  0.00    +0.000 A 
BRANCH  18  24
ATOM     24  O   UNL     1       4.094  -2.168   2.958  0.00  0.00    +0.000 OA
BRANCH  24  26
ATOM     25  C   UNL     1       2.118  -2.779   4.192  0.00  0.00    +0.000 C 
ATOM     26  C   UNL     1       3.492  -2.121   4.234  0.00  0.00    +0.000 C 
ENDBRANCH  24  26
ENDBRANCH  18  24
BRANCH  22  27
ATOM     27  O   UNL     1       3.977  -1.006  -1.701  0.00  0.00    +0.000 OA
BRANCH  27  28
ATOM     28  C   UNL     1       3.298  -0.365  -2.767  0.00  0.00    +0.000 C 
ATOM     29  C   UNL     1       1.944  -1.034  -2.895  0.00  0.00    +0.000 C 
ENDBRANCH  27  28
ENDBRANCH  22  27
BRANCH  23  30
ATOM     30  O   UNL     1       5.234  -2.236   0.455  0.00  0.00    +0.000 OA
BRANCH  30  31
ATOM     31  C   UNL     1       6.403  -1.446   0.643  0.00  0.00    +0.000 C 
ATOM     32  C   UNL     1       6.432  -0.312  -0.349  0.00  0.00    +0.000 C 
ENDBRANCH  30  31
ENDBRANCH  23  30
ENDBRANCH   1  20
TORSDOF 8
