REMARK  Name = 
REMARK  5 active torsions:
REMARK  status: ('A' for Active; 'I' for Inactive)
REMARK    1  A    between atoms: C_19  and  C_20
REMARK    2  A    between atoms: C_24  and  O_25
REMARK    3  A    between atoms: O_25  and  C_26
REMARK    4  A    between atoms: C_26  and  C_27
REMARK    5  A    between atoms: C_27  and  N_28
REMARK                            x       y       z     vdW  Elec       q    Type
REMARK                         _______ _______ _______ _____ _____    ______ ____
ROOT
ATOM      1  O   UNL     1      -5.692   5.186   0.741  0.00  0.00    +0.000 OA
ATOM      2  C   UNL     1      -5.191   3.876   0.636  0.00  0.00    +0.000 A 
ATOM      3  C   UNL     1      -6.073   2.849   0.467  0.00  0.00    +0.000 A 
ATOM      4  C   UNL     1      -5.618   1.545   0.361  0.00  0.00    +0.000 A 
ATOM      5  C   UNL     1      -4.257   1.272   0.426  0.00  0.00    +0.000 A 
ATOM      6  C   UNL     1      -3.391   2.329   0.598  0.00  0.00    +0.000 A 
ATOM      7  C   UNL     1      -3.829   3.631   0.706  0.00  0.00    +0.000 A 
ATOM      8  C   UNL     1      -2.008   1.800   0.646  0.00  0.00    +0.000 C 
ATOM      9  C   UNL     1      -2.156   0.343   0.463  0.00  0.00    +0.000 A 
ATOM     10  C   UNL     1      -3.506   0.018   0.338  0.00  0.00    +0.000 A 
ATOM     11  C   UNL     1      -3.925  -1.281   0.152  0.00  0.00    +0.000 A 
ATOM     12  C   UNL     1      -2.959  -2.257   0.092  0.00  0.00    +0.000 A 
ATOM     13  C   UNL     1      -3.369  -3.562  -0.088  0.00  0.00    +0.000 A 
ATOM     14  C   UNL     1      -2.425  -4.580  -0.148  0.00  0.00    +0.000 A 
ATOM     15  C   UNL     1      -1.092  -4.229  -0.022  0.00  0.00    +0.000 A 
ATOM     16  O   UNL     1      -0.144  -5.264  -0.082  0.00  0.00    +0.000 OA
ATOM     17  C   UNL     1      -0.690  -2.933   0.156  0.00  0.00    +0.000 A 
ATOM     18  C   UNL     1      -1.648  -1.929   0.213  0.00  0.00    +0.000 A 
ATOM     19  C   UNL     1      -1.190  -0.634   0.402  0.00  0.00    +0.000 A 
ENDROOT
BRANCH  19  20
ATOM     20  C   UNL     1       0.237  -0.394   0.553  0.00  0.00    +0.000 A 
ATOM     21  C   UNL     1       0.821  -0.874   1.725  0.00  0.00    +0.000 A 
ATOM     22  C   UNL     1       2.157  -0.706   1.978  0.00  0.00    +0.000 A 
ATOM     23  C   UNL     1       2.935  -0.043   1.037  0.00  0.00    +0.000 A 
ATOM     24  C   UNL     1       2.365   0.440  -0.130  0.00  0.00    +0.000 A 
ATOM     25  C   UNL     1       1.024   0.258  -0.357  0.00  0.00    +0.000 A 
BRANCH  24  26
ATOM     26  O   UNL     1       3.196   1.106  -1.048  0.00  0.00    +0.000 OA
BRANCH  26  27
ATOM     27  C   UNL     1       4.576   1.239  -0.727  0.00  0.00    +0.000 C 
BRANCH  27  28
ATOM     28  C   UNL     1       5.109  -0.177  -0.596  0.00  0.00    +0.000 C 
BRANCH  28  29
ATOM     29  N   UNL     1       6.489  -0.259  -0.253  0.00  0.00    +0.000 NA
ATOM     30  C   UNL     1       7.409   0.190  -1.253  0.00  0.00    +0.000 C 
ATOM     31  C   UNL     1       8.037   1.467  -0.716  0.00  0.00    +0.000 C 
ATOM     32  C   UNL     1       7.963   1.273   0.781  0.00  0.00    +0.000 C 
ATOM     33  C   UNL     1       6.845   0.299   1.007  0.00  0.00    +0.000 C 
ENDBRANCH  28  29
ENDBRANCH  27  28
ENDBRANCH  26  27
ENDBRANCH  24  26
ENDBRANCH  19  20
TORSDOF 5
