REMARK  Name = 
REMARK  8 active torsions:
REMARK  status: ('A' for Active; 'I' for Inactive)
REMARK    1  A    between atoms: C_2  and  C_4
REMARK    2  A    between atoms: C_7  and  C_8
REMARK    3  A    between atoms: C_8  and  C_10
REMARK    4  A    between atoms: C_10  and  O_12
REMARK    5  A    between atoms: O_12  and  C_13
REMARK    6  A    between atoms: C_16  and  N_17
REMARK    7  A    between atoms: C_18  and  C_20
REMARK    8  A    between atoms: C_27  and  C_28
REMARK                            x       y       z     vdW  Elec       q    Type
REMARK                         _______ _______ _______ _____ _____    ______ ____
ROOT
ATOM      1  C   UNL     1      -1.075   1.778  -0.178  0.00  0.00    +0.000 C 
ATOM      2  C   UNL     1      -1.253   1.571  -1.830  0.00  0.00    +0.000 C 
ENDROOT
BRANCH   1   3
ATOM      3  C   UNL     1      -2.653   1.713   0.111  0.00  0.00    +0.000 C 
ATOM      4  O   UNL     1      -3.119   2.848  -0.033  0.00  0.00    +0.000 OA
BRANCH   3   8
ATOM      5  C   UNL     1      -4.686  -1.873   1.149  0.00  0.00    +0.000 A 
ATOM      6  C   UNL     1      -3.337  -1.895   0.870  0.00  0.00    +0.000 A 
ATOM      7  C   UNL     1      -2.678  -0.736   0.540  0.00  0.00    +0.000 A 
ATOM      8  C   UNL     1      -3.297   0.508   0.464  0.00  0.00    +0.000 A 
ATOM      9  C   UNL     1      -4.646   0.515   0.747  0.00  0.00    +0.000 A 
ATOM     10  C   UNL     1      -5.317  -0.652   1.081  0.00  0.00    +0.000 A 
BRANCH   5  12
ATOM     11  C   UNL     1      -6.456  -3.462   0.447  0.00  0.00    +0.000 C 
ATOM     12  C   UNL     1      -5.411  -3.130   1.509  0.00  0.00    +0.000 C 
ATOM     13  C   UNL     1      -6.187  -2.830   2.779  0.00  0.00    +0.000 C 
ENDBRANCH   5  12
BRANCH   9  14
ATOM     14  C   UNL     1      -5.389   1.803   0.713  0.00  0.00    +0.000 C 
ATOM     15  C   UNL     1      -6.880   1.438   0.816  0.00  0.00    +0.000 C 
ATOM     16  C   UNL     1      -5.001   2.664   1.906  0.00  0.00    +0.000 C 
ENDBRANCH   9  14
ENDBRANCH   3   8
ENDBRANCH   1   3
BRANCH   1  17
ATOM     17  O   UNL     1      -0.755   0.291   0.064  0.00  0.00    +0.000 OA
BRANCH  17  18
ATOM     18  C   UNL     1       0.581  -0.042  -0.105  0.00  0.00    +0.000 A 
ATOM     19  C   UNL     1       1.521   0.903  -0.461  0.00  0.00    +0.000 A 
ATOM     20  C   UNL     1       2.851   0.574  -0.630  0.00  0.00    +0.000 A 
ATOM     21  C   UNL     1       3.311  -0.711  -0.454  0.00  0.00    +0.000 A 
ATOM     22  C   UNL     1       2.389  -1.663  -0.100  0.00  0.00    +0.000 A 
ATOM     23  C   UNL     1       1.063  -1.317   0.065  0.00  0.00    +0.000 A 
BRANCH  21  24
ATOM     24  N   UNL     1       4.701  -0.997  -0.644  0.00  0.00    +0.000 NA
ATOM     25  C   UNL     1       5.645  -0.009  -1.002  0.00  0.00    +0.000 C 
ATOM     26  O   UNL     1       5.202   1.156  -1.148  0.00  0.00    +0.000 OA
BRANCH  25  27
ATOM     27  C   UNL     1       7.073  -0.312  -1.196  0.00  0.00    +0.000 A 
ATOM     28  C   UNL     1       8.079   0.534  -1.545  0.00  0.00    +0.000 A 
ATOM     29  C   UNL     1       9.236  -0.213  -1.602  0.00  0.00    +0.000 A 
ATOM     30  C   UNL     1       8.883  -1.516  -1.279  0.00  0.00    +0.000 A 
ATOM     31  O   UNL     1       7.605  -1.501  -1.054  0.00  0.00    +0.000 OA
ENDBRANCH  25  27
ENDBRANCH  21  24
ENDBRANCH  17  18
ENDBRANCH   1  17
TORSDOF 8
