REMARK  Name = 
REMARK  7 active torsions:
REMARK  status: ('A' for Active; 'I' for Inactive)
REMARK    1  A    between atoms: O_2  and  C_3
REMARK    2  A    between atoms: C_7  and  C_8
REMARK    3  A    between atoms: N_10  and  C_11
REMARK    4  A    between atoms: C_15  and  C_16
REMARK    5  A    between atoms: N_18  and  C_19
REMARK    6  A    between atoms: C_19  and  C_20
REMARK    7  A    between atoms: C_20  and  C_21
REMARK                            x       y       z     vdW  Elec       q    Type
REMARK                         _______ _______ _______ _____ _____    ______ ____
ROOT
ATOM      1  C   UNL     1       0.911   0.485  -1.230  0.00  0.00    +0.000 A 
ATOM      2  S   UNL     1       1.050   0.443  -3.001  0.00  0.00    +0.000 S 
ATOM      3  C   UNL     1      -0.550   0.682  -3.411  0.00  0.00    +0.000 A 
ATOM      4  C   UNL     1      -1.174   0.791  -2.221  0.00  0.00    +0.000 A 
ATOM      5  C   UNL     1      -0.436   0.692  -1.084  0.00  0.00    +0.000 A 
ATOM      6  C   UNL     1      -2.661   1.013  -2.560  0.00  0.00    +0.000 C 
ATOM      7  C   UNL     1      -2.566   1.698  -3.885  0.00  0.00    +0.000 C 
ATOM      8  C   UNL     1      -1.515   0.818  -4.576  0.00  0.00    +0.000 C 
ENDROOT
BRANCH   1  11
ATOM      9  C   UNL     1       2.673   0.237   0.669  0.00  0.00    +0.000 C 
ATOM     10  O   UNL     1       2.065   0.343   1.744  0.00  0.00    +0.000 OA
ATOM     11  N   UNL     1       2.023   0.324  -0.457  0.00  0.00    +0.000 NA
BRANCH   9  16
ATOM     12  C   UNL     1       6.076  -0.264   2.188  0.00  0.00    +0.000 A 
ATOM     13  C   UNL     1       6.870  -0.399   1.075  0.00  0.00    +0.000 A 
ATOM     14  C   UNL     1       6.291  -0.326  -0.197  0.00  0.00    +0.000 A 
ATOM     15  C   UNL     1       4.940  -0.121  -0.352  0.00  0.00    +0.000 A 
ATOM     16  C   UNL     1       4.151   0.013   0.762  0.00  0.00    +0.000 A 
ATOM     17  C   UNL     1       4.731  -0.061   1.983  0.00  0.00    +0.000 A 
BRANCH  12  19
ATOM     18  C   UNL     1       5.937  -0.214   4.641  0.00  0.00    +0.000 C 
ATOM     19  O   UNL     1       6.644  -0.336   3.443  0.00  0.00    +0.000 OA
ENDBRANCH  12  19
ENDBRANCH   9  16
ENDBRANCH   1  11
BRANCH   5  20
ATOM     20  C   UNL     1      -1.062   0.804   0.267  0.00  0.00    +0.000 C 
ATOM     21  O   UNL     1      -0.418   0.717   1.299  0.00  0.00    +0.000 OA
ATOM     22  N   UNL     1      -2.485   1.022   0.348  0.00  0.00    +0.000 NA
BRANCH  22  23
ATOM     23  C   UNL     1      -3.047   1.124   1.701  0.00  0.00    +0.000 C 
BRANCH  23  24
ATOM     24  C   UNL     1      -4.535   1.350   1.617  0.00  0.00    +0.000 C 
BRANCH  24  25
ATOM     25  C   UNL     1      -5.119   0.175   0.891  0.00  0.00    +0.000 A 
ATOM     26  C   UNL     1      -5.534  -0.935   1.584  0.00  0.00    +0.000 A 
ATOM     27  C   UNL     1      -6.060  -1.986   0.901  0.00  0.00    +0.000 A 
ATOM     28  C   UNL     1      -6.187  -1.969  -0.466  0.00  0.00    +0.000 A 
ATOM     29  C   UNL     1      -5.771  -0.851  -1.191  0.00  0.00    +0.000 A 
ATOM     30  C   UNL     1      -5.242   0.202  -0.481  0.00  0.00    +0.000 A 
ENDBRANCH  24  25
ENDBRANCH  23  24
ENDBRANCH  22  23
ENDBRANCH   5  20
TORSDOF 7
