REMARK  Name = 
REMARK  7 active torsions:
REMARK  status: ('A' for Active; 'I' for Inactive)
REMARK    1  A    between atoms: C_7  and  N_8
REMARK    2  A    between atoms: C_9  and  C_11
REMARK    3  A    between atoms: C_11  and  C_12
REMARK    4  A    between atoms: C_11  and  C_19
REMARK    5  A    between atoms: C_12  and  C_13
REMARK    6  A    between atoms: C_19  and  C_20
REMARK    7  A    between atoms: C_26  and  C_27
REMARK                            x       y       z     vdW  Elec       q    Type
REMARK                         _______ _______ _______ _____ _____    ______ ____
ROOT
ATOM      1  N   UNL     1       0.167  -0.456  -1.088  0.00  0.00    +0.000 NA
ATOM      2  C   UNL     1      -1.046  -0.222  -0.405  0.00  0.00    +0.000 C 
ATOM      3  O   UNL     1      -0.934   0.253   0.772  0.00  0.00    +0.000 OA
ENDROOT
BRANCH   1  10
ATOM      4  C   UNL     1       4.465   2.190  -1.062  0.00  0.00    +0.000 C 
ATOM      5  C   UNL     1       5.752   1.524  -0.293  0.00  0.00    +0.000 C 
ATOM      6  C   UNL     1       5.252   1.968   1.194  0.00  0.00    +0.000 C 
ATOM      7  C   UNL     1       4.580   0.885   1.902  0.00  0.00    +0.000 C 
ATOM      8  C   UNL     1       3.380   0.521   1.096  0.00  0.00    +0.000 A 
ATOM      9  S   UNL     1       1.682   0.474   1.114  0.00  0.00    +0.000 S 
ATOM     10  C   UNL     1       1.421  -0.169  -0.472  0.00  0.00    +0.000 A 
ATOM     11  C   UNL     1       2.691  -0.318  -0.943  0.00  0.00    +0.000 A 
ATOM     12  C   UNL     1       3.705   0.038  -0.136  0.00  0.00    +0.000 A 
ATOM     13  C   UNL     1       5.183  -0.000  -0.338  0.00  0.00    +0.000 C 
BRANCH  11  14
ATOM     14  C   UNL     1       2.898  -0.851  -2.292  0.00  0.00    +0.000 C 
ATOM     15  N   UNL     1       3.047  -1.278  -3.377  0.00  0.00    +0.000 NA
ENDBRANCH  11  14
ENDBRANCH   1  10
BRANCH   2  16
ATOM     16  C   UNL     1      -2.388  -0.472  -0.922  0.00  0.00    +0.000 C 
BRANCH  16  17
ATOM     17  C   UNL     1      -2.701  -1.874  -1.289  0.00  0.00    +0.000 C 
BRANCH  17  18
ATOM     18  C   UNL     1      -2.554  -2.742  -0.089  0.00  0.00    +0.000 A 
ATOM     19  C   UNL     1      -3.620  -2.974   0.755  0.00  0.00    +0.000 A 
ATOM     20  C   UNL     1      -3.506  -3.770   1.865  0.00  0.00    +0.000 A 
ATOM     21  C   UNL     1      -2.300  -4.367   2.169  0.00  0.00    +0.000 A 
ATOM     22  C   UNL     1      -1.207  -4.147   1.329  0.00  0.00    +0.000 A 
ATOM     23  C   UNL     1      -1.348  -3.342   0.218  0.00  0.00    +0.000 A 
ENDBRANCH  17  18
ENDBRANCH  16  17
BRANCH  16  24
ATOM     24  C   UNL     1      -3.475   0.264  -0.242  0.00  0.00    +0.000 C 
BRANCH  24  25
ATOM     25  C   UNL     1      -3.335   1.739  -0.313  0.00  0.00    +0.000 A 
ATOM     26  C   UNL     1      -2.643   2.419   0.668  0.00  0.00    +0.000 A 
ATOM     27  C   UNL     1      -2.500   3.807   0.619  0.00  0.00    +0.000 A 
ATOM     28  C   UNL     1      -3.048   4.541  -0.414  0.00  0.00    +0.000 A 
ATOM     29  C   UNL     1      -3.743   3.867  -1.402  0.00  0.00    +0.000 A 
ATOM     30  C   UNL     1      -3.874   2.492  -1.337  0.00  0.00    +0.000 A 
ENDBRANCH  24  25
ENDBRANCH  16  24
ENDBRANCH   2  16
TORSDOF 7
