REMARK  Name = 
REMARK  7 active torsions:
REMARK  status: ('A' for Active; 'I' for Inactive)
REMARK    1  A    between atoms: C_5  and  S_6
REMARK    2  A    between atoms: S_6  and  C_7
REMARK    3  A    between atoms: C_7  and  C_8
REMARK    4  A    between atoms: N_10  and  C_11
REMARK    5  A    between atoms: C_16  and  C_17
REMARK    6  A    between atoms: N_19  and  C_20
REMARK    7  A    between atoms: C_20  and  C_22
REMARK                            x       y       z     vdW  Elec       q    Type
REMARK                         _______ _______ _______ _____ _____    ______ ____
ROOT
ATOM      1  C   UNL     1       0.128  -1.499   0.013  0.00  0.00    +0.000 A 
ATOM      2  C   UNL     1       0.857  -2.410   0.742  0.00  0.00    +0.000 A 
ATOM      3  C   UNL     1       0.354  -3.152   1.788  0.00  0.00    +0.000 A 
ATOM      4  C   UNL     1      -0.960  -2.991   2.147  0.00  0.00    +0.000 A 
ATOM      5  C   UNL     1      -1.724  -2.088   1.439  0.00  0.00    +0.000 A 
ATOM      6  C   UNL     1      -1.192  -1.353   0.390  0.00  0.00    +0.000 A 
ENDROOT
BRANCH   1   9
ATOM      7  C   UNL     1       1.991  -0.825  -1.516  0.00  0.00    +0.000 C 
ATOM      8  O   UNL     1       2.752  -1.636  -0.916  0.00  0.00    +0.000 OA
ATOM      9  N   UNL     1       0.669  -0.739  -1.068  0.00  0.00    +0.000 NA
BRANCH   7  10
ATOM     10  C   UNL     1       2.593  -0.066  -2.621  0.00  0.00    +0.000 C 
BRANCH  10  11
ATOM     11  S   UNL     1       3.329   1.495  -2.136  0.00  0.00    +0.000 S 
BRANCH  11  16
ATOM     12  C   UNL     1       8.235   0.261   1.298  0.00  0.00    +0.000 C 
ATOM     13  C   UNL     1       7.020   0.564   0.476  0.00  0.00    +0.000 A 
ATOM     14  C   UNL     1       5.780   0.737   1.050  0.00  0.00    +0.000 A 
ATOM     15  C   UNL     1       4.661   1.017   0.282  0.00  0.00    +0.000 A 
ATOM     16  C   UNL     1       4.731   1.136  -1.087  0.00  0.00    +0.000 A 
ATOM     17  C   UNL     1       5.970   0.963  -1.661  0.00  0.00    +0.000 A 
ATOM     18  C   UNL     1       7.099   0.681  -0.895  0.00  0.00    +0.000 A 
ENDBRANCH  11  16
ENDBRANCH  10  11
ENDBRANCH   7  10
ENDBRANCH   1   9
BRANCH   6  19
ATOM     19  C   UNL     1      -2.067  -0.429  -0.297  0.00  0.00    +0.000 C 
ATOM     20  O   UNL     1      -1.626   0.249  -1.249  0.00  0.00    +0.000 OA
ATOM     21  N   UNL     1      -3.414  -0.280   0.091  0.00  0.00    +0.000 NA
BRANCH  21  22
ATOM     22  C   UNL     1      -4.254   0.767  -0.752  0.00  0.00    +0.000 C 
ATOM     23  C   UNL     1      -3.273   2.037  -0.334  0.00  0.00    +0.000 C 
BRANCH  22  24
ATOM     24  C   UNL     1      -5.332   1.040   0.407  0.00  0.00    +0.000 A 
ATOM     25  C   UNL     1      -4.963   1.236   1.665  0.00  0.00    +0.000 A 
ATOM     26  C   UNL     1      -5.898   1.467   2.644  0.00  0.00    +0.000 A 
ATOM     27  C   UNL     1      -7.224   1.487   2.276  0.00  0.00    +0.000 A 
ATOM     28  C   UNL     1      -7.612   1.282   0.965  0.00  0.00    +0.000 A 
ATOM     29  C   UNL     1      -6.630   1.050  -0.008  0.00  0.00    +0.000 A 
ENDBRANCH  22  24
ENDBRANCH  21  22
ENDBRANCH   6  19
TORSDOF 7
