REMARK  Name = 
REMARK  7 active torsions:
REMARK  status: ('A' for Active; 'I' for Inactive)
REMARK    1  A    between atoms: C_2  and  O_3
REMARK    2  A    between atoms: O_3  and  C_4
REMARK    3  A    between atoms: C_7  and  N_8
REMARK    4  A    between atoms: C_11  and  N_12
REMARK    5  A    between atoms: N_12  and  C_13
REMARK    6  A    between atoms: C_20  and  S_21
REMARK    7  A    between atoms: S_21  and  C_22
REMARK                            x       y       z     vdW  Elec       q    Type
REMARK                         _______ _______ _______ _____ _____    ______ ____
ROOT
ATOM      1  N   UNL     1       0.846   0.105  -0.382  0.00  0.00    +0.000 N 
ATOM      2  C   UNL     1       0.082   1.300  -0.560  0.00  0.00    +0.000 C 
ATOM      3  O   UNL     1       0.665   2.421  -0.709  0.00  0.00    +0.000 OA
ATOM      4  C   UNL     1      -1.330   0.972  -0.535  0.00  0.00    +0.000 C 
ATOM      5  C   UNL     1      -1.455  -0.349  -0.352  0.00  0.00    +0.000 C 
ATOM      6  C   UNL     1      -0.132  -0.936  -0.251  0.00  0.00    +0.000 C 
ATOM      7  O   UNL     1       0.136  -2.150  -0.077  0.00  0.00    +0.000 OA
ENDROOT
BRANCH   1  11
ATOM      8  C   UNL     1       5.008  -0.326  -0.241  0.00  0.00    +0.000 A 
ATOM      9  C   UNL     1       4.191  -1.118   0.528  0.00  0.00    +0.000 A 
ATOM     10  C   UNL     1       2.830  -0.965   0.473  0.00  0.00    +0.000 A 
ATOM     11  C   UNL     1       2.256  -0.024  -0.345  0.00  0.00    +0.000 A 
ATOM     12  C   UNL     1       3.094   0.754  -1.101  0.00  0.00    +0.000 A 
ATOM     13  C   UNL     1       4.466   0.633  -1.077  0.00  0.00    +0.000 A 
BRANCH   8  14
ATOM     14  O   UNL     1       6.377  -0.508  -0.160  0.00  0.00    +0.000 OA
BRANCH  14  16
ATOM     15  C   UNL     1       6.452  -2.882   0.360  0.00  0.00    +0.000 C 
ATOM     16  C   UNL     1       6.918  -1.478   0.687  0.00  0.00    +0.000 C 
ENDBRANCH  14  16
ENDBRANCH   8  14
ENDBRANCH   1  11
BRANCH   4  17
ATOM     17  N   UNL     1      -2.389   1.880  -0.681  0.00  0.00    +0.000 NA
BRANCH  17  18
ATOM     18  C   UNL     1      -2.401   3.144  -0.088  0.00  0.00    +0.000 A 
ATOM     19  C   UNL     1      -1.374   3.616   0.679  0.00  0.00    +0.000 A 
ATOM     20  C   UNL     1      -1.413   4.858   1.240  0.00  0.00    +0.000 A 
ATOM     21  C   UNL     1      -2.515   5.694   1.047  0.00  0.00    +0.000 A 
ATOM     22  C   UNL     1      -3.540   5.201   0.271  0.00  0.00    +0.000 A 
ATOM     23  C   UNL     1      -3.522   3.959  -0.302  0.00  0.00    +0.000 A 
ATOM     24  C   UNL     1      -4.651   3.442  -1.143  0.00  0.00    +0.000 C 
ENDBRANCH  17  18
ENDBRANCH   4  17
BRANCH   5  25
ATOM     25  S   UNL     1      -3.018  -1.198  -0.256  0.00  0.00    +0.000 S 
BRANCH  25  26
ATOM     26  C   UNL     1      -2.785  -2.949  -0.036  0.00  0.00    +0.000 A 
ATOM     27  C   UNL     1      -2.674  -3.777  -1.151  0.00  0.00    +0.000 A 
ATOM     28  C   UNL     1      -2.488  -5.149  -0.991  0.00  0.00    +0.000 A 
ATOM     29  C   UNL     1      -2.409  -5.727   0.245  0.00  0.00    +0.000 A 
ATOM     30  C   UNL     1      -2.518  -4.911   1.360  0.00  0.00    +0.000 A 
ATOM     31  C   UNL     1      -2.705  -3.533   1.202  0.00  0.00    +0.000 A 
ENDBRANCH  25  26
ENDBRANCH   5  25
TORSDOF 7
