REMARK  Name = 
REMARK  7 active torsions:
REMARK  status: ('A' for Active; 'I' for Inactive)
REMARK    1  A    between atoms: C_2  and  O_3
REMARK    2  A    between atoms: O_3  and  C_4
REMARK    3  A    between atoms: C_7  and  C_8
REMARK    4  A    between atoms: C_18  and  O_19
REMARK    5  A    between atoms: O_19  and  C_20
REMARK    6  A    between atoms: C_20  and  C_21
REMARK    7  A    between atoms: C_29  and  C_30
REMARK                            x       y       z     vdW  Elec       q    Type
REMARK                         _______ _______ _______ _____ _____    ______ ____
ROOT
ATOM      1  C   UNL     1       1.590   1.729   0.517  0.00  0.00    +0.000 C 
ATOM      2  N   UNL     1       1.389   1.822  -1.051  0.00  0.00    +0.000 NA
ATOM      3  C   UNL     1       0.171   2.637  -1.157  0.00  0.00    +0.000 C 
ATOM      4  C   UNL     1      -1.016   1.786  -0.842  0.00  0.00    +0.000 C 
ATOM      5  C   UNL     1      -0.651   0.643   0.010  0.00  0.00    +0.000 A 
ATOM      6  C   UNL     1       0.541   0.559   0.673  0.00  0.00    +0.000 A 
ATOM      7  N   UNL     1       0.551  -0.566   1.339  0.00  0.00    +0.000 NA
ATOM      8  C   UNL     1      -0.616  -1.248   1.140  0.00  0.00    +0.000 A 
ATOM      9  C   UNL     1      -1.094  -2.455   1.601  0.00  0.00    +0.000 A 
ATOM     10  C   UNL     1      -2.327  -2.898   1.224  0.00  0.00    +0.000 A 
ATOM     11  C   UNL     1      -3.144  -2.154   0.367  0.00  0.00    +0.000 A 
ATOM     12  C   UNL     1      -2.656  -0.949  -0.088  0.00  0.00    +0.000 A 
ATOM     13  C   UNL     1      -1.414  -0.493   0.285  0.00  0.00    +0.000 A 
ENDROOT
BRANCH   1  17
ATOM     14  C   UNL     1       5.223  -0.641   0.497  0.00  0.00    +0.000 A 
ATOM     15  C   UNL     1       4.104  -1.057   1.179  0.00  0.00    +0.000 A 
ATOM     16  C   UNL     1       2.925  -0.302   1.176  0.00  0.00    +0.000 A 
ATOM     17  C   UNL     1       2.907   0.871   0.474  0.00  0.00    +0.000 A 
ATOM     18  C   UNL     1       3.976   1.337  -0.220  0.00  0.00    +0.000 A 
ATOM     19  C   UNL     1       5.159   0.542  -0.194  0.00  0.00    +0.000 A 
BRANCH  18  20
ATOM     20  C   UNL     1       4.037   2.579  -1.023  0.00  0.00    +0.000 C 
ATOM     21  C   UNL     1       3.504   2.413  -2.402  0.00  0.00    +0.000 C 
ENDBRANCH  18  20
BRANCH  14  22
ATOM     22  O   UNL     1       6.351  -1.419   0.535  0.00  0.00    +0.000 OA
BRANCH  22  24
ATOM     23  C   UNL     1       8.252   0.088   0.375  0.00  0.00    +0.000 C 
ATOM     24  C   UNL     1       7.577  -1.201  -0.070  0.00  0.00    +0.000 C 
ENDBRANCH  22  24
ENDBRANCH  14  22
ENDBRANCH   1  17
BRANCH  11  25
ATOM     25  O   UNL     1      -4.370  -2.670   0.037  0.00  0.00    +0.000 OA
BRANCH  25  26
ATOM     26  C   UNL     1      -5.277  -2.018  -0.813  0.00  0.00    +0.000 C 
BRANCH  26  27
ATOM     27  C   UNL     1      -5.635  -0.715  -0.223  0.00  0.00    +0.000 A 
ATOM     28  C   UNL     1      -5.063   0.413  -0.760  0.00  0.00    +0.000 A 
ATOM     29  C   UNL     1      -5.384   1.662  -0.221  0.00  0.00    +0.000 A 
ATOM     30  C   UNL     1      -6.268   1.746   0.840  0.00  0.00    +0.000 A 
ATOM     31  C   UNL     1      -6.813   0.607   1.342  0.00  0.00    +0.000 A 
ATOM     32  C   UNL     1      -6.529  -0.645   0.847  0.00  0.00    +0.000 A 
ENDBRANCH  26  27
ENDBRANCH  25  26
ENDBRANCH  11  25
TORSDOF 7
