REMARK  Name = 
REMARK  7 active torsions:
REMARK  status: ('A' for Active; 'I' for Inactive)
REMARK    1  A    between atoms: C_2  and  C_27
REMARK    2  A    between atoms: N_3  and  N_4
REMARK    3  A    between atoms: C_5  and  C_7
REMARK    4  A    between atoms: C_10  and  C_11
REMARK    5  A    between atoms: C_11  and  N_12
REMARK    6  A    between atoms: C_15  and  C_16
REMARK    7  A    between atoms: C_16  and  C_17
REMARK                            x       y       z     vdW  Elec       q    Type
REMARK                         _______ _______ _______ _____ _____    ______ ____
ROOT
ATOM      1  C   UNL     1       2.460   0.221  -0.550  0.00  0.00    +0.000 A 
ATOM      2  C   UNL     1       1.533  -0.727  -0.852  0.00  0.00    +0.000 A 
ATOM      3  C   UNL     1       0.220  -0.336  -1.129  0.00  0.00    +0.000 A 
ATOM      4  C   UNL     1      -0.173   0.978  -1.109  0.00  0.00    +0.000 A 
ATOM      5  C   UNL     1       0.794   1.917  -0.798  0.00  0.00    +0.000 A 
ATOM      6  C   UNL     1       2.077   1.541  -0.526  0.00  0.00    +0.000 A 
ENDROOT
BRANCH   1   8
ATOM      7  N   UNL     1       4.833   0.822   0.065  0.00  0.00    +0.000 NA
ATOM      8  C   UNL     1       3.842  -0.149  -0.254  0.00  0.00    +0.000 C 
ATOM      9  O   UNL     1       4.207  -1.347  -0.271  0.00  0.00    +0.000 OA
BRANCH   7  12
ATOM     10  C   UNL     1       6.726   0.930  -1.905  0.00  0.00    +0.000 C 
ATOM     11  C   UNL     1       7.098   0.514  -0.522  0.00  0.00    +0.000 C 
ATOM     12  N   UNL     1       6.161   0.485   0.352  0.00  0.00    +0.000 NA
BRANCH  11  13
ATOM     13  C   UNL     1       8.512   0.159  -0.229  0.00  0.00    +0.000 C 
ATOM     14  C   UNL     1       8.954  -1.002  -1.085  0.00  0.00    +0.000 C 
ATOM     15  C   UNL     1       8.689  -0.087   1.239  0.00  0.00    +0.000 C 
ATOM     16  C   UNL     1       9.345   1.376  -0.645  0.00  0.00    +0.000 C 
ENDBRANCH  11  13
ENDBRANCH   7  12
ENDBRANCH   1   8
BRANCH   4  17
ATOM     17  C   UNL     1      -1.556   1.434  -1.398  0.00  0.00    +0.000 C 
BRANCH  17  18
ATOM     18  N   UNL     1      -2.267   1.445  -0.126  0.00  0.00    +0.000 NA
ATOM     19  C   UNL     1      -3.627   1.867  -0.246  0.00  0.00    +0.000 C 
ATOM     20  C   UNL     1      -4.597   1.067   0.561  0.00  0.00    +0.000 C 
ATOM     21  C   UNL     1      -4.486  -0.392   0.241  0.00  0.00    +0.000 C 
ATOM     22  C   UNL     1      -3.072  -0.868   0.132  0.00  0.00    +0.000 C 
ATOM     23  C   UNL     1      -2.100   0.199   0.587  0.00  0.00    +0.000 C 
BRANCH  21  24
ATOM     24  C   UNL     1      -5.277  -1.226   1.248  0.00  0.00    +0.000 C 
BRANCH  24  25
ATOM     25  C   UNL     1      -6.711  -0.848   1.218  0.00  0.00    +0.000 A 
ATOM     26  C   UNL     1      -7.614  -1.464   0.384  0.00  0.00    +0.000 A 
ATOM     27  C   UNL     1      -8.945  -1.119   0.351  0.00  0.00    +0.000 A 
ATOM     28  C   UNL     1      -9.377  -0.116   1.189  0.00  0.00    +0.000 A 
ATOM     29  C   UNL     1      -8.486   0.497   2.016  0.00  0.00    +0.000 A 
ATOM     30  C   UNL     1      -7.164   0.164   2.059  0.00  0.00    +0.000 A 
ENDBRANCH  24  25
ENDBRANCH  21  24
ENDBRANCH  17  18
ENDBRANCH   4  17
TORSDOF 7
