REMARK  Name = 
REMARK  7 active torsions:
REMARK  status: ('A' for Active; 'I' for Inactive)
REMARK    1  A    between atoms: O_2  and  C_3
REMARK    2  A    between atoms: C_7  and  C_8
REMARK    3  A    between atoms: N_9  and  N_10
REMARK    4  A    between atoms: C_11  and  C_13
REMARK    5  A    between atoms: C_17  and  C_18
REMARK    6  A    between atoms: C_18  and  O_19
REMARK    7  A    between atoms: O_19  and  C_20
REMARK                            x       y       z     vdW  Elec       q    Type
REMARK                         _______ _______ _______ _____ _____    ______ ____
ROOT
ATOM      1  C   UNL     1      -0.474   1.448   0.562  0.00  0.00    +0.000 A 
ATOM      2  C   UNL     1      -1.060   2.578   0.067  0.00  0.00    +0.000 A 
ATOM      3  C   UNL     1      -2.386   2.870   0.293  0.00  0.00    +0.000 A 
ATOM      4  C   UNL     1      -3.112   1.966   1.050  0.00  0.00    +0.000 A 
ATOM      5  C   UNL     1      -2.551   0.831   1.556  0.00  0.00    +0.000 A 
ATOM      6  C   UNL     1      -1.224   0.573   1.309  0.00  0.00    +0.000 A 
ENDROOT
BRANCH   1   8
ATOM      7  N   UNL     1       1.588   0.020   0.790  0.00  0.00    +0.000 NA
ATOM      8  C   UNL     1       0.927   1.181   0.299  0.00  0.00    +0.000 C 
ATOM      9  O   UNL     1       1.623   1.977  -0.384  0.00  0.00    +0.000 OA
BRANCH   7  11
ATOM     10  C   UNL     1       3.793   0.620   0.186  0.00  0.00    +0.000 C 
ATOM     11  N   UNL     1       2.935  -0.245   0.542  0.00  0.00    +0.000 NA
BRANCH  10  16
ATOM     12  C   UNL     1       7.014  -1.287  -0.164  0.00  0.00    +0.000 A 
ATOM     13  C   UNL     1       7.872  -0.284  -0.547  0.00  0.00    +0.000 A 
ATOM     14  C   UNL     1       7.407   1.012  -0.691  0.00  0.00    +0.000 A 
ATOM     15  C   UNL     1       6.072   1.304  -0.451  0.00  0.00    +0.000 A 
ATOM     16  C   UNL     1       5.198   0.310  -0.067  0.00  0.00    +0.000 A 
ATOM     17  C   UNL     1       5.686  -0.963   0.068  0.00  0.00    +0.000 A 
ATOM     18  O   UNL     1       4.852  -1.994   0.451  0.00  0.00    +0.000 OA
BRANCH  12  20
ATOM     19  C   UNL     1       8.867  -2.817  -0.283  0.00  0.00    +0.000 C 
ATOM     20  O   UNL     1       7.502  -2.571  -0.027  0.00  0.00    +0.000 OA
ENDBRANCH  12  20
ENDBRANCH  10  16
ENDBRANCH   7  11
ENDBRANCH   1   8
BRANCH   5  21
ATOM     21  C   UNL     1      -3.332  -0.128   2.362  0.00  0.00    +0.000 C 
BRANCH  21  22
ATOM     22  O   UNL     1      -3.749  -1.263   1.649  0.00  0.00    +0.000 OA
BRANCH  22  23
ATOM     23  C   UNL     1      -4.568  -1.115   0.547  0.00  0.00    +0.000 A 
ATOM     24  C   UNL     1      -4.946  -2.276  -0.119  0.00  0.00    +0.000 A 
ATOM     25  C   UNL     1      -5.760  -2.241  -1.228  0.00  0.00    +0.000 A 
ATOM     26  C   UNL     1      -6.218  -1.028  -1.698  0.00  0.00    +0.000 A 
ATOM     27  C   UNL     1      -5.840   0.109  -1.034  0.00  0.00    +0.000 A 
ATOM     28  C   UNL     1      -5.023   0.074   0.079  0.00  0.00    +0.000 A 
ATOM     29  C   UNL     1      -6.428   1.296  -1.691  0.00  0.00    +0.000 C 
ATOM     30  C   UNL     1      -7.572   0.729  -2.476  0.00  0.00    +0.000 C 
ATOM     31  C   UNL     1      -7.094  -0.685  -2.846  0.00  0.00    +0.000 C 
ENDBRANCH  22  23
ENDBRANCH  21  22
ENDBRANCH   5  21
TORSDOF 7
