REMARK  Name = 
REMARK  6 active torsions:
REMARK  status: ('A' for Active; 'I' for Inactive)
REMARK    1  A    between atoms: C_2  and  C_22
REMARK    2  A    between atoms: N_3  and  C_4
REMARK    3  A    between atoms: C_4  and  C_5
REMARK    4  A    between atoms: C_5  and  C_6
REMARK    5  A    between atoms: C_6  and  C_7
REMARK    6  A    between atoms: C_7  and  N_8
REMARK                            x       y       z     vdW  Elec       q    Type
REMARK                         _______ _______ _______ _____ _____    ______ ____
ROOT
ATOM      1  C   UNL     1       0.494  -0.537  -1.496  0.00  0.00    +0.000 C 
ENDROOT
BRANCH   1   2
ATOM      2  C   UNL     1      -0.066   0.318  -2.605  0.00  0.00    +0.000 C 
BRANCH   2   3
ATOM      3  C   UNL     1      -1.066   1.336  -2.101  0.00  0.00    +0.000 C 
BRANCH   3   6
ATOM      4  O   UNL     1      -3.256   2.508  -0.949  0.00  0.00    +0.000 OA
ATOM      5  C   UNL     1      -3.228   1.253  -0.908  0.00  0.00    +0.000 C 
ATOM      6  N   UNL     1      -2.147   0.565  -1.472  0.00  0.00    +0.000 NA
BRANCH   5   7
ATOM      7  C   UNL     1      -4.319   0.485  -0.275  0.00  0.00    +0.000 A 
ATOM      8  C   UNL     1      -4.290  -0.892  -0.229  0.00  0.00    +0.000 A 
ATOM      9  N   UNL     1      -5.271  -1.627   0.343  0.00  0.00    +0.000 NA
ATOM     10  C   UNL     1      -6.349  -1.047   0.909  0.00  0.00    +0.000 A 
ATOM     11  C   UNL     1      -7.341  -1.821   1.489  0.00  0.00    +0.000 A 
ATOM     12  C   UNL     1      -8.428  -1.225   2.058  0.00  0.00    +0.000 A 
ATOM     13  C   UNL     1      -8.516   0.161   2.044  0.00  0.00    +0.000 A 
ATOM     14  C   UNL     1      -7.508   0.925   1.457  0.00  0.00    +0.000 A 
ATOM     15  C   UNL     1      -6.403   0.332   0.876  0.00  0.00    +0.000 A 
ATOM     16  C   UNL     1      -5.411   1.102   0.297  0.00  0.00    +0.000 A 
ENDBRANCH   5   7
ENDBRANCH   3   6
ENDBRANCH   2   3
ENDBRANCH   1   2
BRANCH   1  17
ATOM     17  C   UNL     1       1.179   0.378  -0.516  0.00  0.00    +0.000 C 
BRANCH  17  18
ATOM     18  N   UNL     1       1.758  -0.346   0.600  0.00  0.00    +0.000 NA
ATOM     19  C   UNL     1       2.393   0.556   1.496  0.00  0.00    +0.000 C 
ATOM     20  C   UNL     1       3.823   0.267   1.794  0.00  0.00    +0.000 C 
ATOM     21  C   UNL     1       4.594  -0.125   0.560  0.00  0.00    +0.000 A 
ATOM     22  C   UNL     1       3.922  -1.025  -0.274  0.00  0.00    +0.000 A 
ATOM     23  C   UNL     1       4.548  -1.431  -1.410  0.00  0.00    +0.000 A 
ATOM     24  C   UNL     1       5.808  -0.956  -1.710  0.00  0.00    +0.000 A 
ATOM     25  C   UNL     1       6.463  -0.070  -0.883  0.00  0.00    +0.000 A 
ATOM     26  C   UNL     1       7.726   0.390  -1.206  0.00  0.00    +0.000 A 
ATOM     27  C   UNL     1       8.315   1.280  -0.320  0.00  0.00    +0.000 A 
ATOM     28  C   UNL     1       7.709   1.703   0.826  0.00  0.00    +0.000 A 
ATOM     29  C   UNL     1       6.447   1.245   1.153  0.00  0.00    +0.000 A 
ATOM     30  C   UNL     1       5.841   0.357   0.282  0.00  0.00    +0.000 A 
ATOM     31  C   UNL     1       2.580  -1.449   0.170  0.00  0.00    +0.000 C 
ENDBRANCH  17  18
ENDBRANCH   1  17
TORSDOF 6
