REMARK  Name = 
REMARK  7 active torsions:
REMARK  status: ('A' for Active; 'I' for Inactive)
REMARK    1  A    between atoms: C_2  and  C_5
REMARK    2  A    between atoms: C_9  and  N_10
REMARK    3  A    between atoms: N_10  and  C_11
REMARK    4  A    between atoms: C_11  and  C_12
REMARK    5  A    between atoms: C_12  and  C_13
REMARK    6  A    between atoms: C_21  and  C_22
REMARK    7  A    between atoms: C_22  and  C_24
REMARK                            x       y       z     vdW  Elec       q    Type
REMARK                         _______ _______ _______ _____ _____    ______ ____
ROOT
ATOM      1  C   UNL     1       0.422   3.217  -0.247  0.00  0.00    +0.000 C 
ATOM      2  C   UNL     1      -1.037   2.623  -0.753  0.00  0.00    +0.000 C 
ATOM      3  O   UNL     1      -1.368   1.624   0.202  0.00  0.00    +0.000 OA
ATOM      4  C   UNL     1      -0.506   0.560   0.370  0.00  0.00    +0.000 A 
ATOM      5  C   UNL     1      -0.860  -0.643   0.953  0.00  0.00    +0.000 A 
ATOM      6  C   UNL     1       0.050  -1.682   1.097  0.00  0.00    +0.000 A 
ATOM      7  C   UNL     1       1.330  -1.507   0.650  0.00  0.00    +0.000 A 
ATOM      8  C   UNL     1       1.679  -0.300   0.067  0.00  0.00    +0.000 A 
ATOM      9  C   UNL     1       0.780   0.730  -0.078  0.00  0.00    +0.000 A 
ATOM     10  N   UNL     1       1.217   1.920  -0.679  0.00  0.00    +0.000 NA
ENDROOT
BRANCH   1  12
ATOM     11  C   UNL     1       2.121   4.667  -1.391  0.00  0.00    +0.000 C 
ATOM     12  C   UNL     1       0.759   4.022  -1.640  0.00  0.00    +0.000 C 
ATOM     13  C   UNL     1      -0.239   5.144  -1.727  0.00  0.00    +0.000 C 
ATOM     14  C   UNL     1       0.823   3.121  -2.768  0.00  0.00    +0.000 C 
ENDBRANCH   1  12
BRANCH   8  15
ATOM     15  C   UNL     1       3.042  -0.117  -0.411  0.00  0.00    +0.000 C 
ATOM     16  O   UNL     1       3.375   0.951  -0.936  0.00  0.00    +0.000 OA
BRANCH  15  17
ATOM     17  C   UNL     1       4.031  -1.181  -0.278  0.00  0.00    +0.000 A 
ATOM     18  C   UNL     1       5.123  -1.290  -1.112  0.00  0.00    +0.000 A 
ATOM     19  C   UNL     1       6.022  -2.338  -0.916  0.00  0.00    +0.000 A 
ATOM     20  C   UNL     1       5.838  -3.242   0.074  0.00  0.00    +0.000 A 
ATOM     21  C   UNL     1       4.742  -3.118   0.897  0.00  0.00    +0.000 A 
ATOM     22  C   UNL     1       3.849  -2.097   0.721  0.00  0.00    +0.000 A 
ENDBRANCH  15  17
ENDBRANCH   8  15
BRANCH   5  23
ATOM     23  N   UNL     1      -2.200  -0.759   1.394  0.00  0.00    +0.000 NA
BRANCH  23  24
ATOM     24  C   UNL     1      -2.705  -1.982   2.034  0.00  0.00    +0.000 C 
BRANCH  24  25
ATOM     25  C   UNL     1      -4.176  -1.659   2.330  0.00  0.00    +0.000 C 
BRANCH  25  26
ATOM     26  C   UNL     1      -4.789  -1.378   1.014  0.00  0.00    +0.000 A 
ATOM     27  C   UNL     1      -4.788  -0.095   0.535  0.00  0.00    +0.000 A 
ATOM     28  C   UNL     1      -5.364   0.171  -0.704  0.00  0.00    +0.000 A 
ATOM     29  C   UNL     1      -5.916  -0.848  -1.417  0.00  0.00    +0.000 A 
ATOM     30  C   UNL     1      -5.907  -2.122  -0.921  0.00  0.00    +0.000 A 
ATOM     31  C   UNL     1      -5.348  -2.393   0.286  0.00  0.00    +0.000 A 
ENDBRANCH  25  26
ENDBRANCH  24  25
ENDBRANCH  23  24
ENDBRANCH   5  23
TORSDOF 7
