REMARK  Name = 
REMARK  7 active torsions:
REMARK  status: ('A' for Active; 'I' for Inactive)
REMARK    1  A    between atoms: C_2  and  N_3
REMARK    2  A    between atoms: N_3  and  C_4
REMARK    3  A    between atoms: N_3  and  C_6
REMARK    4  A    between atoms: C_9  and  N_10
REMARK    5  A    between atoms: C_11  and  C_13
REMARK    6  A    between atoms: C_15  and  C_16
REMARK    7  A    between atoms: C_19  and  O_20
REMARK                            x       y       z     vdW  Elec       q    Type
REMARK                         _______ _______ _______ _____ _____    ______ ____
ROOT
ATOM      1  C   UNL     1      -0.754  -0.133  -0.588  0.00  0.00    +0.000 A 
ATOM      2  C   UNL     1      -1.915   0.285   0.073  0.00  0.00    +0.000 A 
ATOM      3  C   UNL     1      -3.134   0.288  -0.576  0.00  0.00    +0.000 A 
ATOM      4  N   UNL     1      -3.145  -0.126  -1.855  0.00  0.00    +0.000 NA
ATOM      5  C   UNL     1      -2.051  -0.535  -2.524  0.00  0.00    +0.000 A 
ATOM      6  C   UNL     1      -2.095  -0.957  -3.835  0.00  0.00    +0.000 A 
ATOM      7  C   UNL     1      -0.975  -1.381  -4.521  0.00  0.00    +0.000 A 
ATOM      8  C   UNL     1       0.235  -1.379  -3.862  0.00  0.00    +0.000 A 
ATOM      9  C   UNL     1       0.337  -0.967  -2.551  0.00  0.00    +0.000 A 
ATOM     10  C   UNL     1      -0.816  -0.548  -1.897  0.00  0.00    +0.000 A 
ENDROOT
BRANCH   3  11
ATOM     11  C   UNL     1      -4.340   0.724   0.113  0.00  0.00    +0.000 A 
ATOM     12  C   UNL     1      -5.567   0.704  -0.527  0.00  0.00    +0.000 A 
ATOM     13  C   UNL     1      -6.731   1.119   0.087  0.00  0.00    +0.000 A 
ATOM     14  C   UNL     1      -6.723   1.587   1.406  0.00  0.00    +0.000 A 
ATOM     15  C   UNL     1      -5.505   1.605   2.036  0.00  0.00    +0.000 A 
ATOM     16  C   UNL     1      -4.339   1.185   1.411  0.00  0.00    +0.000 A 
BRANCH  14  17
ATOM     17  O   UNL     1      -7.892   2.006   2.028  0.00  0.00    +0.000 OA
ATOM     18  C   UNL     1      -9.132   1.968   1.328  0.00  0.00    +0.000 C 
ENDBRANCH  14  17
ENDBRANCH   3  11
BRANCH   1  20
ATOM     19  N   UNL     1       1.708  -0.492  -0.620  0.00  0.00    +0.000 NA
ATOM     20  C   UNL     1       0.548  -0.133   0.089  0.00  0.00    +0.000 C 
ATOM     21  O   UNL     1       0.646   0.187   1.303  0.00  0.00    +0.000 OA
BRANCH  19  25
ATOM     22  C   UNL     1       5.500  -0.550   1.091  0.00  0.00    +0.000 A 
ATOM     23  C   UNL     1       4.380  -0.289   1.875  0.00  0.00    +0.000 A 
ATOM     24  C   UNL     1       3.155  -0.281   1.283  0.00  0.00    +0.000 A 
ATOM     25  C   UNL     1       3.010  -0.524  -0.058  0.00  0.00    +0.000 A 
ATOM     26  C   UNL     1       4.122  -0.787  -0.857  0.00  0.00    +0.000 A 
ATOM     27  C   UNL     1       5.348  -0.795  -0.263  0.00  0.00    +0.000 A 
BRANCH  22  28
ATOM     28  N   UNL     1       6.807  -0.580   1.631  0.00  0.00    +0.000 N 
BRANCH  28  30
ATOM     29  C   UNL     1       6.841   1.845   1.272  0.00  0.00    +0.000 C 
ATOM     30  C   UNL     1       7.602   0.615   1.761  0.00  0.00    +0.000 C 
ENDBRANCH  28  30
BRANCH  28  31
ATOM     31  C   UNL     1       7.360  -1.838   2.053  0.00  0.00    +0.000 C 
ATOM     32  C   UNL     1       7.513  -1.824   3.558  0.00  0.00    +0.000 C 
ENDBRANCH  28  31
ENDBRANCH  22  28
ENDBRANCH  19  25
ENDBRANCH   1  20
TORSDOF 7
