REMARK  Name = 
REMARK  9 active torsions:
REMARK  status: ('A' for Active; 'I' for Inactive)
REMARK    1  A    between atoms: O_2  and  C_3
REMARK    2  A    between atoms: C_6  and  C_7
REMARK    3  A    between atoms: C_7  and  C_8
REMARK    4  A    between atoms: C_8  and  N_9
REMARK    5  A    between atoms: C_10  and  C_12
REMARK    6  A    between atoms: C_12  and  N_19
REMARK    7  A    between atoms: C_13  and  C_14
REMARK    8  A    between atoms: C_20  and  C_22
REMARK    9  A    between atoms: C_29  and  O_30
REMARK                            x       y       z     vdW  Elec       q    Type
REMARK                         _______ _______ _______ _____ _____    ______ ____
ROOT
ATOM      1  C   UNL     1      -1.572  -1.102  -0.527  0.00  0.00    +0.000 C 
ATOM      2  C   UNL     1      -1.681  -2.398  -0.742  0.00  0.00    +0.000 C 
ENDROOT
BRANCH   2   3
ATOM      3  C   UNL     1      -3.032  -2.933  -1.012  0.00  0.00    +0.000 A 
ATOM      4  C   UNL     1      -3.346  -3.915  -1.913  0.00  0.00    +0.000 A 
ATOM      5  C   UNL     1      -4.616  -4.275  -2.020  0.00  0.00    +0.000 A 
ATOM      6  C   UNL     1      -5.530  -3.645  -1.225  0.00  0.00    +0.000 A 
ATOM      7  S   UNL     1      -4.557  -2.554  -0.343  0.00  0.00    +0.000 S 
ENDBRANCH   2   3
BRANCH   1   9
ATOM      8  N   UNL     1       0.868  -1.325  -0.218  0.00  0.00    +0.000 NA
ATOM      9  C   UNL     1      -0.276  -0.514  -0.257  0.00  0.00    +0.000 C 
ATOM     10  O   UNL     1      -0.172   0.706  -0.059  0.00  0.00    +0.000 OA
BRANCH   8  11
ATOM     11  C   UNL     1       2.217  -0.908   0.037  0.00  0.00    +0.000 C 
BRANCH  11  12
ATOM     12  C   UNL     1       2.754   0.098  -0.954  0.00  0.00    +0.000 C 
BRANCH  12  16
ATOM     13  C   UNL     1       6.843   0.750   0.261  0.00  0.00    +0.000 A 
ATOM     14  C   UNL     1       6.490  -0.249  -0.614  0.00  0.00    +0.000 A 
ATOM     15  C   UNL     1       5.189  -0.455  -1.004  0.00  0.00    +0.000 A 
ATOM     16  C   UNL     1       4.170   0.362  -0.509  0.00  0.00    +0.000 A 
ATOM     17  C   UNL     1       4.490   1.367   0.365  0.00  0.00    +0.000 A 
ATOM     18  C   UNL     1       5.803   1.551   0.738  0.00  0.00    +0.000 A 
BRANCH  13  20
ATOM     19  C   UNL     1       9.145   0.098   0.127  0.00  0.00    +0.000 C 
ATOM     20  O   UNL     1       8.147   0.961   0.658  0.00  0.00    +0.000 OA
ENDBRANCH  13  20
BRANCH  18  21
ATOM     21  O   UNL     1       6.114   2.581   1.632  0.00  0.00    +0.000 OA
ATOM     22  C   UNL     1       5.150   3.446   2.174  0.00  0.00    +0.000 C 
ENDBRANCH  18  21
ENDBRANCH  12  16
ENDBRANCH  11  12
ENDBRANCH   8  11
ENDBRANCH   1   9
BRANCH   1  23
ATOM     23  N   UNL     1      -2.780  -0.348  -0.568  0.00  0.00    +0.000 NA
ATOM     24  C   UNL     1      -3.271   0.427   0.499  0.00  0.00    +0.000 C 
ATOM     25  O   UNL     1      -2.553   0.432   1.563  0.00  0.00    +0.000 OA
BRANCH  24  26
ATOM     26  C   UNL     1      -4.496   1.194   0.477  0.00  0.00    +0.000 A 
ATOM     27  C   UNL     1      -4.689   2.177   1.440  0.00  0.00    +0.000 A 
ATOM     28  C   UNL     1      -5.833   2.953   1.499  0.00  0.00    +0.000 A 
ATOM     29  C   UNL     1      -6.810   2.733   0.564  0.00  0.00    +0.000 A 
ATOM     30  C   UNL     1      -6.667   1.777  -0.403  0.00  0.00    +0.000 A 
ATOM     31  C   UNL     1      -5.498   1.010  -0.436  0.00  0.00    +0.000 A 
ENDBRANCH  24  26
ENDBRANCH   1  23
TORSDOF 9
