REMARK  Name = 
REMARK  4 active torsions:
REMARK  status: ('A' for Active; 'I' for Inactive)
REMARK    1  A    between atoms: C_8  and  N_9
REMARK    2  A    between atoms: C_10  and  C_12
REMARK    3  A    between atoms: C_16  and  C_17
REMARK    4  A    between atoms: C_22  and  C_23
REMARK                            x       y       z     vdW  Elec       q    Type
REMARK                         _______ _______ _______ _____ _____    ______ ____
ROOT
ATOM      1  C   UNL     1       0.916  -0.090  -0.038  0.00  0.00    +0.000 A 
ATOM      2  S   UNL     1       0.523   0.209   1.583  0.00  0.00    +0.000 S 
ATOM      3  C   UNL     1      -1.180   0.190   1.461  0.00  0.00    +0.000 A 
ATOM      4  N   UNL     1      -2.143   0.360   2.399  0.00  0.00    +0.000 NA
ATOM      5  C   UNL     1      -3.458   0.294   2.063  0.00  0.00    +0.000 A 
ATOM      6  C   UNL     1      -3.716   0.054   0.757  0.00  0.00    +0.000 A 
ATOM      7  C   UNL     1      -2.747  -0.123  -0.228  0.00  0.00    +0.000 A 
ATOM      8  C   UNL     1      -1.395  -0.054   0.133  0.00  0.00    +0.000 A 
ATOM      9  C   UNL     1      -0.299  -0.201  -0.648  0.00  0.00    +0.000 A 
ATOM     10  N   UNL     1      -0.304  -0.482  -2.084  0.00  0.00    +0.000 NA
ENDROOT
BRANCH   7  11
ATOM     11  C   UNL     1      -3.219  -0.349  -1.579  0.00  0.00    +0.000 A 
ATOM     12  C   UNL     1      -4.118  -1.338  -1.858  0.00  0.00    +0.000 A 
ATOM     13  C   UNL     1      -4.577  -1.526  -3.136  0.00  0.00    +0.000 A 
ATOM     14  C   UNL     1      -4.144  -0.723  -4.170  0.00  0.00    +0.000 A 
ATOM     15  C   UNL     1      -3.243   0.271  -3.894  0.00  0.00    +0.000 A 
ATOM     16  C   UNL     1      -2.785   0.454  -2.606  0.00  0.00    +0.000 A 
ENDBRANCH   7  11
BRANCH   5  17
ATOM     17  C   UNL     1      -4.462   0.486   3.127  0.00  0.00    +0.000 C 
ATOM     18  C   UNL     1      -4.737   1.981   3.260  0.00  0.00    +0.000 C 
ATOM     19  C   UNL     1      -3.848   0.043   4.433  0.00  0.00    +0.000 C 
ATOM     20  C   UNL     1      -5.727  -0.266   2.817  0.00  0.00    +0.000 C 
ENDBRANCH   5  17
BRANCH   1  22
ATOM     21  N   UNL     1       3.396  -0.052   0.183  0.00  0.00    +0.000 NA
ATOM     22  C   UNL     1       2.283  -0.190  -0.607  0.00  0.00    +0.000 C 
ATOM     23  O   UNL     1       2.436  -0.402  -1.826  0.00  0.00    +0.000 OA
BRANCH  21  31
ATOM     24  C   UNL     1       4.840  -0.415  -2.440  0.00  0.00    +0.000 C 
ATOM     25  C   UNL     1       5.464  -0.242  -1.106  0.00  0.00    +0.000 A 
ATOM     26  C   UNL     1       6.848  -0.254  -1.076  0.00  0.00    +0.000 A 
ATOM     27  C   UNL     1       7.568  -0.106   0.070  0.00  0.00    +0.000 A 
ATOM     28  C   UNL     1       6.835   0.060   1.227  0.00  0.00    +0.000 A 
ATOM     29  C   UNL     1       5.484   0.076   1.230  0.00  0.00    +0.000 A 
ATOM     30  C   UNL     1       4.757   0.262   2.523  0.00  0.00    +0.000 C 
ATOM     31  C   UNL     1       4.752  -0.079   0.030  0.00  0.00    +0.000 A 
ENDBRANCH  21  31
ENDBRANCH   1  22
TORSDOF 4
