REMARK  Name = 
REMARK  5 active torsions:
REMARK  status: ('A' for Active; 'I' for Inactive)
REMARK    1  A    between atoms: C_19  and  C_20
REMARK    2  A    between atoms: C_24  and  O_25
REMARK    3  A    between atoms: O_25  and  C_26
REMARK    4  A    between atoms: C_26  and  C_27
REMARK    5  A    between atoms: C_27  and  N_28
REMARK                            x       y       z     vdW  Elec       q    Type
REMARK                         _______ _______ _______ _____ _____    ______ ____
ROOT
ATOM      1  O   UNL     1       6.073  -1.538  -4.962  0.00  0.00    +0.000 OA
ATOM      2  C   UNL     1       5.528  -0.983  -3.813  0.00  0.00    +0.000 A 
ATOM      3  C   UNL     1       6.346  -0.461  -2.800  0.00  0.00    +0.000 A 
ATOM      4  C   UNL     1       5.845   0.088  -1.670  0.00  0.00    +0.000 A 
ATOM      5  C   UNL     1       4.476   0.161  -1.456  0.00  0.00    +0.000 A 
ATOM      6  C   UNL     1       3.661  -0.349  -2.442  0.00  0.00    +0.000 A 
ATOM      7  C   UNL     1       4.173  -0.904  -3.585  0.00  0.00    +0.000 A 
ATOM      8  C   UNL     1       2.257  -0.146  -1.951  0.00  0.00    +0.000 C 
ATOM      9  C   UNL     1       2.388   0.530  -0.663  0.00  0.00    +0.000 A 
ATOM     10  C   UNL     1       3.700   0.708  -0.350  0.00  0.00    +0.000 A 
ATOM     11  C   UNL     1       4.037   1.342   0.844  0.00  0.00    +0.000 A 
ATOM     12  C   UNL     1       3.064   1.795   1.719  0.00  0.00    +0.000 A 
ATOM     13  C   UNL     1       3.411   2.426   2.909  0.00  0.00    +0.000 A 
ATOM     14  C   UNL     1       2.427   2.872   3.770  0.00  0.00    +0.000 A 
ATOM     15  C   UNL     1       1.099   2.661   3.395  0.00  0.00    +0.000 A 
ATOM     16  O   UNL     1       0.069   3.090   4.227  0.00  0.00    +0.000 OA
ATOM     17  C   UNL     1       0.790   2.037   2.221  0.00  0.00    +0.000 A 
ATOM     18  C   UNL     1       1.763   1.597   1.370  0.00  0.00    +0.000 A 
ATOM     19  C   UNL     1       1.391   0.969   0.190  0.00  0.00    +0.000 A 
ENDROOT
BRANCH  19  20
ATOM     20  C   UNL     1      -0.014   0.731  -0.171  0.00  0.00    +0.000 A 
ATOM     21  C   UNL     1      -0.543   1.428  -1.234  0.00  0.00    +0.000 A 
ATOM     22  C   UNL     1      -1.854   1.227  -1.597  0.00  0.00    +0.000 A 
ATOM     23  C   UNL     1      -2.617   0.348  -0.911  0.00  0.00    +0.000 A 
ATOM     24  C   UNL     1      -2.137  -0.395   0.184  0.00  0.00    +0.000 A 
ATOM     25  C   UNL     1      -0.793  -0.148   0.508  0.00  0.00    +0.000 A 
BRANCH  24  26
ATOM     26  O   UNL     1      -2.900  -1.218   0.801  0.00  0.00    +0.000 OA
BRANCH  26  27
ATOM     27  C   UNL     1      -3.745  -2.034   1.369  0.00  0.00    +0.000 C 
BRANCH  27  28
ATOM     28  C   UNL     1      -5.019  -1.506   1.965  0.00  0.00    +0.000 C 
BRANCH  28  29
ATOM     29  N   UNL     1      -5.788  -0.870   0.914  0.00  0.00    +0.000 NA
ATOM     30  C   UNL     1      -7.011  -0.289   1.440  0.00  0.00    +0.000 C 
ATOM     31  C   UNL     1      -8.015   0.060   0.401  0.00  0.00    +0.000 C 
ATOM     32  C   UNL     1      -8.511  -1.183  -0.306  0.00  0.00    +0.000 C 
ATOM     33  C   UNL     1      -7.488  -2.291  -0.139  0.00  0.00    +0.000 C 
ATOM     34  C   UNL     1      -6.062  -1.791  -0.177  0.00  0.00    +0.000 C 
ENDBRANCH  28  29
ENDBRANCH  27  28
ENDBRANCH  26  27
ENDBRANCH  24  26
ENDBRANCH  19  20
TORSDOF 5
