REMARK  Name = 
REMARK  9 active torsions:
REMARK  status: ('A' for Active; 'I' for Inactive)
REMARK    1  A    between atoms: C_2  and  O_5
REMARK    2  A    between atoms: O_5  and  C_6
REMARK    3  A    between atoms: C_9  and  O_10
REMARK    4  A    between atoms: O_10  and  C_11
REMARK    5  A    between atoms: C_11  and  C_12
REMARK    6  A    between atoms: C_16  and  C_17
REMARK    7  A    between atoms: C_17  and  O_18
REMARK    8  A    between atoms: O_18  and  C_19
REMARK    9  A    between atoms: C_22  and  C_23
REMARK                            x       y       z     vdW  Elec       q    Type
REMARK                         _______ _______ _______ _____ _____    ______ ____
ROOT
ATOM      1  C   UNL     1       0.258  -1.226  -1.186  0.00  0.00    +0.000 A 
ATOM      2  C   UNL     1      -0.026  -0.899   0.123  0.00  0.00    +0.000 A 
ATOM      3  C   UNL     1       0.682   0.097   0.752  0.00  0.00    +0.000 A 
ATOM      4  C   UNL     1       1.657   0.743   0.058  0.00  0.00    +0.000 A 
ATOM      5  C   UNL     1       1.992   0.468  -1.248  0.00  0.00    +0.000 A 
ATOM      6  C   UNL     1       1.264  -0.542  -1.866  0.00  0.00    +0.000 A 
ENDROOT
BRANCH   1   7
ATOM      7  C   UNL     1      -0.501  -2.293  -1.859  0.00  0.00    +0.000 C 
BRANCH   7   8
ATOM      8  O   UNL     1      -1.639  -1.841  -2.537  0.00  0.00    +0.000 OA
BRANCH   8  12
ATOM      9  C   UNL     1      -4.964   0.153  -0.956  0.00  0.00    +0.000 A 
ATOM     10  C   UNL     1      -3.907  -0.233  -0.144  0.00  0.00    +0.000 A 
ATOM     11  C   UNL     1      -2.807  -0.889  -0.653  0.00  0.00    +0.000 A 
ATOM     12  C   UNL     1      -2.709  -1.191  -1.983  0.00  0.00    +0.000 A 
ATOM     13  C   UNL     1      -3.763  -0.807  -2.798  0.00  0.00    +0.000 A 
ATOM     14  C   UNL     1      -4.868  -0.149  -2.297  0.00  0.00    +0.000 A 
BRANCH   9  15
ATOM     15  O   UNL     1      -6.079   0.814  -0.464  0.00  0.00    +0.000 OA
BRANCH  15  17
ATOM     16  C   UNL     1      -7.361   1.808   1.335  0.00  0.00    +0.000 C 
ATOM     17  C   UNL     1      -6.107   1.093   0.935  0.00  0.00    +0.000 C 
ATOM     18  C   UNL     1      -5.951  -0.242   1.653  0.00  0.00    +0.000 C 
ATOM     19  C   UNL     1      -4.923   2.004   1.211  0.00  0.00    +0.000 C 
ENDBRANCH  15  17
ENDBRANCH   9  15
ENDBRANCH   8  12
ENDBRANCH   7   8
ENDBRANCH   1   7
BRANCH   5  20
ATOM     20  C   UNL     1       3.060   1.187  -1.984  0.00  0.00    +0.000 C 
BRANCH  20  21
ATOM     21  O   UNL     1       3.748   2.056  -1.112  0.00  0.00    +0.000 OA
BRANCH  21  22
ATOM     22  C   UNL     1       4.432   1.583   0.013  0.00  0.00    +0.000 A 
ATOM     23  C   UNL     1       4.471   0.241   0.330  0.00  0.00    +0.000 A 
ATOM     24  C   UNL     1       5.144  -0.226   1.439  0.00  0.00    +0.000 A 
ATOM     25  C   UNL     1       5.816   0.649   2.287  0.00  0.00    +0.000 A 
ATOM     26  C   UNL     1       5.781   1.992   1.977  0.00  0.00    +0.000 A 
ATOM     27  C   UNL     1       5.101   2.437   0.863  0.00  0.00    +0.000 A 
BRANCH  25  28
ATOM     28  C   UNL     1       6.542   0.144   3.483  0.00  0.00    +0.000 C 
ATOM     29  N   UNL     1       5.657   0.118   4.627  0.00  0.00    +0.000 NA
ENDBRANCH  25  28
ENDBRANCH  21  22
ENDBRANCH  20  21
ENDBRANCH   5  20
TORSDOF 9
