REMARK  Name = 
REMARK  8 active torsions:
REMARK  status: ('A' for Active; 'I' for Inactive)
REMARK    1  A    between atoms: O_2  and  C_3
REMARK    2  A    between atoms: C_6  and  C_7
REMARK    3  A    between atoms: C_9  and  C_10
REMARK    4  A    between atoms: N_12  and  C_13
REMARK    5  A    between atoms: C_13  and  C_14
REMARK    6  A    between atoms: C_14  and  C_15
REMARK    7  A    between atoms: C_18  and  O_19
REMARK    8  A    between atoms: C_21  and  O_22
REMARK                            x       y       z     vdW  Elec       q    Type
REMARK                         _______ _______ _______ _____ _____    ______ ____
ROOT
ATOM      1  C   UNL     1      -3.503  -0.578   0.172  0.00  0.00    +0.000 A 
ATOM      2  C   UNL     1      -2.167  -0.257   0.060  0.00  0.00    +0.000 A 
ATOM      3  C   UNL     1      -1.237  -1.273   0.151  0.00  0.00    +0.000 A 
ATOM      4  C   UNL     1      -1.709  -2.555   0.350  0.00  0.00    +0.000 A 
ATOM      5  C   UNL     1      -0.798  -3.581   0.444  0.00  0.00    +0.000 A 
ATOM      6  C   UNL     1      -1.155  -4.898   0.641  0.00  0.00    +0.000 A 
ATOM      7  C   UNL     1      -2.510  -5.175   0.748  0.00  0.00    +0.000 A 
ATOM      8  C   UNL     1      -3.455  -4.157   0.657  0.00  0.00    +0.000 A 
ATOM      9  C   UNL     1      -3.044  -2.857   0.459  0.00  0.00    +0.000 A 
ATOM     10  N   UNL     1      -3.927  -1.839   0.365  0.00  0.00    +0.000 NA
ENDROOT
BRANCH   1  14
ATOM     11  C   UNL     1      -6.321   2.615  -0.120  0.00  0.00    +0.000 A 
ATOM     12  C   UNL     1      -6.728   1.314   0.078  0.00  0.00    +0.000 A 
ATOM     13  C   UNL     1      -5.845   0.260   0.176  0.00  0.00    +0.000 A 
ATOM     14  C   UNL     1      -4.492   0.504   0.074  0.00  0.00    +0.000 A 
ATOM     15  C   UNL     1      -4.101   1.810  -0.123  0.00  0.00    +0.000 A 
ATOM     16  C   UNL     1      -4.974   2.868  -0.223  0.00  0.00    +0.000 A 
BRANCH  11  18
ATOM     17  C   UNL     1      -6.816   4.940  -0.412  0.00  0.00    +0.000 C 
ATOM     18  O   UNL     1      -7.287   3.622  -0.208  0.00  0.00    +0.000 OA
ENDBRANCH  11  18
ENDBRANCH   1  14
BRANCH   3  19
ATOM     19  C   UNL     1       0.188  -1.022   0.045  0.00  0.00    +0.000 C 
ATOM     20  O   UNL     1       1.005  -1.664   0.742  0.00  0.00    +0.000 OA
ATOM     21  N   UNL     1       0.698  -0.043  -0.852  0.00  0.00    +0.000 NA
BRANCH  21  22
ATOM     22  C   UNL     1       2.086   0.263  -1.015  0.00  0.00    +0.000 C 
BRANCH  22  23
ATOM     23  C   UNL     1       2.637   0.732   0.310  0.00  0.00    +0.000 C 
BRANCH  23  24
ATOM     24  C   UNL     1       4.077   1.043   0.115  0.00  0.00    +0.000 A 
ATOM     25  C   UNL     1       4.451   2.298  -0.253  0.00  0.00    +0.000 A 
ATOM     26  C   UNL     1       5.790   2.643  -0.451  0.00  0.00    +0.000 A 
ATOM     27  C   UNL     1       6.755   1.676  -0.265  0.00  0.00    +0.000 A 
ATOM     28  C   UNL     1       6.398   0.387   0.111  0.00  0.00    +0.000 A 
ATOM     29  C   UNL     1       5.047   0.084   0.298  0.00  0.00    +0.000 A 
BRANCH  27  30
ATOM     30  O   UNL     1       8.091   1.997  -0.455  0.00  0.00    +0.000 OA
ATOM     31  C   UNL     1       8.467   3.286  -0.833  0.00  0.00    +0.000 C 
ENDBRANCH  27  30
BRANCH  28  32
ATOM     32  O   UNL     1       7.382  -0.564   0.291  0.00  0.00    +0.000 OA
ATOM     33  C   UNL     1       6.997  -1.877   0.676  0.00  0.00    +0.000 C 
ENDBRANCH  28  32
ENDBRANCH  23  24
ENDBRANCH  22  23
ENDBRANCH  21  22
ENDBRANCH   3  19
TORSDOF 8
