REMARK  Name = 
REMARK  7 active torsions:
REMARK  status: ('A' for Active; 'I' for Inactive)
REMARK    1  A    between atoms: O_2  and  C_3
REMARK    2  A    between atoms: C_6  and  C_7
REMARK    3  A    between atoms: C_7  and  C_8
REMARK    4  A    between atoms: C_8  and  N_9
REMARK    5  A    between atoms: C_10  and  C_12
REMARK    6  A    between atoms: C_14  and  C_15
REMARK    7  A    between atoms: C_29  and  O_30
REMARK                            x       y       z     vdW  Elec       q    Type
REMARK                         _______ _______ _______ _____ _____    ______ ____
ROOT
ATOM      1  C   UNL     1       2.013  -0.691  -0.557  0.00  0.00    +0.000 A 
ATOM      2  C   UNL     1       2.894   0.337  -0.883  0.00  0.00    +0.000 A 
ATOM      3  C   UNL     1       4.178   0.415  -0.333  0.00  0.00    +0.000 A 
ATOM      4  N   UNL     1       4.549  -0.542   0.533  0.00  0.00    +0.000 NA
ATOM      5  C   UNL     1       3.741  -1.551   0.877  0.00  0.00    +0.000 A 
ATOM      6  C   UNL     1       4.179  -2.499   1.747  0.00  0.00    +0.000 A 
ATOM      7  C   UNL     1       3.327  -3.549   2.081  0.00  0.00    +0.000 A 
ATOM      8  C   UNL     1       2.071  -3.630   1.544  0.00  0.00    +0.000 A 
ATOM      9  C   UNL     1       1.621  -2.683   0.670  0.00  0.00    +0.000 A 
ATOM     10  C   UNL     1       2.469  -1.635   0.339  0.00  0.00    +0.000 A 
ENDROOT
BRANCH   3  11
ATOM     11  C   UNL     1       5.067   1.520  -0.653  0.00  0.00    +0.000 A 
ATOM     12  C   UNL     1       4.675   2.493  -1.579  0.00  0.00    +0.000 A 
ATOM     13  C   UNL     1       5.513   3.553  -1.843  0.00  0.00    +0.000 A 
ATOM     14  C   UNL     1       6.741   3.717  -1.239  0.00  0.00    +0.000 A 
ATOM     15  C   UNL     1       7.128   2.748  -0.321  0.00  0.00    +0.000 A 
ATOM     16  C   UNL     1       6.287   1.687  -0.058  0.00  0.00    +0.000 A 
ENDBRANCH   3  11
BRANCH   1  18
ATOM     17  N   UNL     1      -0.379  -0.235  -0.285  0.00  0.00    +0.000 NA
ATOM     18  C   UNL     1       0.681  -0.668  -1.127  0.00  0.00    +0.000 C 
ATOM     19  O   UNL     1       0.404  -0.998  -2.308  0.00  0.00    +0.000 OA
BRANCH  17  20
ATOM     20  C   UNL     1      -1.757  -0.160  -0.697  0.00  0.00    +0.000 C 
BRANCH  20  21
ATOM     21  C   UNL     1      -2.548   0.438   0.459  0.00  0.00    +0.000 C 
BRANCH  21  25
ATOM     22  C   UNL     1      -6.774   0.642  -0.277  0.00  0.00    +0.000 A 
ATOM     23  C   UNL     1      -5.959   1.632  -0.750  0.00  0.00    +0.000 A 
ATOM     24  C   UNL     1      -4.585   1.580  -0.528  0.00  0.00    +0.000 A 
ATOM     25  C   UNL     1      -3.999   0.546   0.166  0.00  0.00    +0.000 A 
ATOM     26  C   UNL     1      -4.846  -0.430   0.627  0.00  0.00    +0.000 A 
ATOM     27  C   UNL     1      -6.228  -0.404   0.419  0.00  0.00    +0.000 A 
BRANCH  22  29
ATOM     28  C   UNL     1      -8.866   1.635  -1.162  0.00  0.00    +0.000 C 
ATOM     29  O   UNL     1      -8.153   0.646  -0.475  0.00  0.00    +0.000 OA
ENDBRANCH  22  29
BRANCH  27  30
ATOM     30  O   UNL     1      -7.022  -1.432   0.922  0.00  0.00    +0.000 OA
ATOM     31  C   UNL     1      -6.421  -2.482   1.631  0.00  0.00    +0.000 C 
ENDBRANCH  27  30
ENDBRANCH  21  25
ENDBRANCH  20  21
ENDBRANCH  17  20
ENDBRANCH   1  18
TORSDOF 7
