REMARK  Name = 
REMARK  6 active torsions:
REMARK  status: ('A' for Active; 'I' for Inactive)
REMARK    1  A    between atoms: C_10  and  C_11
REMARK    2  A    between atoms: C_17  and  C_18
REMARK    3  A    between atoms: C_21  and  O_22
REMARK    4  A    between atoms: O_22  and  C_23
REMARK    5  A    between atoms: C_23  and  C_24
REMARK    6  A    between atoms: C_24  and  N_25
REMARK                            x       y       z     vdW  Elec       q    Type
REMARK                         _______ _______ _______ _____ _____    ______ ____
ROOT
ATOM      1  O   UNL     1      -3.839  -5.195  -0.947  0.00  0.00    +0.000 OA
ATOM      2  C   UNL     1      -3.354  -3.986  -0.441  0.00  0.00    +0.000 A 
ATOM      3  C   UNL     1      -3.088  -3.848   0.915  0.00  0.00    +0.000 A 
ATOM      4  C   UNL     1      -2.604  -2.659   1.451  0.00  0.00    +0.000 A 
ATOM      5  C   UNL     1      -2.404  -1.628   0.562  0.00  0.00    +0.000 A 
ATOM      6  C   UNL     1      -2.641  -1.690  -0.771  0.00  0.00    +0.000 A 
ATOM      7  C   UNL     1      -3.127  -2.907  -1.261  0.00  0.00    +0.000 A 
ATOM      8  C   UNL     1      -2.444  -0.620  -1.761  0.00  0.00    +0.000 C 
ATOM      9  C   UNL     1      -2.163   0.716  -1.166  0.00  0.00    +0.000 C 
ATOM     10  C   UNL     1      -2.883   0.683   0.262  0.00  0.00    +0.000 C 
ATOM     11  C   UNL     1      -1.852  -0.279   1.180  0.00  0.00    +0.000 C 
ENDROOT
BRANCH  10  12
ATOM     12  C   UNL     1      -2.448   2.098   0.734  0.00  0.00    +0.000 A 
ATOM     13  C   UNL     1      -1.769   2.405   1.825  0.00  0.00    +0.000 A 
ATOM     14  C   UNL     1      -1.443   3.698   2.144  0.00  0.00    +0.000 A 
ATOM     15  C   UNL     1      -1.839   4.694   1.300  0.00  0.00    +0.000 A 
ATOM     16  C   UNL     1      -2.547   4.441   0.151  0.00  0.00    +0.000 A 
ATOM     17  C   UNL     1      -2.850   3.091  -0.121  0.00  0.00    +0.000 A 
ENDBRANCH  10  12
BRANCH  11  18
ATOM     18  C   UNL     1      -0.502  -0.215   0.440  0.00  0.00    +0.000 A 
ATOM     19  C   UNL     1       0.361  -1.247   0.331  0.00  0.00    +0.000 A 
ATOM     20  C   UNL     1       1.558  -1.103  -0.320  0.00  0.00    +0.000 A 
ATOM     21  C   UNL     1       1.883   0.108  -0.868  0.00  0.00    +0.000 A 
ATOM     22  C   UNL     1       1.038   1.190  -0.783  0.00  0.00    +0.000 A 
ATOM     23  C   UNL     1      -0.175   0.986  -0.106  0.00  0.00    +0.000 A 
BRANCH  21  24
ATOM     24  O   UNL     1       3.118   0.241  -1.534  0.00  0.00    +0.000 OA
BRANCH  24  25
ATOM     25  C   UNL     1       3.997  -0.845  -1.636  0.00  0.00    +0.000 C 
BRANCH  25  26
ATOM     26  C   UNL     1       4.468  -1.409  -0.354  0.00  0.00    +0.000 C 
BRANCH  26  27
ATOM     27  N   UNL     1       5.181  -0.521   0.502  0.00  0.00    +0.000 NA
ATOM     28  C   UNL     1       4.351   0.507   1.028  0.00  0.00    +0.000 C 
ATOM     29  C   UNL     1       5.142   1.789   0.990  0.00  0.00    +0.000 C 
ATOM     30  C   UNL     1       6.519   1.443   0.477  0.00  0.00    +0.000 C 
ATOM     31  C   UNL     1       6.356   0.063  -0.069  0.00  0.00    +0.000 C 
ENDBRANCH  26  27
ENDBRANCH  25  26
ENDBRANCH  24  25
ENDBRANCH  21  24
ENDBRANCH  11  18
TORSDOF 6
