REMARK  Name = 
REMARK  7 active torsions:
REMARK  status: ('A' for Active; 'I' for Inactive)
REMARK    1  A    between atoms: C_2  and  O_3
REMARK    2  A    between atoms: O_3  and  C_4
REMARK    3  A    between atoms: C_9  and  N_10
REMARK    4  A    between atoms: N_10  and  C_11
REMARK    5  A    between atoms: C_12  and  S_13
REMARK    6  A    between atoms: S_13  and  C_14
REMARK    7  A    between atoms: N_22  and  C_23
REMARK                            x       y       z     vdW  Elec       q    Type
REMARK                         _______ _______ _______ _____ _____    ______ ____
ROOT
ATOM      1  C   UNL     1      -0.301  -0.856  -0.488  0.00  0.00    +0.000 C 
ATOM      2  C   UNL     1      -0.338   0.491  -0.382  0.00  0.00    +0.000 C 
ATOM      3  C   UNL     1       1.007   0.907  -0.125  0.00  0.00    +0.000 C 
ATOM      4  O   UNL     1       1.456   2.078   0.046  0.00  0.00    +0.000 OA
ATOM      5  N   UNL     1       1.901  -0.238  -0.071  0.00  0.00    +0.000 N 
ATOM      6  C   UNL     1       1.044  -1.342  -0.305  0.00  0.00    +0.000 C 
ATOM      7  O   UNL     1       1.443  -2.550  -0.339  0.00  0.00    +0.000 OA
ENDROOT
BRANCH   5   8
ATOM      8  C   UNL     1       3.305  -0.204   0.164  0.00  0.00    +0.000 A 
ATOM      9  C   UNL     1       3.881  -0.839   1.250  0.00  0.00    +0.000 A 
ATOM     10  C   UNL     1       5.249  -0.798   1.470  0.00  0.00    +0.000 A 
ATOM     11  C   UNL     1       6.091  -0.121   0.612  0.00  0.00    +0.000 A 
ATOM     12  C   UNL     1       7.559  -0.092   0.870  0.00  0.00    +0.000 C 
ATOM     13  C   UNL     1       5.523   0.512  -0.470  0.00  0.00    +0.000 A 
ATOM     14  C   UNL     1       4.157   0.471  -0.689  0.00  0.00    +0.000 A 
ATOM     15  C   UNL     1       3.540   1.153  -1.854  0.00  0.00    +0.000 C 
ENDBRANCH   5   8
BRANCH   1  16
ATOM     16  N   UNL     1      -1.429  -1.684  -0.742  0.00  0.00    +0.000 NA
BRANCH  16  22
ATOM     17  C   UNL     1      -3.437  -2.770   0.126  0.00  0.00    +0.000 A 
ATOM     18  C   UNL     1      -4.306  -3.050   1.159  0.00  0.00    +0.000 A 
ATOM     19  C   UNL     1      -4.078  -2.531   2.424  0.00  0.00    +0.000 A 
ATOM     20  C   UNL     1      -2.974  -1.746   2.596  0.00  0.00    +0.000 A 
ATOM     21  C   UNL     1      -2.101  -1.466   1.554  0.00  0.00    +0.000 A 
ATOM     22  C   UNL     1      -2.327  -1.980   0.298  0.00  0.00    +0.000 A 
BRANCH  17  23
ATOM     23  O   UNL     1      -3.717  -3.316  -1.116  0.00  0.00    +0.000 OA
BRANCH  23  25
ATOM     24  C   UNL     1      -4.936  -4.603  -2.757  0.00  0.00    +0.000 C 
ATOM     25  C   UNL     1      -4.835  -4.127  -1.345  0.00  0.00    +0.000 C 
ENDBRANCH  23  25
ENDBRANCH  17  23
ENDBRANCH  16  22
ENDBRANCH   1  16
BRANCH   2  26
ATOM     26  S   UNL     1      -1.814   1.431  -0.547  0.00  0.00    +0.000 S 
BRANCH  26  27
ATOM     27  C   UNL     1      -1.631   3.141  -0.358  0.00  0.00    +0.000 A 
ATOM     28  C   UNL     1      -0.478   3.810  -0.095  0.00  0.00    +0.000 A 
ATOM     29  C   UNL     1      -0.398   5.180   0.045  0.00  0.00    +0.000 A 
ATOM     30  C   UNL     1      -1.548   5.925  -0.088  0.00  0.00    +0.000 A 
ATOM     31  C   UNL     1      -2.721   5.282  -0.353  0.00  0.00    +0.000 A 
ATOM     32  C   UNL     1      -2.787   3.932  -0.488  0.00  0.00    +0.000 A 
ENDBRANCH  26  27
ENDBRANCH   2  26
TORSDOF 7
