REMARK  Name = 
REMARK  10 active torsions:
REMARK  status: ('A' for Active; 'I' for Inactive)
REMARK    1  A    between atoms: O_2  and  C_3
REMARK    2  A    between atoms: C_7  and  C_8
REMARK    3  A    between atoms: C_8  and  N_9
REMARK    4  A    between atoms: C_13  and  C_14
REMARK    5  A    between atoms: C_14  and  N_15
REMARK    6  A    between atoms: N_15  and  C_16
REMARK    7  A    between atoms: N_15  and  C_23
REMARK    8  A    between atoms: C_16  and  C_17
REMARK    9  A    between atoms: C_23  and  C_24
REMARK   10  A    between atoms: C_24  and  C_26
REMARK                            x       y       z     vdW  Elec       q    Type
REMARK                         _______ _______ _______ _____ _____    ______ ____
ROOT
ATOM      1  N   UNL     1       0.494   1.215   0.282  0.00  0.00    +0.000 NA
ENDROOT
BRANCH   1   2
ATOM      2  C   UNL     1      -0.150   0.509  -0.802  0.00  0.00    +0.000 C 
BRANCH   2   7
ATOM      3  N   UNL     1      -2.047   0.960  -2.345  0.00  0.00    +0.000 N 
ATOM      4  C   UNL     1      -2.805   2.007  -2.653  0.00  0.00    +0.000 A 
ATOM      5  C   UNL     1      -2.428   3.123  -1.916  0.00  0.00    +0.000 A 
ATOM      6  C   UNL     1      -1.386   2.689  -1.134  0.00  0.00    +0.000 A 
ATOM      7  C   UNL     1      -1.178   1.357  -1.422  0.00  0.00    +0.000 A 
BRANCH   3   8
ATOM      8  C   UNL     1      -2.172  -0.351  -2.924  0.00  0.00    +0.000 C 
BRANCH   8  13
ATOM      9  C   UNL     1      -3.612  -2.695  -0.311  0.00  0.00    +0.000 A 
ATOM     10  C   UNL     1      -4.945  -2.596  -0.632  0.00  0.00    +0.000 A 
ATOM     11  C   UNL     1      -5.419  -1.799  -1.667  0.00  0.00    +0.000 A 
ATOM     12  C   UNL     1      -4.461  -1.078  -2.391  0.00  0.00    +0.000 A 
ATOM     13  C   UNL     1      -3.118  -1.149  -2.100  0.00  0.00    +0.000 A 
ATOM     14  C   UNL     1      -2.697  -1.959  -1.059  0.00  0.00    +0.000 A 
BRANCH   9  16
ATOM     15  C   UNL     1      -1.887  -3.663   1.118  0.00  0.00    +0.000 C 
ATOM     16  O   UNL     1      -3.236  -3.516   0.738  0.00  0.00    +0.000 OA
ENDBRANCH   9  16
ENDBRANCH   8  13
ENDBRANCH   3   8
ENDBRANCH   2   7
ENDBRANCH   1   2
BRANCH   1  17
ATOM     17  C   UNL     1       1.099   2.392  -0.245  0.00  0.00    +0.000 C 
BRANCH  17  18
ATOM     18  C   UNL     1       1.806   3.240   0.766  0.00  0.00    +0.000 C 
ATOM     19  C   UNL     1       0.908   3.740   1.862  0.00  0.00    +0.000 C 
ATOM     20  C   UNL     1       1.509   3.405   3.207  0.00  0.00    +0.000 C 
ATOM     21  C   UNL     1       2.925   3.846   3.343  0.00  0.00    +0.000 C 
ATOM     22  C   UNL     1       3.833   3.339   2.251  0.00  0.00    +0.000 C 
ATOM     23  C   UNL     1       3.030   2.534   1.290  0.00  0.00    +0.000 C 
ENDBRANCH  17  18
ENDBRANCH   1  17
BRANCH   1  24
ATOM     24  C   UNL     1       1.376   0.331   0.965  0.00  0.00    +0.000 C 
BRANCH  24  25
ATOM     25  C   UNL     1       2.630   0.016  -0.090  0.00  0.00    +0.000 C 
ATOM     26  O   UNL     1       1.722  -0.609  -1.162  0.00  0.00    +0.000 OA
BRANCH  25  27
ATOM     27  C   UNL     1       3.024  -1.409   0.608  0.00  0.00    +0.000 A 
ATOM     28  C   UNL     1       4.349  -1.567   0.897  0.00  0.00    +0.000 A 
ATOM     29  C   UNL     1       4.685  -2.788   1.496  0.00  0.00    +0.000 A 
ATOM     30  C   UNL     1       3.710  -3.738   1.758  0.00  0.00    +0.000 A 
ATOM     31  C   UNL     1       2.393  -3.493   1.431  0.00  0.00    +0.000 A 
ATOM     32  C   UNL     1       2.047  -2.292   0.840  0.00  0.00    +0.000 A 
ENDBRANCH  25  27
ENDBRANCH  24  25
ENDBRANCH   1  24
TORSDOF 10
