REMARK  Name = 
REMARK  8 active torsions:
REMARK  status: ('A' for Active; 'I' for Inactive)
REMARK    1  A    between atoms: O_2  and  C_3
REMARK    2  A    between atoms: C_6  and  O_7
REMARK    3  A    between atoms: C_9  and  C_10
REMARK    4  A    between atoms: C_12  and  C_13
REMARK    5  A    between atoms: N_15  and  C_16
REMARK    6  A    between atoms: C_16  and  C_18
REMARK    7  A    between atoms: C_18  and  C_19
REMARK    8  A    between atoms: C_19  and  C_20
REMARK                            x       y       z     vdW  Elec       q    Type
REMARK                         _______ _______ _______ _____ _____    ______ ____
ROOT
ATOM      1  C   UNL     1      -2.668   0.338   0.281  0.00  0.00    +0.000 A 
ATOM      2  C   UNL     1      -1.470   0.368  -0.403  0.00  0.00    +0.000 A 
ATOM      3  C   UNL     1      -0.259   0.159   0.216  0.00  0.00    +0.000 A 
ATOM      4  C   UNL     1      -0.278  -0.089   1.585  0.00  0.00    +0.000 A 
ATOM      5  C   UNL     1       0.915  -0.308   2.269  0.00  0.00    +0.000 A 
ATOM      6  C   UNL     1       0.936  -0.558   3.631  0.00  0.00    +0.000 A 
ATOM      7  C   UNL     1      -0.255  -0.589   4.322  0.00  0.00    +0.000 A 
ATOM      8  C   UNL     1      -1.418  -0.371   3.628  0.00  0.00    +0.000 A 
ATOM      9  C   UNL     1      -1.462  -0.120   2.271  0.00  0.00    +0.000 A 
ATOM     10  N   UNL     1      -2.596   0.092   1.600  0.00  0.00    +0.000 NA
ENDROOT
BRANCH   1  15
ATOM     11  C   UNL     1      -5.235   1.031  -2.384  0.00  0.00    +0.000 A 
ATOM     12  C   UNL     1      -6.379   0.998  -1.619  0.00  0.00    +0.000 A 
ATOM     13  C   UNL     1      -6.348   0.756  -0.262  0.00  0.00    +0.000 A 
ATOM     14  C   UNL     1      -5.114   0.539   0.345  0.00  0.00    +0.000 A 
ATOM     15  C   UNL     1      -3.949   0.566  -0.392  0.00  0.00    +0.000 A 
ATOM     16  C   UNL     1      -4.037   0.811  -1.742  0.00  0.00    +0.000 A 
BRANCH  11  18
ATOM     17  C   UNL     1      -6.526   1.506  -4.413  0.00  0.00    +0.000 C 
ATOM     18  O   UNL     1      -5.289   1.280  -3.770  0.00  0.00    +0.000 OA
ENDBRANCH  11  18
BRANCH  14  19
ATOM     19  O   UNL     1      -4.999   0.287   1.716  0.00  0.00    +0.000 OA
ATOM     20  C   UNL     1      -6.139   0.238   2.565  0.00  0.00    +0.000 C 
ENDBRANCH  14  19
ENDBRANCH   1  15
BRANCH   3  21
ATOM     21  C   UNL     1       1.011   0.191  -0.472  0.00  0.00    +0.000 C 
ATOM     22  O   UNL     1       0.982   0.419  -1.726  0.00  0.00    +0.000 OA
ATOM     23  N   UNL     1       2.243  -0.011   0.157  0.00  0.00    +0.000 NA
BRANCH  23  24
ATOM     24  C   UNL     1       3.504   0.073  -0.806  0.00  0.00    +0.000 C 
ATOM     25  C   UNL     1       3.226   1.698  -1.133  0.00  0.00    +0.000 C 
BRANCH  24  26
ATOM     26  C   UNL     1       4.535   0.445   0.439  0.00  0.00    +0.000 C 
BRANCH  26  27
ATOM     27  C   UNL     1       5.891   0.602  -0.166  0.00  0.00    +0.000 C 
BRANCH  27  28
ATOM     28  C   UNL     1       6.396  -0.601  -0.851  0.00  0.00    +0.000 A 
ATOM     29  C   UNL     1       7.133  -1.563  -0.192  0.00  0.00    +0.000 A 
ATOM     30  C   UNL     1       7.596  -2.678  -0.863  0.00  0.00    +0.000 A 
ATOM     31  C   UNL     1       7.321  -2.830  -2.190  0.00  0.00    +0.000 A 
ATOM     32  C   UNL     1       6.582  -1.882  -2.887  0.00  0.00    +0.000 A 
ATOM     33  C   UNL     1       6.148  -0.800  -2.182  0.00  0.00    +0.000 A 
ENDBRANCH  27  28
ENDBRANCH  26  27
ENDBRANCH  24  26
ENDBRANCH  23  24
ENDBRANCH   3  21
TORSDOF 8
