REMARK  Name = 
REMARK  7 active torsions:
REMARK  status: ('A' for Active; 'I' for Inactive)
REMARK    1  A    between atoms: C_2  and  O_3
REMARK    2  A    between atoms: O_3  and  C_4
REMARK    3  A    between atoms: C_7  and  N_8
REMARK    4  A    between atoms: C_11  and  N_12
REMARK    5  A    between atoms: N_12  and  C_13
REMARK    6  A    between atoms: C_20  and  S_21
REMARK    7  A    between atoms: S_21  and  C_22
REMARK                            x       y       z     vdW  Elec       q    Type
REMARK                         _______ _______ _______ _____ _____    ______ ____
ROOT
ATOM      1  N   UNL     1       1.161  -0.392   0.566  0.00  0.00    +0.000 N 
ATOM      2  C   UNL     1       0.231  -1.372   0.981  0.00  0.00    +0.000 C 
ATOM      3  O   UNL     1       0.520  -2.590   1.202  0.00  0.00    +0.000 OA
ATOM      4  C   UNL     1      -1.082  -0.768   1.108  0.00  0.00    +0.000 C 
ATOM      5  C   UNL     1      -0.995   0.542   0.788  0.00  0.00    +0.000 C 
ATOM      6  C   UNL     1       0.380   0.814   0.446  0.00  0.00    +0.000 C 
ATOM      7  O   UNL     1       0.927   1.891   0.087  0.00  0.00    +0.000 OA
ENDROOT
BRANCH   1  11
ATOM      8  C   UNL     1       5.316  -0.943  -0.080  0.00  0.00    +0.000 A 
ATOM      9  C   UNL     1       4.644   0.159  -0.609  0.00  0.00    +0.000 A 
ATOM     10  C   UNL     1       3.292   0.337  -0.400  0.00  0.00    +0.000 A 
ATOM     11  C   UNL     1       2.553  -0.544   0.326  0.00  0.00    +0.000 A 
ATOM     12  C   UNL     1       3.252  -1.640   0.845  0.00  0.00    +0.000 A 
ATOM     13  C   UNL     1       4.583  -1.839   0.653  0.00  0.00    +0.000 A 
BRANCH   8  14
ATOM     14  O   UNL     1       6.676  -1.129  -0.286  0.00  0.00    +0.000 OA
BRANCH  14  16
ATOM     15  C   UNL     1       8.750  -2.377   0.005  0.00  0.00    +0.000 C 
ATOM     16  C   UNL     1       7.283  -2.272   0.285  0.00  0.00    +0.000 C 
ENDBRANCH  14  16
ENDBRANCH   8  14
ENDBRANCH   1  11
BRANCH   4  17
ATOM     17  N   UNL     1      -2.229  -1.490   1.511  0.00  0.00    +0.000 NA
BRANCH  17  18
ATOM     18  C   UNL     1      -3.210  -1.813   0.550  0.00  0.00    +0.000 A 
ATOM     19  C   UNL     1      -3.081  -1.438  -0.750  0.00  0.00    +0.000 A 
ATOM     20  C   UNL     1      -4.033  -1.753  -1.679  0.00  0.00    +0.000 A 
ATOM     21  C   UNL     1      -5.169  -2.473  -1.307  0.00  0.00    +0.000 A 
ATOM     22  C   UNL     1      -6.164  -2.786  -2.344  0.00  0.00    +0.000 C 
ATOM     23  C   UNL     1      -5.272  -2.837   0.015  0.00  0.00    +0.000 A 
ATOM     24  C   UNL     1      -4.317  -2.523   0.953  0.00  0.00    +0.000 A 
ENDBRANCH  17  18
ENDBRANCH   4  17
BRANCH   5  25
ATOM     25  S   UNL     1      -2.397   1.596   0.831  0.00  0.00    +0.000 S 
BRANCH  25  26
ATOM     26  C   UNL     1      -2.092   3.254   0.367  0.00  0.00    +0.000 A 
ATOM     27  C   UNL     1      -0.897   3.759  -0.033  0.00  0.00    +0.000 A 
ATOM     28  C   UNL     1      -0.704   5.066  -0.385  0.00  0.00    +0.000 A 
ATOM     29  C   UNL     1      -1.759   5.957  -0.346  0.00  0.00    +0.000 A 
ATOM     30  C   UNL     1      -2.984   5.453   0.061  0.00  0.00    +0.000 A 
ATOM     31  C   UNL     1      -3.183   4.149   0.415  0.00  0.00    +0.000 A 
ENDBRANCH  25  26
ENDBRANCH   5  25
TORSDOF 7
