REMARK  Name = 
REMARK  7 active torsions:
REMARK  status: ('A' for Active; 'I' for Inactive)
REMARK    1  A    between atoms: C_2  and  C_4
REMARK    2  A    between atoms: C_4  and  N_5
REMARK    3  A    between atoms: C_8  and  C_9
REMARK    4  A    between atoms: N_11  and  C_12
REMARK    5  A    between atoms: C_12  and  C_14
REMARK    6  A    between atoms: C_14  and  C_15
REMARK    7  A    between atoms: C_15  and  C_16
REMARK                            x       y       z     vdW  Elec       q    Type
REMARK                         _______ _______ _______ _____ _____    ______ ____
ROOT
ATOM      1  N   UNL     1      -3.085  -1.155  -0.309  0.00  0.00    +0.000 N 
ATOM      2  C   UNL     1      -2.050  -2.010  -0.170  0.00  0.00    +0.000 A 
ATOM      3  N   UNL     1      -2.245  -3.420  -0.189  0.00  0.00    +0.000 NA
ATOM      4  C   UNL     1      -0.852  -1.310  -0.014  0.00  0.00    +0.000 A 
ATOM      5  C   UNL     1      -1.178   0.011  -0.061  0.00  0.00    +0.000 A 
ATOM      6  N   UNL     1      -0.398   1.112   0.043  0.00  0.00    +0.000 NA
ATOM      7  C   UNL     1      -0.983   2.318  -0.033  0.00  0.00    +0.000 A 
ATOM      8  C   UNL     1      -0.247   3.496   0.067  0.00  0.00    +0.000 A 
ATOM      9  C   UNL     1      -0.837   4.743  -0.008  0.00  0.00    +0.000 A 
ATOM     10  C   UNL     1      -2.200   4.869  -0.189  0.00  0.00    +0.000 A 
ATOM     11  C   UNL     1      -2.928   3.710  -0.287  0.00  0.00    +0.000 A 
ATOM     12  C   UNL     1      -2.339   2.459  -0.212  0.00  0.00    +0.000 A 
ATOM     13  N   UNL     1      -3.085   1.328  -0.312  0.00  0.00    +0.000 NA
ATOM     14  C   UNL     1      -2.529   0.077  -0.239  0.00  0.00    +0.000 A 
ENDROOT
BRANCH   4  15
ATOM     15  C   UNL     1       0.444  -1.947   0.152  0.00  0.00    +0.000 C 
ATOM     16  O   UNL     1       0.459  -3.251   0.165  0.00  0.00    +0.000 OA
ATOM     17  N   UNL     1       1.633  -1.314   0.293  0.00  0.00    +0.000 NA
BRANCH  17  18
ATOM     18  C   UNL     1       2.998  -2.005   0.461  0.00  0.00    +0.000 C 
ATOM     19  C   UNL     1       2.468  -3.527   0.585  0.00  0.00    +0.000 C 
BRANCH  18  20
ATOM     20  C   UNL     1       3.320  -2.113  -1.135  0.00  0.00    +0.000 C 
BRANCH  20  21
ATOM     21  C   UNL     1       3.376  -0.707  -1.673  0.00  0.00    +0.000 C 
BRANCH  21  22
ATOM     22  C   UNL     1       4.458   0.092  -1.060  0.00  0.00    +0.000 A 
ATOM     23  C   UNL     1       4.175   0.792   0.092  0.00  0.00    +0.000 A 
ATOM     24  C   UNL     1       5.120   1.565   0.751  0.00  0.00    +0.000 A 
ATOM     25  C   UNL     1       6.408   1.653   0.252  0.00  0.00    +0.000 A 
ATOM     26  C   UNL     1       6.705   0.959  -0.894  0.00  0.00    +0.000 A 
ATOM     27  C   UNL     1       5.750   0.184  -1.554  0.00  0.00    +0.000 A 
ENDBRANCH  21  22
ENDBRANCH  20  21
ENDBRANCH  18  20
ENDBRANCH  17  18
ENDBRANCH   4  15
BRANCH   1  28
ATOM     28  C   UNL     1      -4.458  -1.331  -0.499  0.00  0.00    +0.000 C 
BRANCH  28  30
ATOM     29  C   UNL     1      -5.586  -2.465   1.461  0.00  0.00    +0.000 C 
ATOM     30  C   UNL     1      -5.477  -1.432   0.414  0.00  0.00    +0.000 C 
ATOM     31  C   UNL     1      -6.837  -1.381  -0.324  0.00  0.00    +0.000 C 
ENDBRANCH  28  30
ENDBRANCH   1  28
TORSDOF 7
