REMARK  Name = 
REMARK  7 active torsions:
REMARK  status: ('A' for Active; 'I' for Inactive)
REMARK    1  A    between atoms: C_2  and  C_4
REMARK    2  A    between atoms: C_7  and  C_8
REMARK    3  A    between atoms: C_11  and  C_12
REMARK    4  A    between atoms: C_18  and  C_19
REMARK    5  A    between atoms: N_21  and  C_22
REMARK    6  A    between atoms: C_22  and  C_23
REMARK    7  A    between atoms: C_23  and  C_24
REMARK                            x       y       z     vdW  Elec       q    Type
REMARK                         _______ _______ _______ _____ _____    ______ ____
ROOT
ATOM      1  C   UNL     1       1.507  -0.298  -2.188  0.00  0.00    +0.000 C 
ATOM      2  O   UNL     1       2.523   0.773  -2.559  0.00  0.00    +0.000 OA
ATOM      3  N   UNL     1       2.786   1.313  -1.358  0.00  0.00    +0.000 NA
ATOM      4  C   UNL     1       1.463   1.586  -0.828  0.00  0.00    +0.000 C 
ATOM      5  C   UNL     1       0.634   0.696  -1.256  0.00  0.00    +0.000 C 
ENDROOT
BRANCH   1   9
ATOM      6  C   UNL     1       3.979  -2.181   0.762  0.00  0.00    +0.000 A 
ATOM      7  C   UNL     1       2.681  -1.891   1.085  0.00  0.00    +0.000 A 
ATOM      8  C   UNL     1       1.831  -1.271   0.158  0.00  0.00    +0.000 A 
ATOM      9  C   UNL     1       2.352  -0.983  -1.046  0.00  0.00    +0.000 A 
ATOM     10  C   UNL     1       3.632  -1.266  -1.373  0.00  0.00    +0.000 A 
ATOM     11  C   UNL     1       4.519  -1.887  -0.471  0.00  0.00    +0.000 A 
BRANCH   6  13
ATOM     12  C   UNL     1       6.147  -2.127   1.946  0.00  0.00    +0.000 C 
ATOM     13  C   UNL     1       4.845  -2.851   1.808  0.00  0.00    +0.000 C 
ATOM     14  C   UNL     1       5.105  -4.235   1.313  0.00  0.00    +0.000 C 
ENDBRANCH   6  13
ENDBRANCH   1   9
BRANCH   4  15
ATOM     15  C   UNL     1       1.105   2.696   0.056  0.00  0.00    +0.000 A 
ATOM     16  C   UNL     1       2.006   3.076   1.038  0.00  0.00    +0.000 A 
ATOM     17  C   UNL     1       1.767   4.112   1.918  0.00  0.00    +0.000 A 
ATOM     18  C   UNL     1       0.589   4.825   1.848  0.00  0.00    +0.000 A 
ATOM     19  C   UNL     1      -0.316   4.463   0.883  0.00  0.00    +0.000 A 
ATOM     20  C   UNL     1      -0.050   3.422   0.016  0.00  0.00    +0.000 A 
ENDBRANCH   4  15
BRANCH   5  21
ATOM     21  C   UNL     1      -0.787   0.458  -1.058  0.00  0.00    +0.000 C 
ATOM     22  O   UNL     1      -1.541   1.160  -0.352  0.00  0.00    +0.000 OA
ATOM     23  N   UNL     1      -1.438  -0.634  -1.680  0.00  0.00    +0.000 NA
BRANCH  23  24
ATOM     24  C   UNL     1      -2.851  -0.820  -1.445  0.00  0.00    +0.000 C 
BRANCH  24  25
ATOM     25  C   UNL     1      -3.018  -1.015   0.042  0.00  0.00    +0.000 C 
BRANCH  25  26
ATOM     26  C   UNL     1      -4.431  -1.212   0.369  0.00  0.00    +0.000 A 
ATOM     27  C   UNL     1      -4.950  -2.441   0.667  0.00  0.00    +0.000 A 
ATOM     28  C   UNL     1      -6.275  -2.639   0.976  0.00  0.00    +0.000 A 
ATOM     29  C   UNL     1      -7.112  -1.548   0.983  0.00  0.00    +0.000 A 
ATOM     30  C   UNL     1      -6.614  -0.288   0.685  0.00  0.00    +0.000 A 
ATOM     31  C   UNL     1      -5.271  -0.117   0.377  0.00  0.00    +0.000 A 
ATOM     32  F   UNL     1      -4.817   1.125   0.090  0.00  0.00    +0.000 F 
ENDBRANCH  25  26
ENDBRANCH  24  25
ENDBRANCH  23  24
ENDBRANCH   5  21
TORSDOF 7
