REMARK  Name = 
REMARK  7 active torsions:
REMARK  status: ('A' for Active; 'I' for Inactive)
REMARK    1  A    between atoms: O_2  and  C_3
REMARK    2  A    between atoms: C_6  and  C_7
REMARK    3  A    between atoms: C_7  and  C_8
REMARK    4  A    between atoms: C_8  and  N_9
REMARK    5  A    between atoms: C_10  and  C_12
REMARK    6  A    between atoms: C_14  and  C_15
REMARK    7  A    between atoms: C_19  and  O_20
REMARK                            x       y       z     vdW  Elec       q    Type
REMARK                         _______ _______ _______ _____ _____    ______ ____
ROOT
ATOM      1  C   UNL     1      -0.667  -0.963  -0.062  0.00  0.00    +0.000 A 
ATOM      2  C   UNL     1      -1.429  -0.220   0.810  0.00  0.00    +0.000 A 
ATOM      3  C   UNL     1      -2.465   0.601   0.426  0.00  0.00    +0.000 A 
ATOM      4  N   UNL     1      -2.747   0.681  -0.871  0.00  0.00    +0.000 NA
ATOM      5  C   UNL     1      -2.031  -0.029  -1.788  0.00  0.00    +0.000 A 
ATOM      6  C   UNL     1      -2.372   0.099  -3.106  0.00  0.00    +0.000 A 
ATOM      7  C   UNL     1      -1.668  -0.605  -4.050  0.00  0.00    +0.000 A 
ATOM      8  C   UNL     1      -0.634  -1.424  -3.662  0.00  0.00    +0.000 A 
ATOM      9  C   UNL     1      -0.267  -1.573  -2.342  0.00  0.00    +0.000 A 
ATOM     10  C   UNL     1      -0.993  -0.852  -1.407  0.00  0.00    +0.000 A 
ENDROOT
BRANCH   3  11
ATOM     11  C   UNL     1      -3.199   1.340   1.452  0.00  0.00    +0.000 A 
ATOM     12  C   UNL     1      -4.242   2.175   1.132  0.00  0.00    +0.000 A 
ATOM     13  C   UNL     1      -4.953   2.884   2.081  0.00  0.00    +0.000 A 
ATOM     14  C   UNL     1      -4.596   2.741   3.383  0.00  0.00    +0.000 A 
ATOM     15  C   UNL     1      -3.562   1.923   3.777  0.00  0.00    +0.000 A 
ATOM     16  C   UNL     1      -2.865   1.220   2.783  0.00  0.00    +0.000 A 
BRANCH  15  17
ATOM     17  O   UNL     1      -3.245   1.817   5.099  0.00  0.00    +0.000 OA
ATOM     18  C   UNL     1      -3.980   2.547   6.057  0.00  0.00    +0.000 C 
ENDBRANCH  15  17
ENDBRANCH   3  11
BRANCH   1  20
ATOM     19  N   UNL     1       1.218  -2.591  -0.470  0.00  0.00    +0.000 NA
ATOM     20  C   UNL     1       0.423  -1.822   0.391  0.00  0.00    +0.000 C 
ATOM     21  O   UNL     1       0.648  -1.863   1.626  0.00  0.00    +0.000 OA
BRANCH  19  22
ATOM     22  C   UNL     1       2.303  -3.449  -0.042  0.00  0.00    +0.000 C 
BRANCH  22  23
ATOM     23  C   UNL     1       3.387  -2.716   0.675  0.00  0.00    +0.000 C 
BRANCH  23  27
ATOM     24  C   UNL     1       5.097   0.266  -1.910  0.00  0.00    +0.000 A 
ATOM     25  C   UNL     1       5.599  -0.999  -1.877  0.00  0.00    +0.000 A 
ATOM     26  C   UNL     1       5.039  -1.943  -1.043  0.00  0.00    +0.000 A 
ATOM     27  C   UNL     1       3.969  -1.678  -0.213  0.00  0.00    +0.000 A 
ATOM     28  C   UNL     1       3.467  -0.384  -0.256  0.00  0.00    +0.000 A 
ATOM     29  C   UNL     1       4.024   0.560  -1.088  0.00  0.00    +0.000 A 
BRANCH  24  31
ATOM     30  C   UNL     1       5.112   2.554  -2.768  0.00  0.00    +0.000 C 
ATOM     31  O   UNL     1       5.629   1.256  -2.736  0.00  0.00    +0.000 OA
ENDBRANCH  24  31
ENDBRANCH  23  27
ENDBRANCH  22  23
ENDBRANCH  19  22
ENDBRANCH   1  20
TORSDOF 7
