REMARK  Name = 
REMARK  8 active torsions:
REMARK  status: ('A' for Active; 'I' for Inactive)
REMARK    1  A    between atoms: C_2  and  C_4
REMARK    2  A    between atoms: C_4  and  C_5
REMARK    3  A    between atoms: C_5  and  C_6
REMARK    4  A    between atoms: C_6  and  C_7
REMARK    5  A    between atoms: C_7  and  N_9
REMARK    6  A    between atoms: C_10  and  C_12
REMARK    7  A    between atoms: N_15  and  C_16
REMARK    8  A    between atoms: C_16  and  C_17
REMARK                            x       y       z     vdW  Elec       q    Type
REMARK                         _______ _______ _______ _____ _____    ______ ____
ROOT
ATOM      1  C   UNL     1       0.068  -0.253   0.643  0.00  0.00    +0.000 A 
ATOM      2  C   UNL     1      -0.889  -1.016   1.280  0.00  0.00    +0.000 A 
ATOM      3  N   UNL     1      -0.754  -1.554   2.592  0.00  0.00    +0.000 NA
ATOM      4  N   UNL     1      -1.921  -1.128   0.427  0.00  0.00    +0.000 N 
ATOM      5  C   UNL     1      -1.639  -0.463  -0.716  0.00  0.00    +0.000 A 
ATOM      6  N   UNL     1      -2.308  -0.262  -1.865  0.00  0.00    +0.000 NA
ATOM      7  C   UNL     1      -1.774   0.468  -2.884  0.00  0.00    +0.000 A 
ATOM      8  C   UNL     1      -2.469   0.669  -4.059  0.00  0.00    +0.000 A 
ATOM      9  C   UNL     1      -1.952   1.409  -5.119  0.00  0.00    +0.000 A 
ATOM     10  C   UNL     1      -0.701   1.966  -4.996  0.00  0.00    +0.000 A 
ATOM     11  C   UNL     1      -0.002   1.768  -3.822  0.00  0.00    +0.000 A 
ATOM     12  C   UNL     1      -0.519   1.030  -2.766  0.00  0.00    +0.000 A 
ATOM     13  N   UNL     1       0.158   0.832  -1.617  0.00  0.00    +0.000 NA
ATOM     14  C   UNL     1      -0.385   0.108  -0.622  0.00  0.00    +0.000 A 
ENDROOT
BRANCH   1  16
ATOM     15  N   UNL     1       2.257   0.902   0.468  0.00  0.00    +0.000 NA
ATOM     16  C   UNL     1       1.368   0.135   1.172  0.00  0.00    +0.000 C 
ATOM     17  O   UNL     1       1.679  -0.260   2.339  0.00  0.00    +0.000 OA
BRANCH  15  18
ATOM     18  C   UNL     1       3.651   1.307   1.053  0.00  0.00    +0.000 C 
ATOM     19  C   UNL     1       3.126   1.494   2.604  0.00  0.00    +0.000 C 
BRANCH  18  20
ATOM     20  C   UNL     1       4.165  -0.241   1.308  0.00  0.00    +0.000 C 
BRANCH  20  21
ATOM     21  C   UNL     1       4.716  -0.687  -0.006  0.00  0.00    +0.000 C 
BRANCH  21  22
ATOM     22  C   UNL     1       5.844   0.102  -0.545  0.00  0.00    +0.000 C 
BRANCH  22  24
ATOM     23  C   UNL     1       7.790  -1.051   0.556  0.00  0.00    +0.000 C 
ATOM     24  C   UNL     1       7.070   0.194   0.236  0.00  0.00    +0.000 C 
ATOM     25  C   UNL     1       7.246   1.336   1.143  0.00  0.00    +0.000 C 
ENDBRANCH  22  24
ENDBRANCH  21  22
ENDBRANCH  20  21
ENDBRANCH  18  20
ENDBRANCH  15  18
ENDBRANCH   1  16
BRANCH   4  26
ATOM     26  C   UNL     1      -3.126  -1.865   0.744  0.00  0.00    +0.000 C 
BRANCH  26  27
ATOM     27  C   UNL     1      -4.167  -1.052   1.386  0.00  0.00    +0.000 A 
ATOM     28  C   UNL     1      -5.134  -0.363   0.701  0.00  0.00    +0.000 A 
ATOM     29  C   UNL     1      -6.071   0.373   1.381  0.00  0.00    +0.000 A 
ATOM     30  C   UNL     1      -6.056   0.433   2.756  0.00  0.00    +0.000 A 
ATOM     31  C   UNL     1      -5.095  -0.250   3.472  0.00  0.00    +0.000 A 
ATOM     32  C   UNL     1      -4.173  -0.977   2.757  0.00  0.00    +0.000 A 
ENDBRANCH  26  27
ENDBRANCH   4  26
TORSDOF 8
