REMARK  Name = 
REMARK  7 active torsions:
REMARK  status: ('A' for Active; 'I' for Inactive)
REMARK    1  A    between atoms: C_4  and  C_5
REMARK    2  A    between atoms: C_5  and  O_6
REMARK    3  A    between atoms: O_6  and  C_7
REMARK    4  A    between atoms: C_10  and  N_11
REMARK    5  A    between atoms: C_13  and  C_14
REMARK    6  A    between atoms: C_14  and  C_15
REMARK    7  A    between atoms: C_15  and  N_16
REMARK                            x       y       z     vdW  Elec       q    Type
REMARK                         _______ _______ _______ _____ _____    ______ ____
ROOT
ATOM      1  N   UNL     1       0.853  -0.965  -0.059  0.00  0.00    +0.000 N 
ATOM      2  N   UNL     1       1.828  -0.119  -0.335  0.00  0.00    +0.000 NA
ATOM      3  C   UNL     1       3.005  -0.789  -0.478  0.00  0.00    +0.000 A 
ATOM      4  C   UNL     1       2.699  -2.105  -0.273  0.00  0.00    +0.000 A 
ATOM      5  C   UNL     1       1.359  -2.210  -0.013  0.00  0.00    +0.000 A 
ATOM      6  N   UNL     1       0.998  -3.556   0.203  0.00  0.00    +0.000 NA
ATOM      7  C   UNL     1       2.210  -4.323   0.329  0.00  0.00    +0.000 C 
ATOM      8  C   UNL     1       3.296  -3.446  -0.233  0.00  0.00    +0.000 C 
ENDROOT
BRANCH   1  12
ATOM      9  C   UNL     1      -3.249  -0.077   0.608  0.00  0.00    +0.000 A 
ATOM     10  C   UNL     1      -2.525  -0.783   1.551  0.00  0.00    +0.000 A 
ATOM     11  C   UNL     1      -1.179  -1.059   1.300  0.00  0.00    +0.000 A 
ATOM     12  C   UNL     1      -0.530  -0.668   0.164  0.00  0.00    +0.000 A 
ATOM     13  C   UNL     1      -1.257   0.042  -0.785  0.00  0.00    +0.000 A 
ATOM     14  C   UNL     1      -2.599   0.312  -0.524  0.00  0.00    +0.000 A 
BRANCH   9  15
ATOM     15  O   UNL     1      -4.583   0.240   0.779  0.00  0.00    +0.000 OA
BRANCH  15  16
ATOM     16  C   UNL     1      -5.268   0.960  -0.224  0.00  0.00    +0.000 C 
BRANCH  16  20
ATOM     17  C   UNL     1      -9.239   1.962   0.918  0.00  0.00    +0.000 A 
ATOM     18  C   UNL     1      -8.983   0.724   0.361  0.00  0.00    +0.000 A 
ATOM     19  C   UNL     1      -7.716   0.345  -0.027  0.00  0.00    +0.000 A 
ATOM     20  C   UNL     1      -6.689   1.224   0.147  0.00  0.00    +0.000 A 
ATOM     21  C   UNL     1      -6.948   2.462   0.705  0.00  0.00    +0.000 A 
ATOM     22  C   UNL     1      -8.200   2.851   1.094  0.00  0.00    +0.000 A 
ENDBRANCH  16  20
ENDBRANCH  15  16
ENDBRANCH   9  15
ENDBRANCH   1  12
BRANCH   3  23
ATOM     23  C   UNL     1       4.261  -0.086  -0.789  0.00  0.00    +0.000 C 
BRANCH  23  24
ATOM     24  C   UNL     1       5.159   0.064   0.413  0.00  0.00    +0.000 C 
BRANCH  24  25
ATOM     25  N   UNL     1       6.381   0.741   0.156  0.00  0.00    +0.000 NA
ATOM     26  C   UNL     1       7.335   0.107  -0.651  0.00  0.00    +0.000 C 
ATOM     27  C   UNL     1       7.564   0.904  -1.913  0.00  0.00    +0.000 C 
ATOM     28  C   UNL     1       8.214   2.203  -1.492  0.00  0.00    +0.000 C 
ATOM     29  C   UNL     1       7.461   2.895  -0.397  0.00  0.00    +0.000 C 
ATOM     30  C   UNL     1       6.341   2.149   0.186  0.00  0.00    +0.000 C 
ENDBRANCH  24  25
ENDBRANCH  23  24
ENDBRANCH   3  23
TORSDOF 7
