REMARK  Name = 
REMARK  8 active torsions:
REMARK  status: ('A' for Active; 'I' for Inactive)
REMARK    1  A    between atoms: C_2  and  C_3
REMARK    2  A    between atoms: C_7  and  C_8
REMARK    3  A    between atoms: C_10  and  N_11
REMARK    4  A    between atoms: C_12  and  C_14
REMARK    5  A    between atoms: C_14  and  O_15
REMARK    6  A    between atoms: O_15  and  C_16
REMARK    7  A    between atoms: C_16  and  C_18
REMARK    8  A    between atoms: C_21  and  C_22
REMARK                            x       y       z     vdW  Elec       q    Type
REMARK                         _______ _______ _______ _____ _____    ______ ____
ROOT
ATOM      1  O   UNL     1      -0.567   2.283   0.704  0.00  0.00    +0.000 OA
ENDROOT
BRANCH   1   2
ATOM      2  C   UNL     1       0.013   1.566  -0.330  0.00  0.00    +0.000 C 
ATOM      3  O   UNL     1      -0.697   1.366  -1.348  0.00  0.00    +0.000 OA
BRANCH   2   4
ATOM      4  C   UNL     1       1.370   1.054  -0.280  0.00  0.00    +0.000 A 
ATOM      5  C   UNL     1       1.871   0.329  -1.342  0.00  0.00    +0.000 A 
ATOM      6  C   UNL     1       3.152  -0.169  -1.343  0.00  0.00    +0.000 A 
ATOM      7  C   UNL     1       3.987   0.047  -0.263  0.00  0.00    +0.000 A 
ATOM      8  C   UNL     1       3.516   0.762   0.802  0.00  0.00    +0.000 A 
ATOM      9  C   UNL     1       2.216   1.255   0.780  0.00  0.00    +0.000 A 
BRANCH   7  10
ATOM     10  C   UNL     1       5.332  -0.516  -0.336  0.00  0.00    +0.000 A 
ATOM     11  C   UNL     1       5.593  -1.694  -1.002  0.00  0.00    +0.000 A 
ATOM     12  C   UNL     1       6.860  -2.242  -1.087  0.00  0.00    +0.000 A 
ATOM     13  C   UNL     1       7.895  -1.572  -0.476  0.00  0.00    +0.000 A 
ATOM     14  C   UNL     1       7.679  -0.401   0.196  0.00  0.00    +0.000 A 
ATOM     15  C   UNL     1       6.402   0.117   0.261  0.00  0.00    +0.000 A 
ENDBRANCH   7  10
ENDBRANCH   2   4
ENDBRANCH   1   2
BRANCH   1  16
ATOM     16  C   UNL     1      -1.856   2.800   0.708  0.00  0.00    +0.000 C 
BRANCH  16  18
ATOM     17  N   UNL     1      -2.669   0.451   0.389  0.00  0.00    +0.000 NA
ATOM     18  C   UNL     1      -2.942   1.817   0.541  0.00  0.00    +0.000 C 
ATOM     19  O   UNL     1      -4.122   2.222   0.538  0.00  0.00    +0.000 OA
BRANCH  17  25
ATOM     20  C   UNL     1      -4.192  -1.256   1.284  0.00  0.00    +0.000 A 
ATOM     21  C   UNL     1      -5.121  -2.291   1.066  0.00  0.00    +0.000 A 
ATOM     22  C   UNL     1      -5.479  -2.661  -0.211  0.00  0.00    +0.000 A 
ATOM     23  C   UNL     1      -4.907  -1.994  -1.271  0.00  0.00    +0.000 A 
ATOM     24  C   UNL     1      -3.977  -0.958  -1.058  0.00  0.00    +0.000 A 
ATOM     25  C   UNL     1      -3.615  -0.582   0.218  0.00  0.00    +0.000 A 
BRANCH  20  27
ATOM     26  C   UNL     1      -4.539   0.364   3.061  0.00  0.00    +0.000 C 
ATOM     27  C   UNL     1      -3.811  -0.887   2.668  0.00  0.00    +0.000 C 
ENDBRANCH  20  27
BRANCH  24  28
ATOM     28  C   UNL     1      -3.358  -0.269  -2.214  0.00  0.00    +0.000 C 
ATOM     29  C   UNL     1      -4.034   1.059  -2.398  0.00  0.00    +0.000 C 
ENDBRANCH  24  28
ENDBRANCH  17  25
ENDBRANCH  16  18
ENDBRANCH   1  16
TORSDOF 8
