REMARK  Name = 
REMARK  9 active torsions:
REMARK  status: ('A' for Active; 'I' for Inactive)
REMARK    1  A    between atoms: O_2  and  C_3
REMARK    2  A    between atoms: C_6  and  C_7
REMARK    3  A    between atoms: C_7  and  C_8
REMARK    4  A    between atoms: C_8  and  N_9
REMARK    5  A    between atoms: C_12  and  C_13
REMARK    6  A    between atoms: C_13  and  O_15
REMARK    7  A    between atoms: O_15  and  C_16
REMARK    8  A    between atoms: C_16  and  C_17
REMARK    9  A    between atoms: C_17  and  C_18
REMARK                            x       y       z     vdW  Elec       q    Type
REMARK                         _______ _______ _______ _____ _____    ______ ____
ROOT
ATOM      1  N   UNL     1       0.553   0.163  -0.769  0.00  0.00    +0.000 N 
ATOM      2  C   UNL     1      -0.309   1.191  -0.798  0.00  0.00    +0.000 A 
ATOM      3  N   UNL     1      -0.020   2.576  -1.019  0.00  0.00    +0.000 NA
ATOM      4  C   UNL     1      -1.553   0.649  -0.571  0.00  0.00    +0.000 A 
ATOM      5  C   UNL     1      -1.435  -0.737  -0.401  0.00  0.00    +0.000 A 
ATOM      6  N   UNL     1      -2.350  -1.695  -0.159  0.00  0.00    +0.000 NA
ATOM      7  C   UNL     1      -1.947  -2.973  -0.040  0.00  0.00    +0.000 A 
ATOM      8  C   UNL     1      -2.875  -3.990   0.212  0.00  0.00    +0.000 A 
ATOM      9  C   UNL     1      -2.448  -5.288   0.331  0.00  0.00    +0.000 A 
ATOM     10  C   UNL     1      -1.108  -5.570   0.201  0.00  0.00    +0.000 A 
ATOM     11  C   UNL     1      -0.182  -4.585  -0.045  0.00  0.00    +0.000 A 
ATOM     12  C   UNL     1      -0.608  -3.257  -0.169  0.00  0.00    +0.000 A 
ATOM     13  N   UNL     1       0.315  -2.284  -0.413  0.00  0.00    +0.000 NA
ATOM     14  C   UNL     1      -0.093  -1.004  -0.533  0.00  0.00    +0.000 A 
ENDROOT
BRANCH   4  15
ATOM     15  C   UNL     1      -2.833   1.355  -0.505  0.00  0.00    +0.000 C 
ATOM     16  O   UNL     1      -2.855   2.601  -0.668  0.00  0.00    +0.000 OA
BRANCH  15  17
ATOM     17  O   UNL     1      -4.019   0.708  -0.271  0.00  0.00    +0.000 OA
BRANCH  17  18
ATOM     18  C   UNL     1      -5.272   1.313  -0.195  0.00  0.00    +0.000 C 
BRANCH  18  19
ATOM     19  C   UNL     1      -5.354   2.348   0.909  0.00  0.00    +0.000 C 
BRANCH  19  20
ATOM     20  C   UNL     1      -6.722   2.988   0.968  0.00  0.00    +0.000 C 
ATOM     21  C   UNL     1      -6.941   3.651  -0.397  0.00  0.00    +0.000 C 
ATOM     22  C   UNL     1      -6.685   4.112   1.978  0.00  0.00    +0.000 C 
ENDBRANCH  19  20
ENDBRANCH  18  19
ENDBRANCH  17  18
ENDBRANCH  15  17
ENDBRANCH   4  15
BRANCH   1  23
ATOM     23  C   UNL     1       2.002   0.239  -0.960  0.00  0.00    +0.000 C 
BRANCH  23  24
ATOM     24  C   UNL     1       2.640   0.454   0.419  0.00  0.00    +0.000 C 
BRANCH  24  28
ATOM     25  C   UNL     1       6.851   0.820  -0.027  0.00  0.00    +0.000 A 
ATOM     26  C   UNL     1       6.303  -0.428   0.188  0.00  0.00    +0.000 A 
ATOM     27  C   UNL     1       4.929  -0.575   0.338  0.00  0.00    +0.000 A 
ATOM     28  C   UNL     1       4.114   0.537   0.269  0.00  0.00    +0.000 A 
ATOM     29  C   UNL     1       4.679   1.762   0.055  0.00  0.00    +0.000 A 
ATOM     30  C   UNL     1       6.051   1.941  -0.099  0.00  0.00    +0.000 A 
BRANCH  25  32
ATOM     31  C   UNL     1       8.930   2.098  -0.391  0.00  0.00    +0.000 C 
ATOM     32  O   UNL     1       8.242   0.881  -0.166  0.00  0.00    +0.000 OA
ENDBRANCH  25  32
ENDBRANCH  24  28
ENDBRANCH  23  24
ENDBRANCH   1  23
TORSDOF 9
