REMARK  Name = 
REMARK  7 active torsions:
REMARK  status: ('A' for Active; 'I' for Inactive)
REMARK    1  A    between atoms: C_5  and  C_6
REMARK    2  A    between atoms: C_9  and  C_10
REMARK    3  A    between atoms: C_18  and  C_19
REMARK    4  A    between atoms: C_22  and  O_23
REMARK    5  A    between atoms: O_23  and  C_24
REMARK    6  A    between atoms: C_24  and  C_25
REMARK    7  A    between atoms: C_25  and  N_26
REMARK                            x       y       z     vdW  Elec       q    Type
REMARK                         _______ _______ _______ _____ _____    ______ ____
ROOT
ATOM      1  C   UNL     1      -2.006  -0.224   1.369  0.00  0.00    +0.000 A 
ATOM      2  C   UNL     1      -3.156   0.432   1.780  0.00  0.00    +0.000 A 
ATOM      3  C   UNL     1      -3.758   1.388   0.978  0.00  0.00    +0.000 A 
ATOM      4  C   UNL     1      -3.234   1.718  -0.255  0.00  0.00    +0.000 A 
ATOM      5  N   UNL     1      -2.120   1.076  -0.642  0.00  0.00    +0.000 NA
ATOM      6  C   UNL     1      -1.509   0.130   0.133  0.00  0.00    +0.000 A 
ENDROOT
BRANCH   1  11
ATOM      7  O   UNL     1       0.534  -4.053   4.708  0.00  0.00    +0.000 OA
ATOM      8  C   UNL     1      -0.089  -3.124   3.880  0.00  0.00    +0.000 A 
ATOM      9  C   UNL     1      -0.578  -3.476   2.631  0.00  0.00    +0.000 A 
ATOM     10  C   UNL     1      -1.194  -2.548   1.817  0.00  0.00    +0.000 A 
ATOM     11  C   UNL     1      -1.356  -1.233   2.199  0.00  0.00    +0.000 A 
ATOM     12  C   UNL     1      -0.867  -0.882   3.445  0.00  0.00    +0.000 A 
ATOM     13  C   UNL     1      -0.250  -1.809   4.262  0.00  0.00    +0.000 A 
ENDBRANCH   1  11
BRANCH   4  14
ATOM     14  C   UNL     1      -3.889   2.728  -1.076  0.00  0.00    +0.000 A 
ATOM     15  C   UNL     1      -3.388   3.085  -2.310  0.00  0.00    +0.000 A 
ATOM     16  C   UNL     1      -3.997   4.041  -3.102  0.00  0.00    +0.000 A 
ATOM     17  C   UNL     1      -5.144   4.671  -2.668  0.00  0.00    +0.000 A 
ATOM     18  F   UNL     1      -5.715   5.602  -3.467  0.00  0.00    +0.000 F 
ATOM     19  C   UNL     1      -5.654   4.322  -1.435  0.00  0.00    +0.000 A 
ATOM     20  C   UNL     1      -5.034   3.358  -0.643  0.00  0.00    +0.000 A 
ENDBRANCH   4  14
BRANCH   6  21
ATOM     21  C   UNL     1      -0.305  -0.551  -0.322  0.00  0.00    +0.000 A 
ATOM     22  C   UNL     1       0.921  -0.464   0.314  0.00  0.00    +0.000 A 
ATOM     23  C   UNL     1       2.028  -1.133  -0.164  0.00  0.00    +0.000 A 
ATOM     24  C   UNL     1       2.002  -1.920  -1.283  0.00  0.00    +0.000 A 
ATOM     25  C   UNL     1       0.754  -2.015  -1.938  0.00  0.00    +0.000 A 
ATOM     26  C   UNL     1      -0.334  -1.341  -1.446  0.00  0.00    +0.000 A 
BRANCH  24  27
ATOM     27  O   UNL     1       3.040  -2.602  -1.807  0.00  0.00    +0.000 OA
BRANCH  27  28
ATOM     28  C   UNL     1       4.347  -2.796  -1.537  0.00  0.00    +0.000 C 
BRANCH  28  29
ATOM     29  C   UNL     1       5.278  -1.640  -1.505  0.00  0.00    +0.000 C 
BRANCH  29  30
ATOM     30  N   UNL     1       4.909  -0.712  -0.472  0.00  0.00    +0.000 NA
ATOM     31  C   UNL     1       5.176  -1.310   0.828  0.00  0.00    +0.000 C 
ATOM     32  C   UNL     1       6.588  -1.001   1.309  0.00  0.00    +0.000 C 
ATOM     33  C   UNL     1       6.797   0.483   1.480  0.00  0.00    +0.000 C 
ATOM     34  C   UNL     1       5.691   1.214   0.747  0.00  0.00    +0.000 C 
ATOM     35  C   UNL     1       5.509   0.584  -0.619  0.00  0.00    +0.000 C 
ENDBRANCH  29  30
ENDBRANCH  28  29
ENDBRANCH  27  28
ENDBRANCH  24  27
ENDBRANCH   6  21
TORSDOF 7
