REMARK  Name = 
REMARK  8 active torsions:
REMARK  status: ('A' for Active; 'I' for Inactive)
REMARK    1  A    between atoms: C_2  and  N_3
REMARK    2  A    between atoms: C_2  and  C_19
REMARK    3  A    between atoms: N_3  and  N_4
REMARK    4  A    between atoms: C_5  and  C_7
REMARK    5  A    between atoms: C_7  and  O_8
REMARK    6  A    between atoms: O_8  and  C_9
REMARK    7  A    between atoms: C_12  and  C_13
REMARK    8  A    between atoms: C_24  and  O_25
REMARK                            x       y       z     vdW  Elec       q    Type
REMARK                         _______ _______ _______ _____ _____    ______ ____
ROOT
ATOM      1  N   UNL     1      -0.415  -1.464   1.086  0.00  0.00    +0.000 NA
ENDROOT
BRANCH   1   2
ATOM      2  N   UNL     1       0.760  -1.403   0.266  0.00  0.00    +0.000 NA
ATOM      3  C   UNL     1       0.597  -1.250  -1.151  0.00  0.00    +0.000 C 
ATOM      4  O   UNL     1      -0.629  -1.173  -1.524  0.00  0.00    +0.000 OA
BRANCH   3   5
ATOM      5  C   UNL     1       1.616  -1.179  -2.164  0.00  0.00    +0.000 C 
BRANCH   5   6
ATOM      6  O   UNL     1       2.904  -1.335  -1.938  0.00  0.00    +0.000 OA
BRANCH   6   7
ATOM      7  C   UNL     1       3.913  -0.794  -1.240  0.00  0.00    +0.000 A 
ATOM      8  C   UNL     1       3.761   0.285  -0.422  0.00  0.00    +0.000 A 
ATOM      9  C   UNL     1       4.804   0.838   0.290  0.00  0.00    +0.000 A 
ATOM     10  C   UNL     1       6.059   0.285   0.176  0.00  0.00    +0.000 A 
ATOM     11  C   UNL     1       6.208  -0.803  -0.649  0.00  0.00    +0.000 A 
ATOM     12  C   UNL     1       5.203  -1.367  -1.358  0.00  0.00    +0.000 A 
BRANCH  10  13
ATOM     13  C   UNL     1       7.264   0.788   0.875  0.00  0.00    +0.000 C 
ATOM     14  C   UNL     1       8.090   1.547  -0.175  0.00  0.00    +0.000 C 
ATOM     15  C   UNL     1       6.908   1.669   2.028  0.00  0.00    +0.000 C 
ATOM     16  C   UNL     1       8.101  -0.409   1.313  0.00  0.00    +0.000 C 
ENDBRANCH  10  13
ENDBRANCH   6   7
ENDBRANCH   5   6
ENDBRANCH   3   5
ENDBRANCH   1   2
BRANCH   1  18
ATOM     17  C   UNL     1      -1.402  -3.329   0.077  0.00  0.00    +0.000 C 
ATOM     18  C   UNL     1      -1.571  -2.067   0.439  0.00  0.00    +0.000 C 
BRANCH  18  19
ATOM     19  C   UNL     1      -2.763  -1.279   0.193  0.00  0.00    +0.000 A 
ATOM     20  C   UNL     1      -3.718  -1.698  -0.738  0.00  0.00    +0.000 A 
ATOM     21  C   UNL     1      -4.859  -0.997  -1.030  0.00  0.00    +0.000 A 
ATOM     22  C   UNL     1      -5.125   0.206  -0.387  0.00  0.00    +0.000 A 
ATOM     23  C   UNL     1      -6.253   0.940  -0.643  0.00  0.00    +0.000 A 
ATOM     24  C   UNL     1      -6.536   2.124  -0.012  0.00  0.00    +0.000 A 
ATOM     25  C   UNL     1      -5.598   2.550   0.919  0.00  0.00    +0.000 A 
ATOM     26  C   UNL     1      -4.459   1.825   1.184  0.00  0.00    +0.000 A 
ATOM     27  C   UNL     1      -4.191   0.637   0.538  0.00  0.00    +0.000 A 
ATOM     28  C   UNL     1      -3.037  -0.087   0.823  0.00  0.00    +0.000 A 
BRANCH  24  29
ATOM     29  O   UNL     1      -7.688   2.866  -0.276  0.00  0.00    +0.000 OA
ATOM     30  C   UNL     1      -7.943   4.073   0.391  0.00  0.00    +0.000 C 
ENDBRANCH  24  29
ENDBRANCH  18  19
ENDBRANCH   1  18
TORSDOF 8
