REMARK  Name = 
REMARK  7 active torsions:
REMARK  status: ('A' for Active; 'I' for Inactive)
REMARK    1  A    between atoms: C_2  and  C_3
REMARK    2  A    between atoms: C_3  and  C_5
REMARK    3  A    between atoms: C_10  and  N_11
REMARK    4  A    between atoms: C_12  and  C_14
REMARK    5  A    between atoms: C_14  and  O_15
REMARK    6  A    between atoms: O_15  and  C_16
REMARK    7  A    between atoms: C_16  and  C_18
REMARK                            x       y       z     vdW  Elec       q    Type
REMARK                         _______ _______ _______ _____ _____    ______ ____
ROOT
ATOM      1  C   UNL     1       1.381   0.721  -0.505  0.00  0.00    +0.000 C 
ATOM      2  O   UNL     1       0.760   0.623  -1.574  0.00  0.00    +0.000 OA
ENDROOT
BRANCH   1   3
ATOM      3  C   UNL     1       2.725   0.213  -0.420  0.00  0.00    +0.000 A 
ATOM      4  C   UNL     1       2.914  -1.099  -0.034  0.00  0.00    +0.000 A 
ATOM      5  C   UNL     1       1.823  -1.878   0.257  0.00  0.00    +0.000 A 
ATOM      6  C   UNL     1       1.976  -3.178   0.641  0.00  0.00    +0.000 A 
ATOM      7  C   UNL     1       3.214  -3.728   0.745  0.00  0.00    +0.000 A 
ATOM      8  C   UNL     1       4.311  -2.954   0.456  0.00  0.00    +0.000 A 
ATOM      9  C   UNL     1       4.192  -1.652   0.069  0.00  0.00    +0.000 A 
ATOM     10  C   UNL     1       5.274  -0.844  -0.229  0.00  0.00    +0.000 A 
ATOM     11  C   UNL     1       5.130   0.464  -0.617  0.00  0.00    +0.000 A 
ATOM     12  C   UNL     1       6.229   1.244  -0.908  0.00  0.00    +0.000 A 
ATOM     13  C   UNL     1       6.000   2.547  -1.289  0.00  0.00    +0.000 A 
ATOM     14  C   UNL     1       4.752   3.083  -1.388  0.00  0.00    +0.000 A 
ATOM     15  C   UNL     1       3.655   2.275  -1.089  0.00  0.00    +0.000 A 
ATOM     16  C   UNL     1       3.849   0.967  -0.705  0.00  0.00    +0.000 A 
ENDBRANCH   1   3
BRANCH   1  17
ATOM     17  O   UNL     1       0.795   1.307   0.586  0.00  0.00    +0.000 OA
BRANCH  17  18
ATOM     18  C   UNL     1      -0.486   1.832   0.625  0.00  0.00    +0.000 C 
BRANCH  18  20
ATOM     19  N   UNL     1      -2.863   0.978   0.286  0.00  0.00    +0.000 NA
ATOM     20  C   UNL     1      -1.458   0.760   0.317  0.00  0.00    +0.000 C 
ATOM     21  O   UNL     1      -1.046  -0.388   0.073  0.00  0.00    +0.000 OA
BRANCH  19  27
ATOM     22  C   UNL     1      -5.054   0.123  -0.036  0.00  0.00    +0.000 A 
ATOM     23  C   UNL     1      -5.899  -0.891  -0.321  0.00  0.00    +0.000 A 
ATOM     24  C   UNL     1      -5.440  -2.187  -0.601  0.00  0.00    +0.000 A 
ATOM     25  C   UNL     1      -4.085  -2.395  -0.576  0.00  0.00    +0.000 A 
ATOM     26  C   UNL     1      -3.189  -1.392  -0.291  0.00  0.00    +0.000 A 
ATOM     27  C   UNL     1      -3.708  -0.125  -0.021  0.00  0.00    +0.000 A 
BRANCH  22  28
ATOM     28  C   UNL     1      -5.551   1.568   0.271  0.00  0.00    +0.000 C 
ATOM     29  C   UNL     1      -5.493   1.409   1.925  0.00  0.00    +0.000 C 
BRANCH  28  31
ATOM     30  C   UNL     1      -7.557   1.334  -1.235  0.00  0.00    +0.000 C 
ATOM     31  C   UNL     1      -7.155   1.263   0.205  0.00  0.00    +0.000 C 
ENDBRANCH  28  31
ENDBRANCH  22  28
ENDBRANCH  19  27
ENDBRANCH  18  20
ENDBRANCH  17  18
ENDBRANCH   1  17
TORSDOF 7
