REMARK  Name = 
REMARK  6 active torsions:
REMARK  status: ('A' for Active; 'I' for Inactive)
REMARK    1  A    between atoms: C_2  and  N_3
REMARK    2  A    between atoms: N_3  and  C_4
REMARK    3  A    between atoms: N_3  and  C_6
REMARK    4  A    between atoms: C_6  and  C_7
REMARK    5  A    between atoms: C_9  and  N_10
REMARK    6  A    between atoms: N_10  and  C_11
REMARK                            x       y       z     vdW  Elec       q    Type
REMARK                         _______ _______ _______ _____ _____    ______ ____
ROOT
ATOM      1  C   UNL     1      -1.210  -1.058   0.108  0.00  0.00    +0.000 A 
ATOM      2  C   UNL     1      -1.919  -2.251  -0.173  0.00  0.00    +0.000 A 
ATOM      3  C   UNL     1      -1.268  -3.454  -0.108  0.00  0.00    +0.000 A 
ATOM      4  C   UNL     1      -1.948  -4.649  -0.387  0.00  0.00    +0.000 A 
ATOM      5  C   UNL     1      -3.268  -4.613  -0.727  0.00  0.00    +0.000 A 
ATOM      6  C   UNL     1      -3.942  -3.416  -0.797  0.00  0.00    +0.000 A 
ATOM      7  C   UNL     1      -3.250  -2.270  -0.519  0.00  0.00    +0.000 A 
ATOM      8  N   UNL     1      -3.927  -1.112  -0.596  0.00  0.00    +0.000 NA
ATOM      9  C   UNL     1      -3.348   0.042  -0.348  0.00  0.00    +0.000 A 
ATOM     10  C   UNL     1      -3.875   1.321  -0.361  0.00  0.00    +0.000 A 
ATOM     11  C   UNL     1      -5.104   1.906  -0.577  0.00  0.00    +0.000 A 
ATOM     12  C   UNL     1      -5.266   3.237  -0.447  0.00  0.00    +0.000 A 
ATOM     13  C   UNL     1      -4.242   4.109  -0.107  0.00  0.00    +0.000 A 
ATOM     14  C   UNL     1      -3.028   3.513   0.103  0.00  0.00    +0.000 A 
ATOM     15  C   UNL     1      -2.852   2.141  -0.022  0.00  0.00    +0.000 A 
ATOM     16  N   UNL     1      -1.763   1.383   0.189  0.00  0.00    +0.000 N 
ATOM     17  C   UNL     1      -0.488   2.009   0.534  0.00  0.00    +0.000 C 
ATOM     18  C   UNL     1      -1.979   0.100   0.009  0.00  0.00    +0.000 A 
ENDROOT
BRANCH   1  19
ATOM     19  N   UNL     1       0.089  -1.130   0.422  0.00  0.00    +0.000 NA
BRANCH  19  22
ATOM     20  C   UNL     1       3.379   0.436   0.079  0.00  0.00    +0.000 A 
ATOM     21  C   UNL     1       2.320  -0.363  -0.154  0.00  0.00    +0.000 A 
ATOM     22  C   UNL     1       1.213  -0.412   0.719  0.00  0.00    +0.000 A 
ATOM     23  C   UNL     1       1.263   0.393   1.825  0.00  0.00    +0.000 A 
ATOM     24  C   UNL     1       2.340   1.236   2.094  0.00  0.00    +0.000 A 
ATOM     25  C   UNL     1       3.391   1.285   1.266  0.00  0.00    +0.000 A 
ATOM     26  O   UNL     1       4.509   2.078   1.427  0.00  0.00    +0.000 OA
BRANCH  20  27
ATOM     27  C   UNL     1       4.564   0.771  -0.733  0.00  0.00    +0.000 C 
BRANCH  27  28
ATOM     28  N   UNL     1       5.519  -0.392  -0.824  0.00  0.00    +0.000 NA
BRANCH  28  30
ATOM     29  C   UNL     1       4.797  -1.460   1.300  0.00  0.00    +0.000 C 
ATOM     30  C   UNL     1       5.879  -0.613   0.651  0.00  0.00    +0.000 C 
ENDBRANCH  28  30
BRANCH  28  31
ATOM     31  C   UNL     1       6.800   0.339  -1.228  0.00  0.00    +0.000 C 
ATOM     32  C   UNL     1       6.613   0.895  -2.618  0.00  0.00    +0.000 C 
ENDBRANCH  28  31
ENDBRANCH  27  28
ENDBRANCH  20  27
ENDBRANCH  19  22
ENDBRANCH   1  19
TORSDOF 6
