REMARK  Name = 
REMARK  9 active torsions:
REMARK  status: ('A' for Active; 'I' for Inactive)
REMARK    1  A    between atoms: O_2  and  C_3
REMARK    2  A    between atoms: C_5  and  C_6
REMARK    3  A    between atoms: N_7  and  N_8
REMARK    4  A    between atoms: C_9  and  C_11
REMARK    5  A    between atoms: C_11  and  S_12
REMARK    6  A    between atoms: S_12  and  C_13
REMARK    7  A    between atoms: C_22  and  O_23
REMARK    8  A    between atoms: O_23  and  C_24
REMARK    9  A    between atoms: C_24  and  C_25
REMARK                            x       y       z     vdW  Elec       q    Type
REMARK                         _______ _______ _______ _____ _____    ______ ____
ROOT
ATOM      1  C   UNL     1      -2.148   0.556   1.608  0.00  0.00    +0.000 A 
ATOM      2  C   UNL     1      -1.162   0.117   0.750  0.00  0.00    +0.000 A 
ATOM      3  C   UNL     1      -1.381  -0.133  -0.590  0.00  0.00    +0.000 A 
ATOM      4  C   UNL     1      -2.676   0.079  -1.066  0.00  0.00    +0.000 A 
ATOM      5  C   UNL     1      -3.656   0.516  -0.207  0.00  0.00    +0.000 A 
ATOM      6  C   UNL     1      -3.429   0.762   1.123  0.00  0.00    +0.000 A 
ENDROOT
BRANCH   1   8
ATOM      7  C   UNL     1      -0.628   0.616   3.527  0.00  0.00    +0.000 C 
ATOM      8  O   UNL     1      -1.914   0.806   2.966  0.00  0.00    +0.000 OA
ENDBRANCH   1   8
BRANCH   3   9
ATOM      9  C   UNL     1      -0.334  -0.599  -1.492  0.00  0.00    +0.000 C 
ATOM     10  N   UNL     1       0.851  -0.791  -1.034  0.00  0.00    +0.000 NA
BRANCH  10  11
ATOM     11  N   UNL     1       1.893  -1.242  -1.877  0.00  0.00    +0.000 NA
ATOM     12  C   UNL     1       3.080  -0.502  -2.071  0.00  0.00    +0.000 C 
ATOM     13  O   UNL     1       3.219   0.589  -1.478  0.00  0.00    +0.000 OA
BRANCH  12  14
ATOM     14  C   UNL     1       4.091  -1.096  -2.989  0.00  0.00    +0.000 C 
BRANCH  14  15
ATOM     15  S   UNL     1       5.559  -0.067  -3.157  0.00  0.00    +0.000 S 
BRANCH  15  16
ATOM     16  C   UNL     1       6.419  -0.020  -1.598  0.00  0.00    +0.000 A 
ATOM     17  C   UNL     1       7.405  -0.948  -1.269  0.00  0.00    +0.000 A 
ATOM     18  C   UNL     1       8.047  -0.877  -0.054  0.00  0.00    +0.000 A 
ATOM     19  C   UNL     1       7.728   0.101   0.853  0.00  0.00    +0.000 A 
ATOM     20  C   UNL     1       8.389   0.224   2.182  0.00  0.00    +0.000 C 
ATOM     21  C   UNL     1       6.755   1.014   0.526  0.00  0.00    +0.000 A 
ATOM     22  C   UNL     1       6.089   0.967  -0.698  0.00  0.00    +0.000 A 
ENDBRANCH  15  16
ENDBRANCH  14  15
ENDBRANCH  12  14
ENDBRANCH  10  11
ENDBRANCH   3   9
BRANCH   6  23
ATOM     23  O   UNL     1      -4.420   1.197   1.963  0.00  0.00    +0.000 OA
BRANCH  23  24
ATOM     24  C   UNL     1      -5.730   1.414   1.504  0.00  0.00    +0.000 C 
BRANCH  24  25
ATOM     25  C   UNL     1      -6.376   0.214   0.945  0.00  0.00    +0.000 A 
ATOM     26  C   UNL     1      -6.966  -0.728   1.796  0.00  0.00    +0.000 A 
ATOM     27  C   UNL     1      -7.574  -1.849   1.270  0.00  0.00    +0.000 A 
ATOM     28  C   UNL     1      -7.629  -2.091  -0.095  0.00  0.00    +0.000 A 
ATOM     29  C   UNL     1      -7.049  -1.168  -0.938  0.00  0.00    +0.000 A 
ATOM     30  C   UNL     1      -6.451  -0.062  -0.399  0.00  0.00    +0.000 A 
ENDBRANCH  24  25
ENDBRANCH  23  24
ENDBRANCH   6  23
TORSDOF 9
