REMARK  Name = 
REMARK  6 active torsions:
REMARK  status: ('A' for Active; 'I' for Inactive)
REMARK    1  A    between atoms: C_2  and  C_16
REMARK    2  A    between atoms: N_3  and  N_4
REMARK    3  A    between atoms: C_5  and  C_6
REMARK    4  A    between atoms: C_19  and  C_20
REMARK    5  A    between atoms: C_20  and  O_21
REMARK    6  A    between atoms: O_21  and  C_22
REMARK                            x       y       z     vdW  Elec       q    Type
REMARK                         _______ _______ _______ _____ _____    ______ ____
ROOT
ATOM      1  C   UNL     1       0.808  -1.779  -0.053  0.00  0.00    +0.000 A 
ATOM      2  C   UNL     1       1.661  -2.391  -0.980  0.00  0.00    +0.000 A 
ATOM      3  C   UNL     1       2.864  -2.602  -0.354  0.00  0.00    +0.000 A 
ATOM      4  C   UNL     1       2.723  -2.120   0.931  0.00  0.00    +0.000 A 
ATOM      5  O   UNL     1       1.489  -1.648   1.047  0.00  0.00    +0.000 OA
ENDROOT
BRANCH   1   7
ATOM      6  O   UNL     1      -1.088  -1.580  -1.440  0.00  0.00    +0.000 OA
ATOM      7  C   UNL     1      -0.568  -1.386  -0.321  0.00  0.00    +0.000 C 
ATOM      8  N   UNL     1      -1.341  -0.773   0.692  0.00  0.00    +0.000 NA
BRANCH   8   9
ATOM      9  N   UNL     1      -2.683  -0.385   0.445  0.00  0.00    +0.000 NA
ATOM     10  C   UNL     1      -3.667  -1.172   0.596  0.00  0.00    +0.000 C 
BRANCH  10  11
ATOM     11  C   UNL     1      -5.055  -0.804   0.351  0.00  0.00    +0.000 A 
ATOM     12  C   UNL     1      -6.073  -1.713   0.537  0.00  0.00    +0.000 A 
ATOM     13  C   UNL     1      -7.401  -1.339   0.296  0.00  0.00    +0.000 A 
ATOM     14  C   UNL     1      -7.716  -0.055  -0.131  0.00  0.00    +0.000 A 
ATOM     15  C   UNL     1      -6.689   0.851  -0.315  0.00  0.00    +0.000 A 
ATOM     16  C   UNL     1      -7.026   2.115  -0.738  0.00  0.00    +0.000 A 
ATOM     17  C   UNL     1      -6.028   3.057  -0.935  0.00  0.00    +0.000 A 
ATOM     18  C   UNL     1      -4.731   2.651  -0.688  0.00  0.00    +0.000 A 
ATOM     19  N   UNL     1      -4.423   1.414  -0.276  0.00  0.00    +0.000 NA
ATOM     20  C   UNL     1      -5.369   0.469  -0.072  0.00  0.00    +0.000 A 
ENDBRANCH  10  11
ENDBRANCH   8   9
ENDBRANCH   1   7
BRANCH   4  21
ATOM     21  C   UNL     1       3.737  -2.103   2.038  0.00  0.00    +0.000 C 
BRANCH  21  22
ATOM     22  O   UNL     1       4.155  -0.780   2.220  0.00  0.00    +0.000 OA
BRANCH  22  23
ATOM     23  C   UNL     1       4.768  -0.095   1.188  0.00  0.00    +0.000 A 
ATOM     24  C   UNL     1       4.970  -0.718  -0.018  0.00  0.00    +0.000 A 
ATOM     25  C   UNL     1       5.576  -0.076  -1.073  0.00  0.00    +0.000 A 
ATOM     26  C   UNL     1       5.997   1.233  -0.927  0.00  0.00    +0.000 A 
ATOM     27  C   UNL     1       5.790   1.849   0.287  0.00  0.00    +0.000 A 
ATOM     28  C   UNL     1       5.189   1.221   1.342  0.00  0.00    +0.000 A 
ATOM     29  C   UNL     1       6.314   3.241   0.226  0.00  0.00    +0.000 C 
ATOM     30  C   UNL     1       7.152   3.284  -1.028  0.00  0.00    +0.000 C 
ATOM     31  C   UNL     1       6.665   2.135  -1.892  0.00  0.00    +0.000 C 
ENDBRANCH  22  23
ENDBRANCH  21  22
ENDBRANCH   4  21
TORSDOF 6
