REMARK  Name = 
REMARK  6 active torsions:
REMARK  status: ('A' for Active; 'I' for Inactive)
REMARK    1  A    between atoms: O_2  and  C_3
REMARK    2  A    between atoms: C_7  and  C_8
REMARK    3  A    between atoms: C_18  and  O_19
REMARK    4  A    between atoms: O_19  and  C_20
REMARK    5  A    between atoms: C_20  and  C_21
REMARK    6  A    between atoms: C_29  and  O_30
REMARK                            x       y       z     vdW  Elec       q    Type
REMARK                         _______ _______ _______ _____ _____    ______ ____
ROOT
ATOM      1  C   UNL     1      -2.974   1.659   0.140  0.00  0.00    +0.000 C 
ATOM      2  N   UNL     1      -2.773   1.463   1.661  0.00  0.00    +0.000 NA
ATOM      3  C   UNL     1      -2.105   2.716   2.030  0.00  0.00    +0.000 C 
ATOM      4  C   UNL     1      -1.090   3.142   0.977  0.00  0.00    +0.000 C 
ATOM      5  C   UNL     1      -0.652   1.923   0.200  0.00  0.00    +0.000 A 
ATOM      6  C   UNL     1      -1.580   1.056  -0.297  0.00  0.00    +0.000 A 
ATOM      7  N   UNL     1      -1.008   0.106  -0.912  0.00  0.00    +0.000 NA
ATOM      8  C   UNL     1       0.328   0.262  -0.875  0.00  0.00    +0.000 A 
ATOM      9  C   UNL     1       1.444  -0.401  -1.336  0.00  0.00    +0.000 A 
ATOM     10  C   UNL     1       2.708   0.096  -1.083  0.00  0.00    +0.000 A 
ATOM     11  C   UNL     1       2.927   1.256  -0.372  0.00  0.00    +0.000 A 
ATOM     12  C   UNL     1       1.818   1.922   0.091  0.00  0.00    +0.000 A 
ATOM     13  C   UNL     1       0.570   1.419  -0.167  0.00  0.00    +0.000 A 
ENDROOT
BRANCH   1  18
ATOM     14  C   UNL     1      -4.586  -1.815   0.047  0.00  0.00    +0.000 A 
ATOM     15  C   UNL     1      -5.476  -1.644  -1.006  0.00  0.00    +0.000 A 
ATOM     16  C   UNL     1      -5.543  -0.424  -1.651  0.00  0.00    +0.000 A 
ATOM     17  C   UNL     1      -4.731   0.612  -1.248  0.00  0.00    +0.000 A 
ATOM     18  C   UNL     1      -3.849   0.373  -0.172  0.00  0.00    +0.000 A 
ATOM     19  C   UNL     1      -3.767  -0.773   0.455  0.00  0.00    +0.000 A 
BRANCH  14  21
ATOM     20  C   UNL     1      -5.351  -4.102   0.281  0.00  0.00    +0.000 C 
ATOM     21  O   UNL     1      -4.520  -3.033   0.690  0.00  0.00    +0.000 OA
ENDBRANCH  14  21
BRANCH  19  22
ATOM     22  O   UNL     1      -2.918  -1.011   1.493  0.00  0.00    +0.000 OA
ATOM     23  C   UNL     1      -3.330  -0.846   2.860  0.00  0.00    +0.000 C 
ENDBRANCH  19  22
ENDBRANCH   1  18
BRANCH  11  24
ATOM     24  O   UNL     1       4.156   1.790  -0.094  0.00  0.00    +0.000 OA
BRANCH  24  25
ATOM     25  C   UNL     1       5.406   1.375  -0.407  0.00  0.00    +0.000 C 
BRANCH  25  26
ATOM     26  C   UNL     1       5.819   0.055   0.088  0.00  0.00    +0.000 A 
ATOM     27  C   UNL     1       7.058  -0.464  -0.161  0.00  0.00    +0.000 A 
ATOM     28  C   UNL     1       7.388  -1.702   0.326  0.00  0.00    +0.000 A 
ATOM     29  C   UNL     1       6.479  -2.429   1.067  0.00  0.00    +0.000 A 
ATOM     30  C   UNL     1       5.230  -1.910   1.320  0.00  0.00    +0.000 A 
ATOM     31  C   UNL     1       4.925  -0.672   0.822  0.00  0.00    +0.000 A 
ENDBRANCH  25  26
ENDBRANCH  24  25
ENDBRANCH  11  24
TORSDOF 6
