REMARK  Name = 
REMARK  9 active torsions:
REMARK  status: ('A' for Active; 'I' for Inactive)
REMARK    1  A    between atoms: C_2  and  O_4
REMARK    2  A    between atoms: O_4  and  C_5
REMARK    3  A    between atoms: C_8  and  C_9
REMARK    4  A    between atoms: C_9  and  O_11
REMARK    5  A    between atoms: O_11  and  C_12
REMARK    6  A    between atoms: C_12  and  C_13
REMARK    7  A    between atoms: N_15  and  C_16
REMARK    8  A    between atoms: C_21  and  S_22
REMARK    9  A    between atoms: S_22  and  C_23
REMARK                            x       y       z     vdW  Elec       q    Type
REMARK                         _______ _______ _______ _____ _____    ______ ____
ROOT
ATOM      1  C   UNL     1       0.372  -0.824  -0.006  0.00  0.00    +0.000 C 
ATOM      2  O   UNL     1       0.003   0.162  -0.756  0.00  0.00    +0.000 OA
ATOM      3  N   UNL     1       1.724  -0.816   0.448  0.00  0.00    +0.000 NA
ENDROOT
BRANCH   3   4
ATOM      4  C   UNL     1       2.549   0.260  -0.107  0.00  0.00    +0.000 A 
ATOM      5  C   UNL     1       2.052   0.861  -1.330  0.00  0.00    +0.000 A 
ATOM      6  C   UNL     1       2.917   1.769  -1.930  0.00  0.00    +0.000 A 
ATOM      7  C   UNL     1       4.142   2.110  -1.427  0.00  0.00    +0.000 A 
ATOM      8  C   UNL     1       4.506   1.470  -0.233  0.00  0.00    +0.000 A 
ATOM      9  C   UNL     1       3.721   0.544   0.437  0.00  0.00    +0.000 A 
BRANCH   9  10
ATOM     10  S   UNL     1       4.354  -0.197   1.996  0.00  0.00    +0.000 S 
BRANCH  10  11
ATOM     11  C   UNL     1       6.137  -0.142   1.579  0.00  0.00    +0.000 A 
ATOM     12  C   UNL     1       6.902   0.909   1.813  0.00  0.00    +0.000 A 
ATOM     13  C   UNL     1       8.201   1.030   1.228  0.00  0.00    +0.000 A 
ATOM     14  C   UNL     1       8.643   0.032   0.403  0.00  0.00    +0.000 A 
ATOM     15  C   UNL     1       7.837  -1.067   0.178  0.00  0.00    +0.000 A 
ATOM     16  C   UNL     1       6.592  -1.179   0.753  0.00  0.00    +0.000 A 
ENDBRANCH  10  11
ENDBRANCH   9  10
ENDBRANCH   3   4
BRANCH   1  17
ATOM     17  C   UNL     1      -0.618  -1.921   0.345  0.00  0.00    +0.000 C 
BRANCH  17  18
ATOM     18  O   UNL     1      -1.860  -1.436  -0.081  0.00  0.00    +0.000 OA
BRANCH  18  19
ATOM     19  C   UNL     1      -2.539  -0.539   0.713  0.00  0.00    +0.000 C 
ATOM     20  O   UNL     1      -2.176  -0.165   1.837  0.00  0.00    +0.000 OA
BRANCH  19  24
ATOM     21  C   UNL     1      -6.182   0.298  -1.171  0.00  0.00    +0.000 A 
ATOM     22  C   UNL     1      -5.013   0.434  -1.891  0.00  0.00    +0.000 A 
ATOM     23  C   UNL     1      -3.782   0.274  -1.250  0.00  0.00    +0.000 A 
ATOM     24  C   UNL     1      -3.788  -0.033   0.151  0.00  0.00    +0.000 A 
ATOM     25  C   UNL     1      -4.920  -0.157   0.825  0.00  0.00    +0.000 A 
ATOM     26  C   UNL     1      -6.119   0.005   0.215  0.00  0.00    +0.000 A 
BRANCH  21  27
ATOM     27  O   UNL     1      -7.508   0.383  -1.691  0.00  0.00    +0.000 OA
BRANCH  27  29
ATOM     28  C   UNL     1      -9.293  -0.954  -0.773  0.00  0.00    +0.000 C 
ATOM     29  C   UNL     1      -8.375   0.155  -0.632  0.00  0.00    +0.000 C 
ATOM     30  C   UNL     1      -8.480   1.167   0.357  0.00  0.00    +0.000 C 
ENDBRANCH  27  29
ENDBRANCH  21  27
ENDBRANCH  19  24
ENDBRANCH  18  19
ENDBRANCH  17  18
ENDBRANCH   1  17
TORSDOF 9
