REMARK  Name = 
REMARK  7 active torsions:
REMARK  status: ('A' for Active; 'I' for Inactive)
REMARK    1  A    between atoms: C_2  and  O_3
REMARK    2  A    between atoms: O_3  and  C_4
REMARK    3  A    between atoms: C_9  and  N_10
REMARK    4  A    between atoms: N_10  and  C_11
REMARK    5  A    between atoms: C_12  and  S_13
REMARK    6  A    between atoms: S_13  and  C_14
REMARK    7  A    between atoms: N_23  and  C_24
REMARK                            x       y       z     vdW  Elec       q    Type
REMARK                         _______ _______ _______ _____ _____    ______ ____
ROOT
ATOM      1  C   UNL     1      -0.697  -0.471  -0.432  0.00  0.00    +0.000 C 
ATOM      2  C   UNL     1       0.559  -0.137  -0.278  0.00  0.00    +0.000 C 
ATOM      3  C   UNL     1       0.673   1.295  -0.119  0.00  0.00    +0.000 C 
ATOM      4  O   UNL     1       1.695   2.015   0.052  0.00  0.00    +0.000 OA
ATOM      5  N   UNL     1      -0.639   1.837  -0.189  0.00  0.00    +0.000 N 
ATOM      6  C   UNL     1      -1.494   0.723  -0.386  0.00  0.00    +0.000 C 
ATOM      7  O   UNL     1      -2.766   0.797  -0.499  0.00  0.00    +0.000 OA
ENDROOT
BRANCH   5   8
ATOM      8  C   UNL     1      -1.022   3.187  -0.086  0.00  0.00    +0.000 A 
ATOM      9  C   UNL     1      -2.106   3.686  -0.778  0.00  0.00    +0.000 A 
ATOM     10  C   UNL     1      -2.470   5.013  -0.669  0.00  0.00    +0.000 A 
ATOM     11  C   UNL     1      -1.754   5.891   0.144  0.00  0.00    +0.000 A 
ATOM     12  C   UNL     1      -0.670   5.380   0.831  0.00  0.00    +0.000 A 
ATOM     13  C   UNL     1      -0.297   4.055   0.730  0.00  0.00    +0.000 A 
ENDBRANCH   5   8
BRANCH   1  14
ATOM     14  N   UNL     1      -1.177  -1.786  -0.614  0.00  0.00    +0.000 NA
BRANCH  14  20
ATOM     15  C   UNL     1      -2.605  -3.586   0.111  0.00  0.00    +0.000 A 
ATOM     16  C   UNL     1      -3.542  -4.067   1.010  0.00  0.00    +0.000 A 
ATOM     17  C   UNL     1      -3.970  -3.277   2.034  0.00  0.00    +0.000 A 
ATOM     18  C   UNL     1      -3.501  -1.994   2.216  0.00  0.00    +0.000 A 
ATOM     19  C   UNL     1      -2.571  -1.519   1.321  0.00  0.00    +0.000 A 
ATOM     20  C   UNL     1      -2.130  -2.304   0.284  0.00  0.00    +0.000 A 
BRANCH  15  21
ATOM     21  O   UNL     1      -2.110  -4.312  -0.960  0.00  0.00    +0.000 OA
BRANCH  21  23
ATOM     22  C   UNL     1      -2.220  -6.431   0.082  0.00  0.00    +0.000 C 
ATOM     23  C   UNL     1      -2.579  -5.647  -1.172  0.00  0.00    +0.000 C 
ENDBRANCH  21  23
ENDBRANCH  15  21
ENDBRANCH  14  20
ENDBRANCH   1  14
BRANCH   2  24
ATOM     24  S   UNL     1       1.931  -1.269  -0.264  0.00  0.00    +0.000 S 
BRANCH  24  25
ATOM     25  C   UNL     1       3.485  -0.432  -0.026  0.00  0.00    +0.000 A 
ATOM     26  C   UNL     1       3.969  -0.234   1.246  0.00  0.00    +0.000 A 
ATOM     27  C   UNL     1       5.168   0.410   1.481  0.00  0.00    +0.000 A 
ATOM     28  C   UNL     1       5.921   0.876   0.421  0.00  0.00    +0.000 A 
ATOM     29  C   UNL     1       7.231   1.580   0.665  0.00  0.00    +0.000 C 
ATOM     30  C   UNL     1       5.449   0.685  -0.862  0.00  0.00    +0.000 A 
ATOM     31  C   UNL     1       4.240   0.036  -1.076  0.00  0.00    +0.000 A 
ENDBRANCH  24  25
ENDBRANCH   2  24
TORSDOF 7
