REMARK  Name = 
REMARK  8 active torsions:
REMARK  status: ('A' for Active; 'I' for Inactive)
REMARK    1  A    between atoms: C_2  and  C_3
REMARK    2  A    between atoms: C_6  and  N_7
REMARK    3  A    between atoms: N_7  and  C_8
REMARK    4  A    between atoms: C_9  and  S_10
REMARK    5  A    between atoms: S_10  and  C_11
REMARK    6  A    between atoms: N_20  and  C_21
REMARK    7  A    between atoms: C_21  and  C_22
REMARK    8  A    between atoms: C_22  and  C_23
REMARK                            x       y       z     vdW  Elec       q    Type
REMARK                         _______ _______ _______ _____ _____    ______ ____
ROOT
ATOM      1  C   UNL     1      -0.626   1.079  -1.304  0.00  0.00    +0.000 C 
ATOM      2  C   UNL     1      -0.817  -0.190  -0.904  0.00  0.00    +0.000 C 
ATOM      3  C   UNL     1       0.259  -1.019  -1.380  0.00  0.00    +0.000 C 
ATOM      4  O   UNL     1       0.482  -2.259  -1.241  0.00  0.00    +0.000 OA
ATOM      5  N   UNL     1       1.178  -0.194  -2.128  0.00  0.00    +0.000 N 
ATOM      6  C   UNL     1       0.603   1.094  -2.062  0.00  0.00    +0.000 C 
ATOM      7  O   UNL     1       1.106   2.114  -2.598  0.00  0.00    +0.000 OA
ENDROOT
BRANCH   1   8
ATOM      8  N   UNL     1      -1.479   2.161  -1.020  0.00  0.00    +0.000 NA
BRANCH   8  12
ATOM      9  C   UNL     1      -0.755   5.506   1.448  0.00  0.00    +0.000 A 
ATOM     10  C   UNL     1      -1.943   5.325   0.770  0.00  0.00    +0.000 A 
ATOM     11  C   UNL     1      -2.160   4.224  -0.032  0.00  0.00    +0.000 A 
ATOM     12  C   UNL     1      -1.169   3.248  -0.183  0.00  0.00    +0.000 A 
ATOM     13  C   UNL     1      -0.003   3.434   0.488  0.00  0.00    +0.000 A 
ATOM     14  C   UNL     1       0.215   4.536   1.291  0.00  0.00    +0.000 A 
BRANCH   9  16
ATOM     15  C   UNL     1       0.088   7.838   1.490  0.00  0.00    +0.000 C 
ATOM     16  C   UNL     1      -0.526   6.704   2.318  0.00  0.00    +0.000 C 
ENDBRANCH   9  16
ENDBRANCH   8  12
ENDBRANCH   1   8
BRANCH   2  17
ATOM     17  S   UNL     1      -2.220  -0.637   0.058  0.00  0.00    +0.000 S 
BRANCH  17  18
ATOM     18  C   UNL     1      -2.313  -2.341   0.494  0.00  0.00    +0.000 A 
ATOM     19  C   UNL     1      -3.404  -2.800   1.266  0.00  0.00    +0.000 A 
ATOM     20  C   UNL     1      -3.528  -4.114   1.635  0.00  0.00    +0.000 A 
ATOM     21  C   UNL     1      -2.604  -5.072   1.281  0.00  0.00    +0.000 A 
ATOM     22  C   UNL     1      -2.744  -6.498   1.685  0.00  0.00    +0.000 C 
ATOM     23  C   UNL     1      -1.524  -4.649   0.523  0.00  0.00    +0.000 A 
ATOM     24  C   UNL     1      -1.421  -3.325   0.165  0.00  0.00    +0.000 A 
ENDBRANCH  17  18
ENDBRANCH   2  17
BRANCH   5  25
ATOM     25  C   UNL     1       2.389  -0.649  -2.769  0.00  0.00    +0.000 C 
BRANCH  25  26
ATOM     26  C   UNL     1       3.611  -0.589  -1.918  0.00  0.00    +0.000 C 
BRANCH  26  27
ATOM     27  C   UNL     1       3.423  -1.432  -0.720  0.00  0.00    +0.000 A 
ATOM     28  C   UNL     1       2.876  -0.810   0.399  0.00  0.00    +0.000 A 
ATOM     29  C   UNL     1       2.676  -1.545   1.549  0.00  0.00    +0.000 A 
ATOM     30  C   UNL     1       3.015  -2.863   1.573  0.00  0.00    +0.000 A 
ATOM     31  C   UNL     1       3.561  -3.518   0.485  0.00  0.00    +0.000 A 
ATOM     32  C   UNL     1       3.753  -2.760  -0.661  0.00  0.00    +0.000 A 
ENDBRANCH  26  27
ENDBRANCH  25  26
ENDBRANCH   5  25
TORSDOF 8
