REMARK  Name = 
REMARK  7 active torsions:
REMARK  status: ('A' for Active; 'I' for Inactive)
REMARK    1  A    between atoms: C_5  and  C_6
REMARK    2  A    between atoms: C_9  and  S_10
REMARK    3  A    between atoms: S_10  and  C_11
REMARK    4  A    between atoms: C_11  and  C_12
REMARK    5  A    between atoms: C_15  and  C_16
REMARK    6  A    between atoms: N_18  and  C_19
REMARK    7  A    between atoms: C_19  and  C_21
REMARK                            x       y       z     vdW  Elec       q    Type
REMARK                         _______ _______ _______ _____ _____    ______ ____
ROOT
ATOM      1  C   UNL     1      -0.127  -3.704   1.976  0.00  0.00    +0.000 C 
ENDROOT
BRANCH   1   2
ATOM      2  C   UNL     1      -1.098  -2.726   1.411  0.00  0.00    +0.000 A 
ATOM      3  C   UNL     1      -0.871  -1.914   0.346  0.00  0.00    +0.000 A 
ATOM      4  C   UNL     1      -1.833  -1.053  -0.110  0.00  0.00    +0.000 A 
ATOM      5  C   UNL     1      -3.090  -0.964   0.493  0.00  0.00    +0.000 A 
ATOM      6  C   UNL     1      -3.268  -1.808   1.567  0.00  0.00    +0.000 A 
ATOM      7  C   UNL     1      -2.318  -2.672   2.033  0.00  0.00    +0.000 A 
BRANCH   5   8
ATOM      8  C   UNL     1      -4.122  -0.053   0.029  0.00  0.00    +0.000 C 
ATOM      9  O   UNL     1      -5.317  -0.337   0.277  0.00  0.00    +0.000 OA
ATOM     10  N   UNL     1      -3.825   1.067  -0.649  0.00  0.00    +0.000 NA
BRANCH  10  11
ATOM     11  C   UNL     1      -4.886   2.087  -1.178  0.00  0.00    +0.000 C 
ATOM     12  C   UNL     1      -6.258   1.280  -0.763  0.00  0.00    +0.000 C 
BRANCH  11  13
ATOM     13  C   UNL     1      -4.832   1.491  -2.714  0.00  0.00    +0.000 C 
ATOM     14  C   UNL     1      -5.219   0.071  -2.684  0.00  0.00    +0.000 C 
ATOM     15  C   UNL     1      -5.894   2.338  -3.385  0.00  0.00    +0.000 C 
ENDBRANCH  11  13
ENDBRANCH  10  11
ENDBRANCH   5   8
ENDBRANCH   1   2
BRANCH   1  16
ATOM     16  S   UNL     1       0.829  -2.756   3.185  0.00  0.00    +0.000 S 
BRANCH  16  20
ATOM     17  C   UNL     1       3.383   0.118   0.659  0.00  0.00    +0.000 A 
ATOM     18  C   UNL     1       3.420   0.136   2.043  0.00  0.00    +0.000 A 
ATOM     19  C   UNL     1       2.665  -0.701   2.832  0.00  0.00    +0.000 A 
ATOM     20  C   UNL     1       1.823  -1.611   2.201  0.00  0.00    +0.000 A 
ATOM     21  N   UNL     1       1.811  -1.604   0.866  0.00  0.00    +0.000 NA
ATOM     22  N   UNL     1       2.544  -0.790   0.139  0.00  0.00    +0.000 NA
BRANCH  17  27
ATOM     23  C   UNL     1       6.614   3.436  -2.648  0.00  0.00    +0.000 C 
ATOM     24  C   UNL     1       5.757   2.569  -1.800  0.00  0.00    +0.000 A 
ATOM     25  C   UNL     1       5.779   2.716  -0.426  0.00  0.00    +0.000 A 
ATOM     26  C   UNL     1       4.995   1.921   0.410  0.00  0.00    +0.000 A 
ATOM     27  C   UNL     1       4.195   0.981  -0.191  0.00  0.00    +0.000 A 
ATOM     28  C   UNL     1       4.194   0.860  -1.553  0.00  0.00    +0.000 A 
ATOM     29  C   UNL     1       4.950   1.621  -2.407  0.00  0.00    +0.000 A 
ENDBRANCH  17  27
ENDBRANCH  16  20
ENDBRANCH   1  16
TORSDOF 7
