REMARK  Name = 
REMARK  11 active torsions:
REMARK  status: ('A' for Active; 'I' for Inactive)
REMARK    1  A    between atoms: C_2  and  O_3
REMARK    2  A    between atoms: O_3  and  C_4
REMARK    3  A    between atoms: C_4  and  C_6
REMARK    4  A    between atoms: C_6  and  S_8
REMARK    5  A    between atoms: S_8  and  C_9
REMARK    6  A    between atoms: C_12  and  C_13
REMARK    7  A    between atoms: N_15  and  C_16
REMARK    8  A    between atoms: C_16  and  C_17
REMARK    9  A    between atoms: C_17  and  C_18
REMARK   10  A    between atoms: C_18  and  C_19
REMARK   11  A    between atoms: C_18  and  C_25
REMARK                            x       y       z     vdW  Elec       q    Type
REMARK                         _______ _______ _______ _____ _____    ______ ____
ROOT
ATOM      1  C   UNL     1      -1.589  -0.845   0.202  0.00  0.00    +0.000 A 
ATOM      2  N   UNL     1      -2.482  -1.860  -0.034  0.00  0.00    +0.000 NA
ATOM      3  C   UNL     1      -2.016  -3.001   0.486  0.00  0.00    +0.000 A 
ATOM      4  C   UNL     1      -0.803  -2.728   1.069  0.00  0.00    +0.000 A 
ATOM      5  N   UNL     1      -0.579  -1.409   0.875  0.00  0.00    +0.000 N 
ENDROOT
BRANCH   4   6
ATOM      6  C   UNL     1       0.086  -3.680   1.770  0.00  0.00    +0.000 C 
ATOM      7  O   UNL     1       1.236  -3.098   2.247  0.00  0.00    +0.000 OA
ENDBRANCH   4   6
BRANCH   1   8
ATOM      8  S   UNL     1      -1.842   0.848  -0.308  0.00  0.00    +0.000 S 
BRANCH   8   9
ATOM      9  C   UNL     1      -2.764   1.764   1.073  0.00  0.00    +0.000 C 
ATOM     10  C   UNL     1      -2.110   1.023   2.293  0.00  0.00    +0.000 C 
BRANCH   9  11
ATOM     11  C   UNL     1      -4.091   0.971   0.996  0.00  0.00    +0.000 C 
ATOM     12  O   UNL     1      -4.399   0.082   1.787  0.00  0.00    +0.000 OA
BRANCH  11  13
ATOM     13  O   UNL     1      -4.942   1.353  -0.073  0.00  0.00    +0.000 OA
BRANCH  13  15
ATOM     14  C   UNL     1      -5.745  -0.851  -0.311  0.00  0.00    +0.000 C 
ATOM     15  C   UNL     1      -6.167   0.614  -0.135  0.00  0.00    +0.000 C 
ENDBRANCH  13  15
ENDBRANCH  11  13
ENDBRANCH   9  11
ENDBRANCH   8   9
ENDBRANCH   1   8
BRANCH   5  16
ATOM     16  C   UNL     1       0.593  -0.749   1.364  0.00  0.00    +0.000 C 
BRANCH  16  17
ATOM     17  C   UNL     1       1.794  -0.774   0.529  0.00  0.00    +0.000 C 
BRANCH  17  18
ATOM     18  C   UNL     1       1.801  -0.172  -0.808  0.00  0.00    +0.000 C 
BRANCH  18  19
ATOM     19  C   UNL     1       1.528   1.278  -0.888  0.00  0.00    +0.000 A 
ATOM     20  C   UNL     1       1.802   2.134   0.157  0.00  0.00    +0.000 A 
ATOM     21  C   UNL     1       1.583   3.478   0.141  0.00  0.00    +0.000 A 
ATOM     22  C   UNL     1       1.048   4.056  -0.989  0.00  0.00    +0.000 A 
ATOM     23  C   UNL     1       0.756   3.224  -2.069  0.00  0.00    +0.000 A 
ATOM     24  C   UNL     1       0.986   1.866  -2.030  0.00  0.00    +0.000 A 
ENDBRANCH  18  19
BRANCH  18  25
ATOM     25  C   UNL     1       3.140  -0.387  -1.454  0.00  0.00    +0.000 A 
ATOM     26  C   UNL     1       4.309  -0.341  -0.725  0.00  0.00    +0.000 A 
ATOM     27  C   UNL     1       5.546  -0.535  -1.304  0.00  0.00    +0.000 A 
ATOM     28  C   UNL     1       5.607  -0.785  -2.666  0.00  0.00    +0.000 A 
ATOM     29  C   UNL     1       4.459  -0.837  -3.423  0.00  0.00    +0.000 A 
ATOM     30  C   UNL     1       3.255  -0.638  -2.802  0.00  0.00    +0.000 A 
ENDBRANCH  18  25
ENDBRANCH  17  18
ENDBRANCH  16  17
ENDBRANCH   5  16
TORSDOF 11
