REMARK  Name = 
REMARK  8 active torsions:
REMARK  status: ('A' for Active; 'I' for Inactive)
REMARK    1  A    between atoms: C_2  and  C_3
REMARK    2  A    between atoms: C_3  and  C_4
REMARK    3  A    between atoms: C_4  and  C_5
REMARK    4  A    between atoms: C_5  and  O_6
REMARK    5  A    between atoms: O_6  and  C_7
REMARK    6  A    between atoms: C_7  and  C_9
REMARK    7  A    between atoms: N_12  and  C_13
REMARK    8  A    between atoms: C_13  and  C_15
REMARK                            x       y       z     vdW  Elec       q    Type
REMARK                         _______ _______ _______ _____ _____    ______ ____
ROOT
ATOM      1  C   UNL     1       1.084  -0.192   0.328  0.00  0.00    +0.000 A 
ATOM      2  C   UNL     1       0.800   1.151   0.432  0.00  0.00    +0.000 A 
ATOM      3  N   UNL     1       1.546   2.174   1.074  0.00  0.00    +0.000 NA
ATOM      4  N   UNL     1      -0.335   1.450  -0.171  0.00  0.00    +0.000 N 
ATOM      5  C   UNL     1      -0.827   0.320  -0.685  0.00  0.00    +0.000 A 
ATOM      6  N   UNL     1      -1.914  -0.043  -1.393  0.00  0.00    +0.000 NA
ATOM      7  C   UNL     1      -2.164  -1.302  -1.794  0.00  0.00    +0.000 A 
ATOM      8  C   UNL     1      -3.318  -1.577  -2.524  0.00  0.00    +0.000 A 
ATOM      9  C   UNL     1      -3.561  -2.877  -2.928  0.00  0.00    +0.000 A 
ATOM     10  C   UNL     1      -2.674  -3.893  -2.614  0.00  0.00    +0.000 A 
ATOM     11  C   UNL     1      -1.533  -3.628  -1.894  0.00  0.00    +0.000 A 
ATOM     12  C   UNL     1      -1.290  -2.321  -1.488  0.00  0.00    +0.000 A 
ATOM     13  N   UNL     1      -0.195  -1.996  -0.782  0.00  0.00    +0.000 NA
ATOM     14  C   UNL     1       0.052  -0.738  -0.385  0.00  0.00    +0.000 A 
ENDROOT
BRANCH   1  15
ATOM     15  C   UNL     1       2.252  -0.834   0.881  0.00  0.00    +0.000 C 
ATOM     16  O   UNL     1       2.401  -2.069   0.719  0.00  0.00    +0.000 OA
BRANCH  15  17
ATOM     17  O   UNL     1       3.244  -0.179   1.591  0.00  0.00    +0.000 OA
BRANCH  17  18
ATOM     18  C   UNL     1       4.365  -0.864   2.108  0.00  0.00    +0.000 C 
BRANCH  18  19
ATOM     19  C   UNL     1       5.180  -1.536   1.026  0.00  0.00    +0.000 C 
BRANCH  19  20
ATOM     20  C   UNL     1       5.647  -0.438   0.086  0.00  0.00    +0.000 C 
BRANCH  20  22
ATOM     21  C   UNL     1       7.689  -0.098   1.493  0.00  0.00    +0.000 C 
ATOM     22  C   UNL     1       6.475   0.532   0.866  0.00  0.00    +0.000 C 
ENDBRANCH  20  22
ENDBRANCH  19  20
ENDBRANCH  18  19
ENDBRANCH  17  18
ENDBRANCH  15  17
ENDBRANCH   1  15
BRANCH   4  23
ATOM     23  C   UNL     1      -1.040   2.800  -0.308  0.00  0.00    +0.000 C 
ATOM     24  C   UNL     1      -1.832   2.616  -1.731  0.00  0.00    +0.000 C 
BRANCH  23  25
ATOM     25  C   UNL     1      -2.272   2.522   0.633  0.00  0.00    +0.000 A 
ATOM     26  C   UNL     1      -2.273   3.026   1.898  0.00  0.00    +0.000 A 
ATOM     27  C   UNL     1      -3.358   2.755   2.713  0.00  0.00    +0.000 A 
ATOM     28  C   UNL     1      -4.407   1.994   2.248  0.00  0.00    +0.000 A 
ATOM     29  C   UNL     1      -4.426   1.471   0.963  0.00  0.00    +0.000 A 
ATOM     30  C   UNL     1      -3.315   1.776   0.199  0.00  0.00    +0.000 A 
ENDBRANCH  23  25
ENDBRANCH   4  23
TORSDOF 8
