REMARK  Name = 
REMARK  7 active torsions:
REMARK  status: ('A' for Active; 'I' for Inactive)
REMARK    1  A    between atoms: C_3  and  C_4
REMARK    2  A    between atoms: C_4  and  O_6
REMARK    3  A    between atoms: O_6  and  C_7
REMARK    4  A    between atoms: C_7  and  C_8
REMARK    5  A    between atoms: N_24  and  C_25
REMARK    6  A    between atoms: C_25  and  C_26
REMARK    7  A    between atoms: C_26  and  C_27
REMARK                            x       y       z     vdW  Elec       q    Type
REMARK                         _______ _______ _______ _____ _____    ______ ____
ROOT
ATOM      1  N   UNL     1       1.198   1.958  -0.892  0.00  0.00    +0.000 NA
ATOM      2  C   UNL     1       0.412   0.792  -0.710  0.00  0.00    +0.000 A 
ATOM      3  C   UNL     1       0.800  -0.382  -0.114  0.00  0.00    +0.000 A 
ATOM      4  C   UNL     1      -0.266  -1.236  -0.152  0.00  0.00    +0.000 A 
ATOM      5  N   UNL     1      -0.395  -2.487   0.288  0.00  0.00    +0.000 NA
ATOM      6  C   UNL     1      -1.574  -3.136   0.125  0.00  0.00    +0.000 A 
ATOM      7  C   UNL     1      -1.722  -4.449   0.583  0.00  0.00    +0.000 A 
ATOM      8  C   UNL     1      -2.934  -5.072   0.398  0.00  0.00    +0.000 A 
ATOM      9  C   UNL     1      -3.977  -4.424  -0.220  0.00  0.00    +0.000 A 
ATOM     10  C   UNL     1      -3.809  -3.130  -0.664  0.00  0.00    +0.000 A 
ATOM     11  C   UNL     1      -2.597  -2.457  -0.499  0.00  0.00    +0.000 A 
ATOM     12  N   UNL     1      -2.441  -1.196  -0.933  0.00  0.00    +0.000 NA
ATOM     13  C   UNL     1      -1.286  -0.535  -0.783  0.00  0.00    +0.000 A 
ATOM     14  N   UNL     1      -0.870   0.689  -1.117  0.00  0.00    +0.000 N 
ENDROOT
BRANCH   3  15
ATOM     15  C   UNL     1       2.138  -0.627   0.449  0.00  0.00    +0.000 C 
ATOM     16  O   UNL     1       2.345  -1.747   0.961  0.00  0.00    +0.000 OA
BRANCH  15  17
ATOM     17  O   UNL     1       3.155   0.301   0.441  0.00  0.00    +0.000 OA
BRANCH  17  18
ATOM     18  C   UNL     1       4.443   0.009   1.005  0.00  0.00    +0.000 C 
BRANCH  18  19
ATOM     19  C   UNL     1       5.356   1.148   0.878  0.00  0.00    +0.000 A 
ATOM     20  C   UNL     1       5.398   2.082   1.887  0.00  0.00    +0.000 A 
ATOM     21  C   UNL     1       6.237   3.188   1.838  0.00  0.00    +0.000 A 
ATOM     22  C   UNL     1       7.067   3.383   0.757  0.00  0.00    +0.000 A 
ATOM     23  C   UNL     1       7.030   2.450  -0.259  0.00  0.00    +0.000 A 
ATOM     24  C   UNL     1       6.191   1.352  -0.201  0.00  0.00    +0.000 A 
ENDBRANCH  18  19
ENDBRANCH  17  18
ENDBRANCH  15  17
ENDBRANCH   3  15
BRANCH  14  25
ATOM     25  C   UNL     1      -1.635   1.754  -1.792  0.00  0.00    +0.000 C 
BRANCH  25  26
ATOM     26  C   UNL     1      -2.272   2.621  -0.752  0.00  0.00    +0.000 C 
BRANCH  26  27
ATOM     27  C   UNL     1      -3.219   1.880   0.097  0.00  0.00    +0.000 C 
ATOM     28  C   UNL     1      -3.064   1.698   1.404  0.00  0.00    +0.000 C 
ATOM     29  C   UNL     1      -4.156   0.906   2.079  0.00  0.00    +0.000 C 
ATOM     30  C   UNL     1      -5.449   1.622   1.755  0.00  0.00    +0.000 C 
ATOM     31  C   UNL     1      -5.659   1.734   0.265  0.00  0.00    +0.000 C 
ATOM     32  C   UNL     1      -4.447   1.310  -0.530  0.00  0.00    +0.000 C 
ENDBRANCH  26  27
ENDBRANCH  25  26
ENDBRANCH  14  25
TORSDOF 7
