REMARK  Name = 
REMARK  7 active torsions:
REMARK  status: ('A' for Active; 'I' for Inactive)
REMARK    1  A    between atoms: C_2  and  O_3
REMARK    2  A    between atoms: O_3  and  C_4
REMARK    3  A    between atoms: C_8  and  C_9
REMARK    4  A    between atoms: C_11  and  C_12
REMARK    5  A    between atoms: N_14  and  C_15
REMARK    6  A    between atoms: C_15  and  C_16
REMARK    7  A    between atoms: C_21  and  O_22
REMARK                            x       y       z     vdW  Elec       q    Type
REMARK                         _______ _______ _______ _____ _____    ______ ____
ROOT
ATOM      1  C   UNL     1       2.075   1.034   0.711  0.00  0.00    +0.000 A 
ATOM      2  C   UNL     1       1.043   0.467  -0.035  0.00  0.00    +0.000 A 
ATOM      3  C   UNL     1      -0.219   0.987   0.043  0.00  0.00    +0.000 A 
ATOM      4  C   UNL     1      -0.445   2.066   0.859  0.00  0.00    +0.000 A 
ATOM      5  C   UNL     1      -1.715   2.582   0.931  0.00  0.00    +0.000 A 
ATOM      6  C   UNL     1      -1.938   3.659   1.747  0.00  0.00    +0.000 A 
ATOM      7  C   UNL     1      -0.936   4.240   2.495  0.00  0.00    +0.000 A 
ATOM      8  C   UNL     1       0.337   3.691   2.398  0.00  0.00    +0.000 A 
ATOM      9  C   UNL     1       0.570   2.617   1.587  0.00  0.00    +0.000 A 
ATOM     10  N   UNL     1       1.798   2.090   1.494  0.00  0.00    +0.000 NA
ENDROOT
BRANCH   1  15
ATOM     11  C   UNL     1       5.056  -1.048  -0.168  0.00  0.00    +0.000 A 
ATOM     12  C   UNL     1       6.032  -0.456   0.583  0.00  0.00    +0.000 A 
ATOM     13  C   UNL     1       5.724   0.623   1.377  0.00  0.00    +0.000 A 
ATOM     14  C   UNL     1       4.413   1.101   1.407  0.00  0.00    +0.000 A 
ATOM     15  C   UNL     1       3.422   0.520   0.661  0.00  0.00    +0.000 A 
ATOM     16  C   UNL     1       3.743  -0.557  -0.128  0.00  0.00    +0.000 A 
BRANCH  11  17
ATOM     17  O   UNL     1       5.265  -2.139  -1.000  0.00  0.00    +0.000 OA
BRANCH  17  19
ATOM     18  C   UNL     1       7.059  -3.347   0.105  0.00  0.00    +0.000 C 
ATOM     19  C   UNL     1       6.494  -2.777  -1.182  0.00  0.00    +0.000 C 
ENDBRANCH  17  19
ENDBRANCH  11  17
ENDBRANCH   1  15
BRANCH   3  20
ATOM     20  C   UNL     1      -1.330   0.394  -0.746  0.00  0.00    +0.000 C 
ATOM     21  O   UNL     1      -1.131  -0.592  -1.494  0.00  0.00    +0.000 OA
ATOM     22  N   UNL     1      -2.640   0.927  -0.671  0.00  0.00    +0.000 NA
BRANCH  22  23
ATOM     23  C   UNL     1      -3.784   0.419  -1.398  0.00  0.00    +0.000 C 
BRANCH  23  24
ATOM     24  C   UNL     1      -4.082  -0.992  -1.050  0.00  0.00    +0.000 A 
ATOM     25  C   UNL     1      -3.290  -1.620  -0.129  0.00  0.00    +0.000 A 
ATOM     26  C   UNL     1      -3.535  -2.919   0.219  0.00  0.00    +0.000 A 
ATOM     27  C   UNL     1      -4.567  -3.626  -0.335  0.00  0.00    +0.000 A 
ATOM     28  C   UNL     1      -5.365  -2.974  -1.271  0.00  0.00    +0.000 A 
ATOM     29  C   UNL     1      -5.117  -1.671  -1.618  0.00  0.00    +0.000 A 
BRANCH  29  30
ATOM     30  O   UNL     1      -5.923  -1.038  -2.553  0.00  0.00    +0.000 OA
ATOM     31  C   UNL     1      -7.013  -1.661  -3.191  0.00  0.00    +0.000 C 
ENDBRANCH  29  30
ENDBRANCH  23  24
ENDBRANCH  22  23
ENDBRANCH   3  20
TORSDOF 7
