REMARK  Name = 
REMARK  7 active torsions:
REMARK  status: ('A' for Active; 'I' for Inactive)
REMARK    1  A    between atoms: C_5  and  S_6
REMARK    2  A    between atoms: S_6  and  C_7
REMARK    3  A    between atoms: C_8  and  N_9
REMARK    4  A    between atoms: N_9  and  C_10
REMARK    5  A    between atoms: N_20  and  C_21
REMARK    6  A    between atoms: C_21  and  C_22
REMARK    7  A    between atoms: C_22  and  C_23
REMARK                            x       y       z     vdW  Elec       q    Type
REMARK                         _______ _______ _______ _____ _____    ______ ____
ROOT
ATOM      1  C   UNL     1      -0.839  -0.060  -1.143  0.00  0.00    +0.000 C 
ATOM      2  C   UNL     1      -0.516   0.802  -2.090  0.00  0.00    +0.000 C 
ATOM      3  C   UNL     1       0.596   0.234  -2.839  0.00  0.00    +0.000 C 
ATOM      4  O   UNL     1       1.209   0.736  -3.830  0.00  0.00    +0.000 OA
ATOM      5  N   UNL     1       0.931  -1.037  -2.285  0.00  0.00    +0.000 N 
ATOM      6  C   UNL     1       0.030  -1.237  -1.210  0.00  0.00    +0.000 C 
ATOM      7  O   UNL     1      -0.024  -2.243  -0.442  0.00  0.00    +0.000 OA
ENDROOT
BRANCH   1   8
ATOM      8  S   UNL     1      -2.162   0.173   0.063  0.00  0.00    +0.000 S 
BRANCH   8  13
ATOM      9  C   UNL     1      -2.602  -4.726   3.643  0.00  0.00    +0.000 C 
ATOM     10  C   UNL     1      -2.485  -3.514   2.771  0.00  0.00    +0.000 A 
ATOM     11  C   UNL     1      -1.673  -2.450   3.110  0.00  0.00    +0.000 A 
ATOM     12  C   UNL     1      -1.549  -1.323   2.323  0.00  0.00    +0.000 A 
ATOM     13  C   UNL     1      -2.249  -1.226   1.145  0.00  0.00    +0.000 A 
ATOM     14  C   UNL     1      -3.070  -2.297   0.799  0.00  0.00    +0.000 A 
ATOM     15  C   UNL     1      -3.185  -3.412   1.589  0.00  0.00    +0.000 A 
ENDBRANCH   8  13
ENDBRANCH   1   8
BRANCH   2  16
ATOM     16  N   UNL     1      -1.148   2.049  -2.318  0.00  0.00    +0.000 NA
BRANCH  16  17
ATOM     17  C   UNL     1      -0.944   3.097  -1.361  0.00  0.00    +0.000 A 
ATOM     18  C   UNL     1      -1.539   4.329  -1.543  0.00  0.00    +0.000 A 
ATOM     19  C   UNL     1      -1.333   5.326  -0.613  0.00  0.00    +0.000 A 
ATOM     20  C   UNL     1      -0.546   5.141   0.504  0.00  0.00    +0.000 A 
ATOM     21  C   UNL     1      -0.338   6.241   1.499  0.00  0.00    +0.000 C 
ATOM     22  C   UNL     1       0.038   3.908   0.666  0.00  0.00    +0.000 A 
ATOM     23  C   UNL     1       0.898   3.702   1.885  0.00  0.00    +0.000 C 
ATOM     24  C   UNL     1      -0.159   2.912  -0.248  0.00  0.00    +0.000 A 
ENDBRANCH  16  17
ENDBRANCH   2  16
BRANCH   5  25
ATOM     25  C   UNL     1       1.960  -1.963  -2.711  0.00  0.00    +0.000 C 
BRANCH  25  26
ATOM     26  C   UNL     1       3.276  -1.689  -2.030  0.00  0.00    +0.000 C 
BRANCH  26  27
ATOM     27  C   UNL     1       3.081  -1.818  -0.573  0.00  0.00    +0.000 A 
ATOM     28  C   UNL     1       3.238  -3.025   0.039  0.00  0.00    +0.000 A 
ATOM     29  C   UNL     1       3.059  -3.120   1.398  0.00  0.00    +0.000 A 
ATOM     30  C   UNL     1       2.723  -2.010   2.156  0.00  0.00    +0.000 A 
ATOM     31  C   UNL     1       2.571  -0.789   1.495  0.00  0.00    +0.000 A 
ATOM     32  C   UNL     1       2.750  -0.710   0.150  0.00  0.00    +0.000 A 
ENDBRANCH  26  27
ENDBRANCH  25  26
ENDBRANCH   5  25
TORSDOF 7
