REMARK  Name = 
REMARK  7 active torsions:
REMARK  status: ('A' for Active; 'I' for Inactive)
REMARK    1  A    between atoms: O_2  and  C_3
REMARK    2  A    between atoms: C_7  and  N_8
REMARK    3  A    between atoms: C_9  and  C_11
REMARK    4  A    between atoms: C_12  and  N_13
REMARK    5  A    between atoms: C_14  and  C_16
REMARK    6  A    between atoms: C_16  and  C_17
REMARK    7  A    between atoms: C_17  and  C_18
REMARK                            x       y       z     vdW  Elec       q    Type
REMARK                         _______ _______ _______ _____ _____    ______ ____
ROOT
ATOM      1  C   UNL     1       0.495  -1.114  -2.212  0.00  0.00    +0.000 A 
ATOM      2  C   UNL     1       0.128  -0.045  -2.962  0.00  0.00    +0.000 A 
ATOM      3  S   UNL     1       0.417  -0.670  -4.599  0.00  0.00    +0.000 S 
ATOM      4  C   UNL     1       0.960  -2.215  -4.212  0.00  0.00    +0.000 A 
ATOM      5  C   UNL     1       0.924  -2.245  -2.862  0.00  0.00    +0.000 A 
ATOM      6  C   UNL     1       1.399  -3.631  -2.409  0.00  0.00    +0.000 C 
ATOM      7  C   UNL     1       1.359  -4.491  -3.624  0.00  0.00    +0.000 C 
ATOM      8  C   UNL     1       1.455  -3.533  -4.795  0.00  0.00    +0.000 C 
ENDROOT
BRANCH   1  10
ATOM      9  N   UNL     1       0.874  -2.090   0.124  0.00  0.00    +0.000 NA
ATOM     10  C   UNL     1       0.651  -0.970  -0.718  0.00  0.00    +0.000 C 
ATOM     11  O   UNL     1       0.590   0.129  -0.154  0.00  0.00    +0.000 OA
BRANCH   9  16
ATOM     12  C   UNL     1       1.082  -0.558   3.460  0.00  0.00    +0.000 A 
ATOM     13  C   UNL     1       1.293  -1.673   4.223  0.00  0.00    +0.000 A 
ATOM     14  C   UNL     1       1.372  -2.947   3.667  0.00  0.00    +0.000 A 
ATOM     15  C   UNL     1       1.232  -3.065   2.319  0.00  0.00    +0.000 A 
ATOM     16  C   UNL     1       1.020  -1.967   1.534  0.00  0.00    +0.000 A 
ATOM     17  C   UNL     1       0.944  -0.705   2.104  0.00  0.00    +0.000 A 
BRANCH  12  19
ATOM     18  C   UNL     1       1.147   0.854   5.413  0.00  0.00    +0.000 C 
ATOM     19  O   UNL     1       1.006   0.695   4.016  0.00  0.00    +0.000 OA
ENDBRANCH  12  19
ENDBRANCH   9  16
ENDBRANCH   1  10
BRANCH   2  20
ATOM     20  N   UNL     1      -0.530   1.183  -2.778  0.00  0.00    +0.000 NA
ATOM     21  C   UNL     1      -1.399   1.662  -1.835  0.00  0.00    +0.000 C 
ATOM     22  O   UNL     1      -1.789   0.915  -0.906  0.00  0.00    +0.000 OA
BRANCH  21  23
ATOM     23  C   UNL     1      -1.912   3.098  -1.884  0.00  0.00    +0.000 C 
BRANCH  23  24
ATOM     24  C   UNL     1      -2.785   3.443  -0.748  0.00  0.00    +0.000 C 
BRANCH  24  25
ATOM     25  C   UNL     1      -2.209   3.367   0.596  0.00  0.00    +0.000 A 
ATOM     26  C   UNL     1      -1.545   4.452   1.161  0.00  0.00    +0.000 A 
ATOM     27  C   UNL     1      -1.008   4.418   2.417  0.00  0.00    +0.000 A 
ATOM     28  C   UNL     1      -1.111   3.274   3.190  0.00  0.00    +0.000 A 
ATOM     29  C   UNL     1      -1.764   2.183   2.654  0.00  0.00    +0.000 A 
ATOM     30  C   UNL     1      -2.298   2.247   1.378  0.00  0.00    +0.000 A 
ENDBRANCH  24  25
ENDBRANCH  23  24
ENDBRANCH  21  23
ENDBRANCH   2  20
TORSDOF 7
