REMARK  Name = 
REMARK  7 active torsions:
REMARK  status: ('A' for Active; 'I' for Inactive)
REMARK    1  A    between atoms: C_2  and  O_3
REMARK    2  A    between atoms: O_3  and  C_4
REMARK    3  A    between atoms: C_7  and  N_8
REMARK    4  A    between atoms: C_9  and  C_11
REMARK    5  A    between atoms: C_11  and  N_12
REMARK    6  A    between atoms: C_11  and  C_21
REMARK    7  A    between atoms: C_13  and  C_15
REMARK                            x       y       z     vdW  Elec       q    Type
REMARK                         _______ _______ _______ _____ _____    ______ ____
ROOT
ATOM      1  C   UNL     1      -1.409  -0.204   1.386  0.00  0.00    +0.000 C 
ENDROOT
BRANCH   1   2
ATOM      2  C   UNL     1      -1.568  -1.282   0.190  0.00  0.00    +0.000 C 
ATOM      3  C   UNL     1      -2.966  -1.780   0.213  0.00  0.00    +0.000 C 
ATOM      4  C   UNL     1      -3.171  -2.678  -0.963  0.00  0.00    +0.000 C 
ATOM      5  C   UNL     1      -2.337  -3.926  -0.634  0.00  0.00    +0.000 C 
ATOM      6  C   UNL     1      -0.922  -3.536  -0.365  0.00  0.00    +0.000 C 
ATOM      7  C   UNL     1      -0.331  -2.968  -1.655  0.00  0.00    +0.000 C 
ATOM      8  C   UNL     1      -1.156  -1.754  -2.108  0.00  0.00    +0.000 C 
ATOM      9  C   UNL     1      -2.614  -2.141  -2.258  0.00  0.00    +0.000 C 
ATOM     10  C   UNL     1      -1.063  -0.716  -1.059  0.00  0.00    +0.000 C 
ATOM     11  C   UNL     1      -0.731  -2.491   0.678  0.00  0.00    +0.000 C 
ENDBRANCH   1   2
BRANCH   1  13
ATOM     12  N   UNL     1       1.081  -0.923   1.441  0.00  0.00    +0.000 NA
ATOM     13  C   UNL     1       0.168   0.031   1.079  0.00  0.00    +0.000 C 
ATOM     14  O   UNL     1       0.448   1.104   0.513  0.00  0.00    +0.000 OA
BRANCH  12  18
ATOM     15  C   UNL     1       5.153  -0.259   0.522  0.00  0.00    +0.000 A 
ATOM     16  C   UNL     1       4.763  -1.376   1.238  0.00  0.00    +0.000 A 
ATOM     17  C   UNL     1       3.446  -1.626   1.563  0.00  0.00    +0.000 A 
ATOM     18  C   UNL     1       2.484  -0.764   1.181  0.00  0.00    +0.000 A 
ATOM     19  C   UNL     1       2.858   0.358   0.467  0.00  0.00    +0.000 A 
ATOM     20  C   UNL     1       4.165   0.631   0.129  0.00  0.00    +0.000 A 
BRANCH  15  21
ATOM     21  O   UNL     1       6.491  -0.019   0.198  0.00  0.00    +0.000 OA
BRANCH  21  23
ATOM     22  C   UNL     1       8.806  -0.475   0.150  0.00  0.00    +0.000 C 
ATOM     23  C   UNL     1       7.466  -0.940   0.611  0.00  0.00    +0.000 C 
ENDBRANCH  21  23
ENDBRANCH  15  21
ENDBRANCH  12  18
ENDBRANCH   1  13
BRANCH   1  24
ATOM     24  N   UNL     1      -1.943   1.077   0.844  0.00  0.00    +0.000 NA
ATOM     25  C   UNL     1      -2.845   1.387  -0.075  0.00  0.00    +0.000 C 
ATOM     26  O   UNL     1      -3.458   0.543  -0.703  0.00  0.00    +0.000 OA
BRANCH  25  27
ATOM     27  C   UNL     1      -3.149   2.808  -0.381  0.00  0.00    +0.000 A 
ATOM     28  C   UNL     1      -3.846   3.127  -1.541  0.00  0.00    +0.000 A 
ATOM     29  C   UNL     1      -4.174   4.420  -1.892  0.00  0.00    +0.000 A 
ATOM     30  C   UNL     1      -3.776   5.415  -1.027  0.00  0.00    +0.000 A 
ATOM     31  C   UNL     1      -3.089   5.127   0.122  0.00  0.00    +0.000 A 
ATOM     32  C   UNL     1      -2.780   3.829   0.438  0.00  0.00    +0.000 A 
ENDBRANCH  25  27
ENDBRANCH   1  24
TORSDOF 7
