REMARK  Name = 
REMARK  9 active torsions:
REMARK  status: ('A' for Active; 'I' for Inactive)
REMARK    1  A    between atoms: C_2  and  O_3
REMARK    2  A    between atoms: O_3  and  C_4
REMARK    3  A    between atoms: C_4  and  C_6
REMARK    4  A    between atoms: C_10  and  C_11
REMARK    5  A    between atoms: N_13  and  C_14
REMARK    6  A    between atoms: C_14  and  C_15
REMARK    7  A    between atoms: C_15  and  C_16
REMARK    8  A    between atoms: C_16  and  C_17
REMARK    9  A    between atoms: C_16  and  C_23
REMARK                            x       y       z     vdW  Elec       q    Type
REMARK                         _______ _______ _______ _____ _____    ______ ____
ROOT
ATOM      1  C   UNL     1       1.211  -0.286  -0.422  0.00  0.00    +0.000 C 
ATOM      2  O   UNL     1       0.737   0.635  -1.134  0.00  0.00    +0.000 OA
ATOM      3  N   UNL     1       0.340  -1.345  -0.055  0.00  0.00    +0.000 NA
ENDROOT
BRANCH   1   8
ATOM      4  C   UNL     1       4.747   0.387   0.296  0.00  0.00    +0.000 A 
ATOM      5  N   UNL     1       4.526  -0.793   0.944  0.00  0.00    +0.000 NA
ATOM      6  C   UNL     1       3.258  -1.190   0.781  0.00  0.00    +0.000 A 
ATOM      7  C   UNL     1       2.698  -2.433   1.359  0.00  0.00    +0.000 C 
ATOM      8  C   UNL     1       2.600  -0.260   0.006  0.00  0.00    +0.000 A 
ATOM      9  C   UNL     1       3.532   0.702  -0.283  0.00  0.00    +0.000 A 
ATOM     10  C   UNL     1       3.312   1.934  -1.103  0.00  0.00    +0.000 C 
BRANCH   4  11
ATOM     11  C   UNL     1       5.998   1.128   0.244  0.00  0.00    +0.000 C 
ATOM     12  O   UNL     1       6.058   2.203  -0.391  0.00  0.00    +0.000 OA
BRANCH  11  13
ATOM     13  O   UNL     1       7.121   0.650   0.894  0.00  0.00    +0.000 OA
BRANCH  13  15
ATOM     14  C   UNL     1       8.130   2.716   1.488  0.00  0.00    +0.000 C 
ATOM     15  C   UNL     1       8.367   1.344   0.869  0.00  0.00    +0.000 C 
ENDBRANCH  13  15
ENDBRANCH  11  13
ENDBRANCH   4  11
ENDBRANCH   1   8
BRANCH   3  16
ATOM     16  C   UNL     1      -1.048  -1.391  -0.470  0.00  0.00    +0.000 C 
BRANCH  16  17
ATOM     17  C   UNL     1      -1.818  -0.182   0.035  0.00  0.00    +0.000 C 
BRANCH  17  18
ATOM     18  C   UNL     1      -3.228  -0.304  -0.432  0.00  0.00    +0.000 C 
BRANCH  18  19
ATOM     19  C   UNL     1      -3.925  -1.508   0.042  0.00  0.00    +0.000 A 
ATOM     20  C   UNL     1      -3.895  -1.946   1.354  0.00  0.00    +0.000 A 
ATOM     21  C   UNL     1      -4.566  -3.087   1.760  0.00  0.00    +0.000 A 
ATOM     22  C   UNL     1      -5.292  -3.830   0.867  0.00  0.00    +0.000 A 
ATOM     23  C   UNL     1      -5.338  -3.414  -0.447  0.00  0.00    +0.000 A 
ATOM     24  C   UNL     1      -4.662  -2.270  -0.844  0.00  0.00    +0.000 A 
ENDBRANCH  18  19
BRANCH  18  25
ATOM     25  C   UNL     1      -4.013   0.924  -0.361  0.00  0.00    +0.000 A 
ATOM     26  C   UNL     1      -4.788   1.268  -1.475  0.00  0.00    +0.000 A 
ATOM     27  C   UNL     1      -5.559   2.397  -1.511  0.00  0.00    +0.000 A 
ATOM     28  C   UNL     1      -5.590   3.233  -0.436  0.00  0.00    +0.000 A 
ATOM     29  C   UNL     1      -4.846   2.935   0.681  0.00  0.00    +0.000 A 
ATOM     30  C   UNL     1      -4.067   1.783   0.701  0.00  0.00    +0.000 A 
ENDBRANCH  18  25
ENDBRANCH  17  18
ENDBRANCH  16  17
ENDBRANCH   3  16
TORSDOF 9
