REMARK  Name = 
REMARK  7 active torsions:
REMARK  status: ('A' for Active; 'I' for Inactive)
REMARK    1  A    between atoms: N_2  and  C_4
REMARK    2  A    between atoms: C_4  and  C_5
REMARK    3  A    between atoms: C_5  and  C_6
REMARK    4  A    between atoms: C_6  and  N_7
REMARK    5  A    between atoms: C_13  and  C_14
REMARK    6  A    between atoms: N_16  and  C_17
REMARK    7  A    between atoms: C_20  and  C_21
REMARK                            x       y       z     vdW  Elec       q    Type
REMARK                         _______ _______ _______ _____ _____    ______ ____
ROOT
ATOM      1  C   UNL     1       2.078  -1.988  -0.382  0.00  0.00    +0.000 C 
ATOM      2  O   UNL     1       1.996  -0.805  -0.791  0.00  0.00    +0.000 OA
ATOM      3  N   UNL     1       0.936  -2.532   0.246  0.00  0.00    +0.000 NA
ENDROOT
BRANCH   1  10
ATOM      4  N   UNL     1       4.210  -0.759  -1.632  0.00  0.00    +0.000 NA
ATOM      5  C   UNL     1       4.373  -2.099  -1.196  0.00  0.00    +0.000 A 
ATOM      6  N   UNL     1       5.521  -2.775  -1.372  0.00  0.00    +0.000 NA
ATOM      7  C   UNL     1       5.643  -4.061  -0.940  0.00  0.00    +0.000 A 
ATOM      8  C   UNL     1       4.614  -4.726  -0.309  0.00  0.00    +0.000 A 
ATOM      9  C   UNL     1       3.432  -4.034  -0.126  0.00  0.00    +0.000 A 
ATOM     10  C   UNL     1       3.318  -2.714  -0.574  0.00  0.00    +0.000 A 
BRANCH   4  11
ATOM     11  C   UNL     1       5.333  -0.119  -2.289  0.00  0.00    +0.000 C 
BRANCH  11  12
ATOM     12  C   UNL     1       4.889   1.299  -2.648  0.00  0.00    +0.000 C 
BRANCH  12  13
ATOM     13  C   UNL     1       4.530   1.978  -1.355  0.00  0.00    +0.000 C 
BRANCH  13  15
ATOM     14  C   UNL     1       3.771   3.893  -0.240  0.00  0.00    +0.000 C 
ATOM     15  N   UNL     1       4.088   3.342  -1.559  0.00  0.00    +0.000 NA
ATOM     16  C   UNL     1       2.852   3.389  -2.334  0.00  0.00    +0.000 C 
ENDBRANCH  13  15
ENDBRANCH  12  13
ENDBRANCH  11  12
ENDBRANCH   4  11
ENDBRANCH   1  10
BRANCH   3  17
ATOM     17  C   UNL     1      -0.278  -1.770   0.414  0.00  0.00    +0.000 A 
ATOM     18  C   UNL     1      -1.382  -2.325   1.027  0.00  0.00    +0.000 A 
ATOM     19  C   UNL     1      -2.553  -1.599   1.193  0.00  0.00    +0.000 A 
ATOM     20  C   UNL     1      -2.623  -0.314   0.745  0.00  0.00    +0.000 A 
ATOM     21  C   UNL     1      -1.545   0.265   0.132  0.00  0.00    +0.000 A 
ATOM     22  C   UNL     1      -0.396  -0.470  -0.022  0.00  0.00    +0.000 A 
BRANCH  20  23
ATOM     23  C   UNL     1      -3.872   0.461   0.920  0.00  0.00    +0.000 A 
ATOM     24  C   UNL     1      -4.085   1.743   0.525  0.00  0.00    +0.000 A 
ATOM     25  C   UNL     1      -5.283   2.288   0.766  0.00  0.00    +0.000 A 
ATOM     26  C   UNL     1      -5.694   3.587   0.437  0.00  0.00    +0.000 A 
ATOM     27  C   UNL     1      -6.929   4.034   0.728  0.00  0.00    +0.000 A 
ATOM     28  C   UNL     1      -7.874   3.281   1.355  0.00  0.00    +0.000 A 
ATOM     29  C   UNL     1      -7.498   1.984   1.696  0.00  0.00    +0.000 A 
ATOM     30  C   UNL     1      -6.211   1.509   1.396  0.00  0.00    +0.000 A 
ATOM     31  S   UNL     1      -5.362   0.038   1.626  0.00  0.00    +0.000 S 
ENDBRANCH  20  23
ENDBRANCH   3  17
TORSDOF 7
