REMARK  Name = 
REMARK  8 active torsions:
REMARK  status: ('A' for Active; 'I' for Inactive)
REMARK    1  A    between atoms: C_2  and  C_3
REMARK    2  A    between atoms: C_3  and  N_4
REMARK    3  A    between atoms: C_5  and  C_7
REMARK    4  A    between atoms: C_12  and  N_13
REMARK    5  A    between atoms: C_14  and  C_16
REMARK    6  A    between atoms: C_19  and  C_20
REMARK    7  A    between atoms: C_20  and  S_21
REMARK    8  A    between atoms: S_21  and  C_22
REMARK                            x       y       z     vdW  Elec       q    Type
REMARK                         _______ _______ _______ _____ _____    ______ ____
ROOT
ATOM      1  N   UNL     1      -1.617  -0.645   0.766  0.00  0.00    +0.000 NA
ATOM      2  C   UNL     1      -0.316  -1.145   0.885  0.00  0.00    +0.000 C 
ATOM      3  O   UNL     1      -0.153  -2.382   1.027  0.00  0.00    +0.000 OA
ENDROOT
BRANCH   1   9
ATOM      4  C   UNL     1      -4.029  -0.809   0.663  0.00  0.00    +0.000 A 
ATOM      5  C   UNL     1      -5.216  -1.529   0.684  0.00  0.00    +0.000 A 
ATOM      6  C   UNL     1      -5.197  -2.897   0.836  0.00  0.00    +0.000 A 
ATOM      7  C   UNL     1      -3.972  -3.514   0.965  0.00  0.00    +0.000 A 
ATOM      8  C   UNL     1      -2.772  -2.793   0.945  0.00  0.00    +0.000 A 
ATOM      9  C   UNL     1      -2.803  -1.424   0.792  0.00  0.00    +0.000 A 
BRANCH   4  11
ATOM     10  N   UNL     1      -5.295   1.343   0.365  0.00  0.00    +0.000 NA
ATOM     11  C   UNL     1      -4.070   0.626   0.503  0.00  0.00    +0.000 C 
ATOM     12  O   UNL     1      -3.011   1.313   0.479  0.00  0.00    +0.000 OA
BRANCH  10  13
ATOM     13  C   UNL     1      -5.325   2.784   0.204  0.00  0.00    +0.000 C 
BRANCH  13  15
ATOM     14  C   UNL     1      -7.424   2.620  -1.110  0.00  0.00    +0.000 C 
ATOM     15  C   UNL     1      -6.753   3.256   0.085  0.00  0.00    +0.000 C 
ENDBRANCH  13  15
ENDBRANCH  10  13
ENDBRANCH   4  11
ENDBRANCH   1   9
BRANCH   2  16
ATOM     16  C   UNL     1       0.881  -0.297   0.852  0.00  0.00    +0.000 A 
ATOM     17  C   UNL     1       2.143  -0.838   0.936  0.00  0.00    +0.000 A 
ATOM     18  C   UNL     1       3.296  -0.075   0.909  0.00  0.00    +0.000 A 
ATOM     19  C   UNL     1       3.192   1.289   0.793  0.00  0.00    +0.000 A 
ATOM     20  C   UNL     1       1.946   1.860   0.707  0.00  0.00    +0.000 A 
ATOM     21  C   UNL     1       0.784   1.082   0.735  0.00  0.00    +0.000 A 
BRANCH  19  22
ATOM     22  C   UNL     1       4.443   2.081   0.765  0.00  0.00    +0.000 C 
BRANCH  22  23
ATOM     23  S   UNL     1       5.078   2.333  -0.887  0.00  0.00    +0.000 S 
BRANCH  23  24
ATOM     24  C   UNL     1       5.610   0.772  -1.607  0.00  0.00    +0.000 A 
ATOM     25  C   UNL     1       6.125   0.821  -2.890  0.00  0.00    +0.000 A 
ATOM     26  C   UNL     1       6.553  -0.337  -3.504  0.00  0.00    +0.000 A 
ATOM     27  C   UNL     1       6.450  -1.522  -2.805  0.00  0.00    +0.000 A 
ATOM     28  C   UNL     1       5.941  -1.558  -1.540  0.00  0.00    +0.000 A 
ATOM     29  C   UNL     1       5.510  -0.415  -0.914  0.00  0.00    +0.000 A 
ENDBRANCH  23  24
ENDBRANCH  22  23
ENDBRANCH  19  22
ENDBRANCH   2  16
TORSDOF 8
