REMARK  Name = 
REMARK  8 active torsions:
REMARK  status: ('A' for Active; 'I' for Inactive)
REMARK    1  A    between atoms: C_2  and  C_3
REMARK    2  A    between atoms: C_2  and  C_27
REMARK    3  A    between atoms: C_3  and  N_4
REMARK    4  A    between atoms: C_7  and  C_8
REMARK    5  A    between atoms: C_8  and  C_9
REMARK    6  A    between atoms: C_9  and  C_10
REMARK    7  A    between atoms: C_10  and  C_11
REMARK    8  A    between atoms: C_17  and  N_18
REMARK                            x       y       z     vdW  Elec       q    Type
REMARK                         _______ _______ _______ _____ _____    ______ ____
ROOT
ATOM      1  C   UNL     1      -0.658  -1.045  -0.584  0.00  0.00    +0.000 C 
ENDROOT
BRANCH   1   5
ATOM      2  N   UNL     1       2.235   0.045  -0.636  0.00  0.00    +0.000 NA
ATOM      3  C   UNL     1       1.813  -0.946  -1.591  0.00  0.00    +0.000 C 
ATOM      4  C   UNL     1       1.468  -2.247  -0.885  0.00  0.00    +0.000 C 
ATOM      5  C   UNL     1       0.359  -1.963   0.114  0.00  0.00    +0.000 C 
ATOM      6  C   UNL     1       1.012  -1.038   1.158  0.00  0.00    +0.000 C 
ATOM      7  C   UNL     1       1.290   0.255   0.413  0.00  0.00    +0.000 C 
BRANCH   2   8
ATOM      8  C   UNL     1       3.570  -0.245  -0.176  0.00  0.00    +0.000 C 
BRANCH   8  10
ATOM      9  C   UNL     1       3.693   2.149  -0.222  0.00  0.00    +0.000 C 
ATOM     10  C   UNL     1       3.889   0.942   0.912  0.00  0.00    +0.000 C 
BRANCH  10  11
ATOM     11  C   UNL     1       5.448   0.907   0.784  0.00  0.00    +0.000 A 
ATOM     12  C   UNL     1       6.141  -0.123   0.282  0.00  0.00    +0.000 A 
ATOM     13  C   UNL     1       7.511  -0.060   0.217  0.00  0.00    +0.000 A 
ATOM     14  C   UNL     1       8.164   1.058   0.667  0.00  0.00    +0.000 A 
ATOM     15  C   UNL     1       7.486   2.134   1.188  0.00  0.00    +0.000 A 
ATOM     16  C   UNL     1       6.078   2.029   1.236  0.00  0.00    +0.000 A 
ENDBRANCH  10  11
ENDBRANCH   8  10
ENDBRANCH   2   8
ENDBRANCH   1   5
BRANCH   1  17
ATOM     17  C   UNL     1      -1.213  -1.730  -1.806  0.00  0.00    +0.000 C 
BRANCH  17  18
ATOM     18  C   UNL     1      -1.904  -2.995  -1.379  0.00  0.00    +0.000 C 
BRANCH  18  19
ATOM     19  C   UNL     1      -3.029  -2.764  -0.471  0.00  0.00    +0.000 A 
ATOM     20  C   UNL     1      -3.709  -3.777   0.206  0.00  0.00    +0.000 A 
ATOM     21  N   UNL     1      -4.654  -3.193   0.918  0.00  0.00    +0.000 NA
ATOM     22  C   UNL     1      -4.644  -1.853   0.756  0.00  0.00    +0.000 A 
ATOM     23  C   UNL     1      -5.437  -0.853   1.295  0.00  0.00    +0.000 A 
ATOM     24  C   UNL     1      -5.178   0.454   0.930  0.00  0.00    +0.000 A 
ATOM     25  C   UNL     1      -4.159   0.744   0.056  0.00  0.00    +0.000 A 
ATOM     26  C   UNL     1      -3.390  -0.266  -0.461  0.00  0.00    +0.000 A 
ATOM     27  C   UNL     1      -3.618  -1.577  -0.122  0.00  0.00    +0.000 A 
BRANCH  25  28
ATOM     28  N   UNL     1      -3.934   2.105  -0.280  0.00  0.00    +0.000 N 
ATOM     29  C   UNL     1      -4.536   3.190   0.181  0.00  0.00    +0.000 A 
ATOM     30  N   UNL     1      -4.001   4.285  -0.418  0.00  0.00    +0.000 NA
ATOM     31  N   UNL     1      -3.070   3.861  -1.246  0.00  0.00    +0.000 NA
ATOM     32  C   UNL     1      -3.025   2.518  -1.165  0.00  0.00    +0.000 A 
ENDBRANCH  25  28
ENDBRANCH  18  19
ENDBRANCH  17  18
ENDBRANCH   1  17
TORSDOF 8
