REMARK  Name = 
REMARK  9 active torsions:
REMARK  status: ('A' for Active; 'I' for Inactive)
REMARK    1  A    between atoms: C_2  and  C_3
REMARK    2  A    between atoms: C_3  and  C_4
REMARK    3  A    between atoms: C_4  and  C_5
REMARK    4  A    between atoms: C_8  and  N_9
REMARK    5  A    between atoms: C_10  and  C_12
REMARK    6  A    between atoms: C_12  and  O_13
REMARK    7  A    between atoms: O_13  and  C_14
REMARK    8  A    between atoms: C_14  and  C_16
REMARK    9  A    between atoms: C_19  and  C_20
REMARK                            x       y       z     vdW  Elec       q    Type
REMARK                         _______ _______ _______ _____ _____    ______ ____
ROOT
ATOM      1  O   UNL     1      -0.616  -0.569  -2.932  0.00  0.00    +0.000 OA
ENDROOT
BRANCH   1   2
ATOM      2  C   UNL     1      -0.924   0.273  -1.879  0.00  0.00    +0.000 C 
ATOM      3  O   UNL     1      -0.154   1.255  -1.681  0.00  0.00    +0.000 OA
BRANCH   2   4
ATOM      4  C   UNL     1      -2.088   0.076  -0.995  0.00  0.00    +0.000 A 
ATOM      5  C   UNL     1      -2.943  -0.984  -1.199  0.00  0.00    +0.000 A 
ATOM      6  C   UNL     1      -4.039  -1.198  -0.391  0.00  0.00    +0.000 A 
ATOM      7  C   UNL     1      -4.323  -0.346   0.666  0.00  0.00    +0.000 A 
ATOM      8  C   UNL     1      -3.445   0.701   0.836  0.00  0.00    +0.000 A 
ATOM      9  C   UNL     1      -2.348   0.932   0.044  0.00  0.00    +0.000 A 
BRANCH   7  10
ATOM     10  C   UNL     1      -5.473  -0.551   1.531  0.00  0.00    +0.000 A 
ATOM     11  C   UNL     1      -6.612  -1.108   1.025  0.00  0.00    +0.000 A 
ATOM     12  C   UNL     1      -7.693  -1.288   1.887  0.00  0.00    +0.000 A 
ATOM     13  C   UNL     1      -7.608  -0.912   3.215  0.00  0.00    +0.000 A 
ATOM     14  C   UNL     1      -6.451  -0.353   3.707  0.00  0.00    +0.000 A 
ATOM     15  C   UNL     1      -5.383  -0.179   2.839  0.00  0.00    +0.000 A 
ENDBRANCH   7  10
ENDBRANCH   2   4
ENDBRANCH   1   2
BRANCH   1  16
ATOM     16  C   UNL     1       0.509  -0.361  -3.770  0.00  0.00    +0.000 C 
BRANCH  16  18
ATOM     17  N   UNL     1       1.837  -0.589  -1.603  0.00  0.00    +0.000 NA
ATOM     18  C   UNL     1       1.777  -0.380  -3.015  0.00  0.00    +0.000 C 
ATOM     19  O   UNL     1       2.847  -0.203  -3.648  0.00  0.00    +0.000 OA
BRANCH  17  23
ATOM     20  C   UNL     1       5.602  -0.581   0.271  0.00  0.00    +0.000 A 
ATOM     21  C   UNL     1       5.530  -0.380  -1.101  0.00  0.00    +0.000 A 
ATOM     22  C   UNL     1       4.283  -0.385  -1.708  0.00  0.00    +0.000 A 
ATOM     23  C   UNL     1       3.135  -0.585  -0.969  0.00  0.00    +0.000 A 
ATOM     24  C   UNL     1       3.244  -0.782   0.395  0.00  0.00    +0.000 A 
ATOM     25  C   UNL     1       4.466  -0.782   1.022  0.00  0.00    +0.000 A 
BRANCH  20  26
ATOM     26  C   UNL     1       6.941  -0.576   0.925  0.00  0.00    +0.000 C 
BRANCH  26  27
ATOM     27  C   UNL     1       7.286   0.851   1.362  0.00  0.00    +0.000 C 
BRANCH  27  29
ATOM     28  C   UNL     1       6.451   2.675   2.829  0.00  0.00    +0.000 C 
ATOM     29  C   UNL     1       6.189   1.260   2.338  0.00  0.00    +0.000 C 
ENDBRANCH  27  29
ENDBRANCH  26  27
ENDBRANCH  20  26
ENDBRANCH  17  23
ENDBRANCH  16  18
ENDBRANCH   1  16
TORSDOF 9
