REMARK  Name = 
REMARK  7 active torsions:
REMARK  status: ('A' for Active; 'I' for Inactive)
REMARK    1  A    between atoms: C_2  and  C_3
REMARK    2  A    between atoms: C_6  and  N_7
REMARK    3  A    between atoms: N_7  and  C_8
REMARK    4  A    between atoms: C_9  and  S_10
REMARK    5  A    between atoms: S_10  and  C_11
REMARK    6  A    between atoms: N_19  and  C_20
REMARK    7  A    between atoms: C_23  and  C_24
REMARK                            x       y       z     vdW  Elec       q    Type
REMARK                         _______ _______ _______ _____ _____    ______ ____
ROOT
ATOM      1  C   UNL     1      -1.383  -0.112   0.824  0.00  0.00    +0.000 C 
ATOM      2  C   UNL     1      -0.976  -1.324   0.514  0.00  0.00    +0.000 C 
ATOM      3  C   UNL     1       0.454  -1.324   0.270  0.00  0.00    +0.000 C 
ATOM      4  O   UNL     1       1.169  -2.306  -0.046  0.00  0.00    +0.000 OA
ATOM      5  N   UNL     1       0.907   0.004   0.455  0.00  0.00    +0.000 N 
ATOM      6  C   UNL     1      -0.244   0.774   0.805  0.00  0.00    +0.000 C 
ATOM      7  O   UNL     1      -0.161   2.019   1.038  0.00  0.00    +0.000 OA
ENDROOT
BRANCH   5   8
ATOM      8  C   UNL     1       2.235   0.437   0.300  0.00  0.00    +0.000 A 
ATOM      9  C   UNL     1       3.262  -0.451   0.384  0.00  0.00    +0.000 A 
ATOM     10  C   UNL     1       4.587  -0.082   0.227  0.00  0.00    +0.000 A 
ATOM     11  C   UNL     1       4.869   1.225  -0.020  0.00  0.00    +0.000 A 
ATOM     12  C   UNL     1       3.817   2.139  -0.106  0.00  0.00    +0.000 A 
ATOM     13  C   UNL     1       2.512   1.770   0.049  0.00  0.00    +0.000 A 
BRANCH  11  14
ATOM     14  C   UNL     1       6.230   1.790  -0.220  0.00  0.00    +0.000 C 
ATOM     15  C   UNL     1       6.332   2.440  -1.599  0.00  0.00    +0.000 C 
ATOM     16  C   UNL     1       7.281   0.724  -0.046  0.00  0.00    +0.000 C 
ENDBRANCH  11  14
ENDBRANCH   5   8
BRANCH   1  17
ATOM     17  N   UNL     1      -2.719   0.285   1.132  0.00  0.00    +0.000 NA
BRANCH  17  21
ATOM     18  C   UNL     1      -4.460   3.953  -0.106  0.00  0.00    +0.000 A 
ATOM     19  C   UNL     1      -3.192   3.611  -0.530  0.00  0.00    +0.000 A 
ATOM     20  C   UNL     1      -2.617   2.415  -0.134  0.00  0.00    +0.000 A 
ATOM     21  C   UNL     1      -3.254   1.519   0.681  0.00  0.00    +0.000 A 
ATOM     22  C   UNL     1      -4.536   1.865   1.108  0.00  0.00    +0.000 A 
ATOM     23  C   UNL     1      -5.112   3.057   0.715  0.00  0.00    +0.000 A 
BRANCH  18  25
ATOM     24  C   UNL     1      -5.872   5.128  -1.792  0.00  0.00    +0.000 C 
ATOM     25  C   UNL     1      -5.089   5.249  -0.527  0.00  0.00    +0.000 C 
ENDBRANCH  18  25
ENDBRANCH  17  21
ENDBRANCH   1  17
BRANCH   2  26
ATOM     26  S   UNL     1      -2.004  -2.775   0.402  0.00  0.00    +0.000 S 
BRANCH  26  27
ATOM     27  C   UNL     1      -1.058  -4.226  -0.008  0.00  0.00    +0.000 A 
ATOM     28  C   UNL     1      -0.852  -4.532  -1.321  0.00  0.00    +0.000 A 
ATOM     29  C   UNL     1      -0.131  -5.649  -1.680  0.00  0.00    +0.000 A 
ATOM     30  C   UNL     1       0.385  -6.461  -0.709  0.00  0.00    +0.000 A 
ATOM     31  C   UNL     1       0.172  -6.142   0.608  0.00  0.00    +0.000 A 
ATOM     32  C   UNL     1      -0.553  -5.020   0.982  0.00  0.00    +0.000 A 
ENDBRANCH  26  27
ENDBRANCH   2  26
TORSDOF 7
