REMARK  Name = 
REMARK  6 active torsions:
REMARK  status: ('A' for Active; 'I' for Inactive)
REMARK    1  A    between atoms: C_5  and  S_6
REMARK    2  A    between atoms: S_6  and  C_7
REMARK    3  A    between atoms: C_8  and  N_9
REMARK    4  A    between atoms: N_9  and  C_10
REMARK    5  A    between atoms: N_20  and  C_21
REMARK    6  A    between atoms: C_21  and  C_22
REMARK                            x       y       z     vdW  Elec       q    Type
REMARK                         _______ _______ _______ _____ _____    ______ ____
ROOT
ATOM      1  C   UNL     1      -0.774  -0.093  -0.295  0.00  0.00    +0.000 C 
ATOM      2  C   UNL     1      -0.105   1.046  -0.197  0.00  0.00    +0.000 C 
ATOM      3  C   UNL     1       1.129   0.759   0.556  0.00  0.00    +0.000 C 
ATOM      4  O   UNL     1       2.007   1.609   0.839  0.00  0.00    +0.000 OA
ATOM      5  N   UNL     1       1.162  -0.612   0.904  0.00  0.00    +0.000 N 
ATOM      6  C   UNL     1      -0.025  -1.167   0.378  0.00  0.00    +0.000 C 
ATOM      7  O   UNL     1      -0.392  -2.362   0.462  0.00  0.00    +0.000 OA
ENDROOT
BRANCH   1   8
ATOM      8  S   UNL     1      -2.349  -0.264  -1.128  0.00  0.00    +0.000 S 
BRANCH   8  13
ATOM      9  C   UNL     1      -4.290  -5.998  -0.855  0.00  0.00    +0.000 C 
ATOM     10  C   UNL     1      -3.801  -4.598  -0.946  0.00  0.00    +0.000 A 
ATOM     11  C   UNL     1      -4.138  -3.699   0.032  0.00  0.00    +0.000 A 
ATOM     12  C   UNL     1      -3.714  -2.405  -0.007  0.00  0.00    +0.000 A 
ATOM     13  C   UNL     1      -2.917  -1.931  -1.042  0.00  0.00    +0.000 A 
ATOM     14  C   UNL     1      -2.587  -2.853  -2.019  0.00  0.00    +0.000 A 
ATOM     15  C   UNL     1      -3.010  -4.156  -1.985  0.00  0.00    +0.000 A 
ENDBRANCH   8  13
ENDBRANCH   1   8
BRANCH   2  16
ATOM     16  N   UNL     1      -0.513   2.304  -0.726  0.00  0.00    +0.000 NA
BRANCH  16  17
ATOM     17  C   UNL     1      -0.406   3.505   0.029  0.00  0.00    +0.000 A 
ATOM     18  C   UNL     1       0.091   3.549   1.305  0.00  0.00    +0.000 A 
ATOM     19  C   UNL     1       0.163   4.756   1.971  0.00  0.00    +0.000 A 
ATOM     20  C   UNL     1      -0.259   5.926   1.374  0.00  0.00    +0.000 A 
ATOM     21  C   UNL     1      -0.182   7.241   2.099  0.00  0.00    +0.000 C 
ATOM     22  C   UNL     1      -0.756   5.876   0.096  0.00  0.00    +0.000 A 
ATOM     23  C   UNL     1      -0.822   4.681  -0.552  0.00  0.00    +0.000 A 
ATOM     24  C   UNL     1      -1.362   4.655  -1.931  0.00  0.00    +0.000 C 
ENDBRANCH  16  17
ENDBRANCH   2  16
BRANCH   5  25
ATOM     25  C   UNL     1       2.177  -1.310   1.634  0.00  0.00    +0.000 C 
BRANCH  25  26
ATOM     26  C   UNL     1       3.240  -1.881   0.802  0.00  0.00    +0.000 A 
ATOM     27  C   UNL     1       4.371  -1.152   0.502  0.00  0.00    +0.000 A 
ATOM     28  C   UNL     1       5.392  -1.663  -0.281  0.00  0.00    +0.000 A 
ATOM     29  C   UNL     1       5.308  -2.928  -0.790  0.00  0.00    +0.000 A 
ATOM     30  C   UNL     1       4.188  -3.679  -0.507  0.00  0.00    +0.000 A 
ATOM     31  C   UNL     1       3.174  -3.155   0.279  0.00  0.00    +0.000 A 
ENDBRANCH  25  26
ENDBRANCH   5  25
TORSDOF 6
