REMARK  Name = 
REMARK  6 active torsions:
REMARK  status: ('A' for Active; 'I' for Inactive)
REMARK    1  A    between atoms: C_4  and  S_5
REMARK    2  A    between atoms: S_5  and  C_6
REMARK    3  A    between atoms: C_6  and  C_7
REMARK    4  A    between atoms: C_7  and  C_9
REMARK    5  A    between atoms: C_23  and  C_24
REMARK    6  A    between atoms: C_24  and  C_25
REMARK                            x       y       z     vdW  Elec       q    Type
REMARK                         _______ _______ _______ _____ _____    ______ ____
ROOT
ATOM      1  C   UNL     1       0.496  -2.547   1.469  0.00  0.00    +0.000 C 
ENDROOT
BRANCH   1   2
ATOM      2  C   UNL     1       1.357  -1.690   0.542  0.00  0.00    +0.000 C 
ATOM      3  O   UNL     1       0.794  -1.423  -0.515  0.00  0.00    +0.000 OA
BRANCH   2   4
ATOM      4  C   UNL     1       2.637  -1.317   0.973  0.00  0.00    +0.000 C 
ATOM      5  C   UNL     1       3.516  -0.599   0.341  0.00  0.00    +0.000 C 
ATOM      6  N   UNL     1       3.385  -0.022  -0.938  0.00  0.00    +0.000 N 
ATOM      7  C   UNL     1       2.230  -0.124  -1.825  0.00  0.00    +0.000 C 
ATOM      8  C   UNL     1       4.578   0.702  -1.268  0.00  0.00    +0.000 A 
ATOM      9  C   UNL     1       4.910   1.415  -2.375  0.00  0.00    +0.000 A 
ATOM     10  C   UNL     1       6.136   2.059  -2.502  0.00  0.00    +0.000 A 
ATOM     11  C   UNL     1       7.019   1.952  -1.455  0.00  0.00    +0.000 A 
ATOM     12  C   UNL     1       6.683   1.232  -0.336  0.00  0.00    +0.000 A 
ATOM     13  C   UNL     1       5.445   0.589  -0.224  0.00  0.00    +0.000 A 
ATOM     14  C   UNL     1       4.883  -0.227   0.861  0.00  0.00    +0.000 C 
ATOM     15  C   UNL     1       5.694  -1.476   1.128  0.00  0.00    +0.000 C 
ATOM     16  C   UNL     1       4.770   0.569   2.138  0.00  0.00    +0.000 C 
ENDBRANCH   2   4
ENDBRANCH   1   2
BRANCH   1  17
ATOM     17  S   UNL     1      -1.093  -2.918   0.752  0.00  0.00    +0.000 S 
BRANCH  17  21
ATOM     18  C   UNL     1      -3.198   1.414  -1.399  0.00  0.00    +0.000 C 
ATOM     19  C   UNL     1      -2.927   0.346  -0.398  0.00  0.00    +0.000 A 
ATOM     20  N   UNL     1      -2.082  -0.688  -0.537  0.00  0.00    +0.000 NA
ATOM     21  C   UNL     1      -2.089  -1.454   0.566  0.00  0.00    +0.000 A 
ATOM     22  N   UNL     1      -2.961  -0.873   1.402  0.00  0.00    +0.000 NA
ATOM     23  C   UNL     1      -3.494   0.227   0.850  0.00  0.00    +0.000 A 
BRANCH  23  24
ATOM     24  C   UNL     1      -4.489   1.183   1.382  0.00  0.00    +0.000 C 
BRANCH  24  25
ATOM     25  C   UNL     1      -5.801   0.890   0.721  0.00  0.00    +0.000 A 
ATOM     26  C   UNL     1      -6.174   1.490  -0.462  0.00  0.00    +0.000 A 
ATOM     27  C   UNL     1      -7.377   1.228  -1.078  0.00  0.00    +0.000 A 
ATOM     28  C   UNL     1      -8.270   0.333  -0.513  0.00  0.00    +0.000 A 
ATOM     29  C   UNL     1      -7.892  -0.266   0.673  0.00  0.00    +0.000 A 
ATOM     30  C   UNL     1      -6.690  -0.006   1.291  0.00  0.00    +0.000 A 
ENDBRANCH  24  25
ENDBRANCH  23  24
ENDBRANCH  17  21
ENDBRANCH   1  17
TORSDOF 6
