REMARK  Name = 
REMARK  7 active torsions:
REMARK  status: ('A' for Active; 'I' for Inactive)
REMARK    1  A    between atoms: C_2  and  C_3
REMARK    2  A    between atoms: C_3  and  N_5
REMARK    3  A    between atoms: C_6  and  C_8
REMARK    4  A    between atoms: N_11  and  C_12
REMARK    5  A    between atoms: C_12  and  C_13
REMARK    6  A    between atoms: C_13  and  C_14
REMARK    7  A    between atoms: C_17  and  O_18
REMARK                            x       y       z     vdW  Elec       q    Type
REMARK                         _______ _______ _______ _____ _____    ______ ____
ROOT
ATOM      1  C   UNL     1      -1.634   1.377   0.083  0.00  0.00    +0.000 A 
ATOM      2  C   UNL     1      -1.217   1.798  -1.155  0.00  0.00    +0.000 A 
ATOM      3  N   UNL     1      -1.575   3.034  -1.783  0.00  0.00    +0.000 NA
ATOM      4  N   UNL     1      -0.416   0.903  -1.733  0.00  0.00    +0.000 N 
ATOM      5  C   UNL     1      -0.291  -0.129  -0.879  0.00  0.00    +0.000 A 
ATOM      6  N   UNL     1       0.365  -1.302  -0.891  0.00  0.00    +0.000 NA
ATOM      7  C   UNL     1       0.307  -2.176   0.140  0.00  0.00    +0.000 A 
ATOM      8  C   UNL     1       1.008  -3.384   0.078  0.00  0.00    +0.000 A 
ATOM      9  C   UNL     1       0.938  -4.263   1.139  0.00  0.00    +0.000 A 
ATOM     10  C   UNL     1       0.179  -3.943   2.246  0.00  0.00    +0.000 A 
ATOM     11  C   UNL     1      -0.521  -2.764   2.335  0.00  0.00    +0.000 A 
ATOM     12  C   UNL     1      -0.437  -1.893   1.258  0.00  0.00    +0.000 A 
ATOM     13  N   UNL     1      -1.113  -0.705   1.291  0.00  0.00    +0.000 NA
ATOM     14  C   UNL     1      -1.037   0.144   0.252  0.00  0.00    +0.000 A 
ENDROOT
BRANCH   1  16
ATOM     15  N   UNL     1      -2.839   1.522   2.225  0.00  0.00    +0.000 NA
ATOM     16  C   UNL     1      -2.511   2.085   1.004  0.00  0.00    +0.000 C 
ATOM     17  O   UNL     1      -2.983   3.207   0.714  0.00  0.00    +0.000 OA
BRANCH  15  18
ATOM     18  C   UNL     1      -3.773   2.259   3.225  0.00  0.00    +0.000 C 
ATOM     19  C   UNL     1      -4.328   0.870   3.886  0.00  0.00    +0.000 C 
BRANCH  18  21
ATOM     20  C   UNL     1      -5.156   1.298   1.334  0.00  0.00    +0.000 C 
ATOM     21  C   UNL     1      -5.054   2.453   2.235  0.00  0.00    +0.000 C 
ENDBRANCH  18  21
ENDBRANCH  15  18
ENDBRANCH   1  16
BRANCH   4  22
ATOM     22  C   UNL     1       0.233   0.971  -3.056  0.00  0.00    +0.000 C 
BRANCH  22  23
ATOM     23  C   UNL     1       1.569   1.636  -3.007  0.00  0.00    +0.000 C 
BRANCH  23  24
ATOM     24  C   UNL     1       2.439   0.867  -2.082  0.00  0.00    +0.000 A 
ATOM     25  C   UNL     1       2.525   1.162  -0.735  0.00  0.00    +0.000 A 
ATOM     26  C   UNL     1       3.346   0.418   0.081  0.00  0.00    +0.000 A 
ATOM     27  C   UNL     1       4.112  -0.637  -0.379  0.00  0.00    +0.000 A 
ATOM     28  C   UNL     1       4.027  -0.933  -1.723  0.00  0.00    +0.000 A 
ATOM     29  C   UNL     1       3.200  -0.185  -2.548  0.00  0.00    +0.000 A 
BRANCH  27  30
ATOM     30  O   UNL     1       4.891  -1.318   0.476  0.00  0.00    +0.000 OA
ATOM     31  C   UNL     1       5.743  -2.373   0.374  0.00  0.00    +0.000 C 
ENDBRANCH  27  30
ENDBRANCH  23  24
ENDBRANCH  22  23
ENDBRANCH   4  22
TORSDOF 7
