REMARK  Name = 
REMARK  6 active torsions:
REMARK  status: ('A' for Active; 'I' for Inactive)
REMARK    1  A    between atoms: O_2  and  C_3
REMARK    2  A    between atoms: C_5  and  C_6
REMARK    3  A    between atoms: C_16  and  O_17
REMARK    4  A    between atoms: O_17  and  C_18
REMARK    5  A    between atoms: C_18  and  C_19
REMARK    6  A    between atoms: C_27  and  O_28
REMARK                            x       y       z     vdW  Elec       q    Type
REMARK                         _______ _______ _______ _____ _____    ______ ____
ROOT
ATOM      1  C   UNL     1      -2.677   0.663   1.751  0.00  0.00    +0.000 C 
ATOM      2  N   UNL     1      -2.325  -0.691   2.443  0.00  0.00    +0.000 NA
ATOM      3  C   UNL     1      -1.377  -0.216   3.470  0.00  0.00    +0.000 C 
ATOM      4  C   UNL     1      -0.040   0.103   2.797  0.00  0.00    +0.000 C 
ATOM      5  C   UNL     1      -0.234   0.431   1.381  0.00  0.00    +0.000 A 
ATOM      6  C   UNL     1      -1.443   0.707   0.802  0.00  0.00    +0.000 A 
ATOM      7  N   UNL     1      -1.299   0.964  -0.488  0.00  0.00    +0.000 NA
ATOM      8  C   UNL     1       0.027   0.870  -0.824  0.00  0.00    +0.000 A 
ATOM      9  C   UNL     1       0.747   1.029  -1.986  0.00  0.00    +0.000 A 
ATOM     10  C   UNL     1       2.127   0.858  -1.993  0.00  0.00    +0.000 A 
ATOM     11  C   UNL     1       2.797   0.529  -0.846  0.00  0.00    +0.000 A 
ATOM     12  C   UNL     1       2.061   0.374   0.308  0.00  0.00    +0.000 A 
ATOM     13  C   UNL     1       0.701   0.532   0.362  0.00  0.00    +0.000 A 
ENDROOT
BRANCH   1  16
ATOM     14  C   UNL     1      -5.730   0.455  -0.478  0.00  0.00    +0.000 A 
ATOM     15  C   UNL     1      -4.770   0.904   0.383  0.00  0.00    +0.000 A 
ATOM     16  C   UNL     1      -3.751   0.053   0.745  0.00  0.00    +0.000 A 
ATOM     17  C   UNL     1      -3.672  -1.191   0.283  0.00  0.00    +0.000 A 
ATOM     18  C   UNL     1      -4.655  -1.622  -0.587  0.00  0.00    +0.000 A 
ATOM     19  C   UNL     1      -5.702  -0.825  -0.990  0.00  0.00    +0.000 A 
ATOM     20  C   UNL     1      -6.764  -1.254  -1.914  0.00  0.00    +0.000 C 
BRANCH  14  22
ATOM     21  C   UNL     1      -6.840   2.636  -0.353  0.00  0.00    +0.000 C 
ATOM     22  O   UNL     1      -6.754   1.317  -0.839  0.00  0.00    +0.000 OA
ENDBRANCH  14  22
BRANCH  17  23
ATOM     23  O   UNL     1      -2.620  -2.022   0.677  0.00  0.00    +0.000 OA
ATOM     24  C   UNL     1      -2.616  -3.324   0.140  0.00  0.00    +0.000 C 
ENDBRANCH  17  23
ENDBRANCH   1  16
BRANCH  11  25
ATOM     25  O   UNL     1       4.158   0.346  -0.781  0.00  0.00    +0.000 OA
BRANCH  25  26
ATOM     26  C   UNL     1       4.842   0.008   0.398  0.00  0.00    +0.000 C 
BRANCH  26  27
ATOM     27  C   UNL     1       6.297  -0.116   0.130  0.00  0.00    +0.000 A 
ATOM     28  C   UNL     1       6.753  -1.377  -0.233  0.00  0.00    +0.000 A 
ATOM     29  C   UNL     1       8.119  -1.478  -0.481  0.00  0.00    +0.000 A 
ATOM     30  C   UNL     1       8.983  -0.438  -0.386  0.00  0.00    +0.000 A 
ATOM     31  C   UNL     1       8.495   0.800  -0.023  0.00  0.00    +0.000 A 
ATOM     32  C   UNL     1       7.160   0.972   0.236  0.00  0.00    +0.000 A 
ENDBRANCH  26  27
ENDBRANCH  25  26
ENDBRANCH  11  25
TORSDOF 6
