REMARK  Name = 
REMARK  9 active torsions:
REMARK  status: ('A' for Active; 'I' for Inactive)
REMARK    1  A    between atoms: C_2  and  O_5
REMARK    2  A    between atoms: O_5  and  C_6
REMARK    3  A    between atoms: N_8  and  C_9
REMARK    4  A    between atoms: C_9  and  C_10
REMARK    5  A    between atoms: C_9  and  C_20
REMARK    6  A    between atoms: C_10  and  C_11
REMARK    7  A    between atoms: C_20  and  O_22
REMARK    8  A    between atoms: O_22  and  C_23
REMARK    9  A    between atoms: C_23  and  C_24
REMARK                            x       y       z     vdW  Elec       q    Type
REMARK                         _______ _______ _______ _____ _____    ______ ____
ROOT
ATOM      1  C   UNL     1       0.851  -1.065   1.660  0.00  0.00    +0.000 C 
ENDROOT
BRANCH   1   4
ATOM      2  C   UNL     1      -0.993   0.678   1.401  0.00  0.00    +0.000 C 
ATOM      3  O   UNL     1      -0.737   0.870   0.203  0.00  0.00    +0.000 OA
ATOM      4  N   UNL     1      -0.277  -0.235   2.162  0.00  0.00    +0.000 NA
BRANCH   2   5
ATOM      5  O   UNL     1      -2.046   1.441   1.923  0.00  0.00    +0.000 OA
BRANCH   5   7
ATOM      6  C   UNL     1      -3.808   3.035   1.908  0.00  0.00    +0.000 C 
ATOM      7  C   UNL     1      -2.733   2.353   1.091  0.00  0.00    +0.000 C 
ATOM      8  C   UNL     1      -1.777   3.397   0.531  0.00  0.00    +0.000 C 
ATOM      9  C   UNL     1      -3.346   1.597  -0.086  0.00  0.00    +0.000 C 
ENDBRANCH   5   7
ENDBRANCH   2   5
ENDBRANCH   1   4
BRANCH   1  10
ATOM     10  C   UNL     1       1.505  -0.227   0.556  0.00  0.00    +0.000 C 
ATOM     11  O   UNL     1       1.621   0.973   0.792  0.00  0.00    +0.000 OA
BRANCH  10  12
ATOM     12  O   UNL     1       1.938  -0.757  -0.618  0.00  0.00    +0.000 OA
BRANCH  12  13
ATOM     13  C   UNL     1       2.542   0.006  -1.637  0.00  0.00    +0.000 C 
BRANCH  13  14
ATOM     14  C   UNL     1       3.787   0.675  -1.163  0.00  0.00    +0.000 A 
ATOM     15  C   UNL     1       3.775   1.951  -0.641  0.00  0.00    +0.000 A 
ATOM     16  C   UNL     1       4.954   2.532  -0.213  0.00  0.00    +0.000 A 
ATOM     17  C   UNL     1       6.155   1.833  -0.309  0.00  0.00    +0.000 A 
ATOM     18  C   UNL     1       6.162   0.556  -0.833  0.00  0.00    +0.000 A 
ATOM     19  C   UNL     1       4.971  -0.022  -1.261  0.00  0.00    +0.000 A 
ENDBRANCH  13  14
ENDBRANCH  12  13
ENDBRANCH  10  12
ENDBRANCH   1  10
BRANCH   1  20
ATOM     20  C   UNL     1       0.268  -2.295   0.917  0.00  0.00    +0.000 C 
BRANCH  20  21
ATOM     21  C   UNL     1      -0.599  -2.148  -0.186  0.00  0.00    +0.000 A 
ATOM     22  C   UNL     1      -0.386  -2.074  -1.571  0.00  0.00    +0.000 A 
ATOM     23  N   UNL     1      -1.556  -1.904  -2.196  0.00  0.00    +0.000 NA
ATOM     24  C   UNL     1      -2.566  -1.859  -1.312  0.00  0.00    +0.000 A 
ATOM     25  C   UNL     1      -3.942  -1.711  -1.484  0.00  0.00    +0.000 A 
ATOM     26  C   UNL     1      -4.743  -1.718  -0.364  0.00  0.00    +0.000 A 
ATOM     27  C   UNL     1      -4.185  -1.868   0.889  0.00  0.00    +0.000 A 
ATOM     28  C   UNL     1      -2.842  -2.008   1.011  0.00  0.00    +0.000 A 
ATOM     29  C   UNL     1      -1.993  -2.006  -0.089  0.00  0.00    +0.000 A 
ENDBRANCH  20  21
ENDBRANCH   1  20
TORSDOF 9
