REMARK  Name = 
REMARK  7 active torsions:
REMARK  status: ('A' for Active; 'I' for Inactive)
REMARK    1  A    between atoms: O_2  and  C_3
REMARK    2  A    between atoms: C_8  and  N_9
REMARK    3  A    between atoms: N_9  and  C_10
REMARK    4  A    between atoms: C_11  and  S_12
REMARK    5  A    between atoms: S_12  and  C_13
REMARK    6  A    between atoms: N_22  and  C_23
REMARK    7  A    between atoms: C_26  and  C_27
REMARK                            x       y       z     vdW  Elec       q    Type
REMARK                         _______ _______ _______ _____ _____    ______ ____
ROOT
ATOM      1  C   UNL     1      -0.396  -1.330  -0.862  0.00  0.00    +0.000 C 
ATOM      2  C   UNL     1      -0.776  -0.069  -0.578  0.00  0.00    +0.000 C 
ATOM      3  C   UNL     1       0.408   0.680  -0.202  0.00  0.00    +0.000 C 
ATOM      4  O   UNL     1       0.544   1.881   0.142  0.00  0.00    +0.000 OA
ATOM      5  N   UNL     1       1.549  -0.197  -0.270  0.00  0.00    +0.000 N 
ATOM      6  C   UNL     1       1.024  -1.437  -0.682  0.00  0.00    +0.000 C 
ATOM      7  O   UNL     1       1.683  -2.524  -0.878  0.00  0.00    +0.000 OA
ENDROOT
BRANCH   5   8
ATOM      8  C   UNL     1       2.890   0.153   0.022  0.00  0.00    +0.000 A 
ATOM      9  C   UNL     1       3.178   1.145   0.937  0.00  0.00    +0.000 A 
ATOM     10  C   UNL     1       4.498   1.489   1.226  0.00  0.00    +0.000 A 
ATOM     11  C   UNL     1       5.553   0.852   0.611  0.00  0.00    +0.000 A 
ATOM     12  C   UNL     1       5.263  -0.141  -0.303  0.00  0.00    +0.000 A 
ATOM     13  C   UNL     1       3.950  -0.473  -0.582  0.00  0.00    +0.000 A 
BRANCH  11  14
ATOM     14  C   UNL     1       6.977   1.222   0.923  0.00  0.00    +0.000 C 
ATOM     15  C   UNL     1       7.665   1.772  -0.310  0.00  0.00    +0.000 C 
ATOM     16  C   UNL     1       7.726   0.031   1.477  0.00  0.00    +0.000 C 
ENDBRANCH  11  14
ENDBRANCH   5   8
BRANCH   1  17
ATOM     17  N   UNL     1      -1.333  -2.345  -1.274  0.00  0.00    +0.000 NA
BRANCH  17  23
ATOM     18  C   UNL     1      -3.236  -3.745  -0.613  0.00  0.00    +0.000 A 
ATOM     19  C   UNL     1      -4.164  -4.144   0.351  0.00  0.00    +0.000 A 
ATOM     20  C   UNL     1      -4.192  -3.615   1.606  0.00  0.00    +0.000 A 
ATOM     21  C   UNL     1      -3.256  -2.639   1.928  0.00  0.00    +0.000 A 
ATOM     22  C   UNL     1      -2.345  -2.252   0.971  0.00  0.00    +0.000 A 
ATOM     23  C   UNL     1      -2.305  -2.779  -0.300  0.00  0.00    +0.000 A 
BRANCH  18  25
ATOM     24  C   UNL     1      -4.139  -5.288  -2.287  0.00  0.00    +0.000 C 
ATOM     25  O   UNL     1      -3.217  -4.292  -1.887  0.00  0.00    +0.000 OA
ENDBRANCH  18  25
ENDBRANCH  17  23
ENDBRANCH   1  17
BRANCH   2  26
ATOM     26  S   UNL     1      -2.452   0.501  -0.671  0.00  0.00    +0.000 S 
BRANCH  26  27
ATOM     27  C   UNL     1      -2.716   2.187  -0.260  0.00  0.00    +0.000 A 
ATOM     28  C   UNL     1      -1.723   3.035   0.110  0.00  0.00    +0.000 A 
ATOM     29  C   UNL     1      -1.893   4.348   0.435  0.00  0.00    +0.000 A 
ATOM     30  C   UNL     1      -3.158   4.884   0.395  0.00  0.00    +0.000 A 
ATOM     31  C   UNL     1      -3.401   6.299   0.737  0.00  0.00    +0.000 C 
ATOM     32  C   UNL     1      -4.199   4.054   0.023  0.00  0.00    +0.000 A 
ATOM     33  C   UNL     1      -4.007   2.737  -0.300  0.00  0.00    +0.000 A 
ENDBRANCH  26  27
ENDBRANCH   2  26
TORSDOF 7
