REMARK  Name = 
REMARK  9 active torsions:
REMARK  status: ('A' for Active; 'I' for Inactive)
REMARK    1  A    between atoms: O_2  and  C_3
REMARK    2  A    between atoms: C_6  and  C_7
REMARK    3  A    between atoms: N_9  and  C_10
REMARK    4  A    between atoms: C_10  and  C_11
REMARK    5  A    between atoms: C_10  and  C_28
REMARK    6  A    between atoms: N_13  and  C_14
REMARK    7  A    between atoms: C_17  and  O_18
REMARK    8  A    between atoms: O_18  and  C_19
REMARK    9  A    between atoms: C_19  and  C_20
REMARK                            x       y       z     vdW  Elec       q    Type
REMARK                         _______ _______ _______ _____ _____    ______ ____
ROOT
ATOM      1  C   UNL     1      -0.540  -1.302  -0.532  0.00  0.00    +0.000 C 
ATOM      2  O   UNL     1      -0.980  -0.513   0.312  0.00  0.00    +0.000 OA
ATOM      3  N   UNL     1       0.828  -1.607  -0.607  0.00  0.00    +0.000 NA
ENDROOT
BRANCH   3   4
ATOM      4  C   UNL     1       1.711  -0.982   0.322  0.00  0.00    +0.000 A 
ATOM      5  C   UNL     1       1.312  -0.084   1.285  0.00  0.00    +0.000 A 
ATOM      6  C   UNL     1       2.170   0.518   2.183  0.00  0.00    +0.000 A 
ATOM      7  C   UNL     1       3.507   0.193   2.102  0.00  0.00    +0.000 A 
ATOM      8  C   UNL     1       3.966  -0.701   1.157  0.00  0.00    +0.000 A 
ATOM      9  C   UNL     1       3.056  -1.284   0.269  0.00  0.00    +0.000 A 
BRANCH   7  10
ATOM     10  O   UNL     1       4.393   0.772   2.978  0.00  0.00    +0.000 OA
BRANCH  10  11
ATOM     11  C   UNL     1       5.776   0.554   3.033  0.00  0.00    +0.000 C 
BRANCH  11  12
ATOM     12  C   UNL     1       6.513   0.892   1.818  0.00  0.00    +0.000 A 
ATOM     13  C   UNL     1       6.975   2.169   1.610  0.00  0.00    +0.000 A 
ATOM     14  C   UNL     1       7.676   2.488   0.459  0.00  0.00    +0.000 A 
ATOM     15  C   UNL     1       7.896   1.506  -0.460  0.00  0.00    +0.000 A 
ATOM     16  C   UNL     1       7.448   0.202  -0.291  0.00  0.00    +0.000 A 
ATOM     17  C   UNL     1       6.761  -0.052   0.867  0.00  0.00    +0.000 A 
ENDBRANCH  11  12
ENDBRANCH  10  11
ENDBRANCH   7  10
ENDBRANCH   3   4
BRANCH   1  18
ATOM     18  C   UNL     1      -1.537  -1.989  -1.559  0.00  0.00    +0.000 C 
BRANCH  18  21
ATOM     19  C   UNL     1      -3.558  -0.508  -1.921  0.00  0.00    +0.000 C 
ATOM     20  O   UNL     1      -3.053  -0.390  -3.073  0.00  0.00    +0.000 OA
ATOM     21  N   UNL     1      -2.843  -1.329  -1.035  0.00  0.00    +0.000 NA
BRANCH  19  25
ATOM     22  C   UNL     1      -7.204   1.527  -0.966  0.00  0.00    +0.000 A 
ATOM     23  C   UNL     1      -6.627   1.652  -2.208  0.00  0.00    +0.000 A 
ATOM     24  C   UNL     1      -5.446   0.999  -2.532  0.00  0.00    +0.000 A 
ATOM     25  C   UNL     1      -4.788   0.193  -1.632  0.00  0.00    +0.000 A 
ATOM     26  C   UNL     1      -5.381   0.079  -0.391  0.00  0.00    +0.000 A 
ATOM     27  C   UNL     1      -6.552   0.723  -0.060  0.00  0.00    +0.000 A 
BRANCH  22  29
ATOM     28  C   UNL     1      -9.013   2.087   0.604  0.00  0.00    +0.000 C 
ATOM     29  O   UNL     1      -8.398   2.188  -0.640  0.00  0.00    +0.000 OA
ENDBRANCH  22  29
ENDBRANCH  19  25
ENDBRANCH  18  21
BRANCH  18  30
ATOM     30  C   UNL     1      -1.766  -3.419  -0.800  0.00  0.00    +0.000 C 
ATOM     31  C   UNL     1      -1.823  -2.967   0.643  0.00  0.00    +0.000 C 
ATOM     32  C   UNL     1      -0.479  -4.188  -0.934  0.00  0.00    +0.000 C 
ENDBRANCH  18  30
ENDBRANCH   1  18
TORSDOF 9
