REMARK  Name = 
REMARK  8 active torsions:
REMARK  status: ('A' for Active; 'I' for Inactive)
REMARK    1  A    between atoms: C_3  and  C_4
REMARK    2  A    between atoms: N_6  and  C_7
REMARK    3  A    between atoms: C_7  and  C_9
REMARK    4  A    between atoms: C_14  and  O_15
REMARK    5  A    between atoms: O_15  and  C_16
REMARK    6  A    between atoms: C_16  and  C_17
REMARK    7  A    between atoms: N_26  and  C_27
REMARK    8  A    between atoms: C_27  and  C_28
REMARK                            x       y       z     vdW  Elec       q    Type
REMARK                         _______ _______ _______ _____ _____    ______ ____
ROOT
ATOM      1  C   UNL     1      -4.084  -0.379   0.452  0.00  0.00    +0.000 C 
ATOM      2  C   UNL     1      -2.616  -0.437   0.515  0.00  0.00    +0.000 A 
ATOM      3  C   UNL     1      -1.758   0.565   0.051  0.00  0.00    +0.000 A 
ATOM      4  C   UNL     1      -0.473   0.139   0.286  0.00  0.00    +0.000 A 
ATOM      5  C   UNL     1       0.754   0.650   0.053  0.00  0.00    +0.000 A 
ATOM      6  C   UNL     1       1.956   0.026   0.365  0.00  0.00    +0.000 A 
ATOM      7  C   UNL     1       1.810  -1.251   0.980  0.00  0.00    +0.000 A 
ATOM      8  C   UNL     1       0.601  -1.786   1.226  0.00  0.00    +0.000 A 
ATOM      9  C   UNL     1      -0.544  -1.117   0.892  0.00  0.00    +0.000 A 
ATOM     10  N   UNL     1      -1.851  -1.423   1.010  0.00  0.00    +0.000 N 
ENDROOT
BRANCH   3  11
ATOM     11  C   UNL     1      -2.160   1.818  -0.577  0.00  0.00    +0.000 C 
ATOM     12  O   UNL     1      -1.238   2.607  -0.910  0.00  0.00    +0.000 OA
ATOM     13  N   UNL     1      -3.517   2.158  -0.814  0.00  0.00    +0.000 NA
BRANCH  13  14
ATOM     14  C   UNL     1      -3.610   3.566  -1.512  0.00  0.00    +0.000 C 
ATOM     15  C   UNL     1      -5.244   3.361  -1.854  0.00  0.00    +0.000 C 
BRANCH  14  16
ATOM     16  C   UNL     1      -3.945   4.439  -0.151  0.00  0.00    +0.000 C 
ATOM     17  C   UNL     1      -4.038   5.838  -0.796  0.00  0.00    +0.000 C 
ATOM     18  C   UNL     1      -2.704   4.497   0.668  0.00  0.00    +0.000 C 
ENDBRANCH  14  16
ENDBRANCH  13  14
ENDBRANCH   3  11
BRANCH   6  19
ATOM     19  O   UNL     1       3.098   0.523   0.138  0.00  0.00    +0.000 OA
BRANCH  19  20
ATOM     20  C   UNL     1       4.091   1.261  -0.200  0.00  0.00    +0.000 C 
BRANCH  20  21
ATOM     21  C   UNL     1       5.407   0.662   0.065  0.00  0.00    +0.000 A 
ATOM     22  C   UNL     1       6.001  -0.129  -0.912  0.00  0.00    +0.000 A 
ATOM     23  C   UNL     1       7.226  -0.706  -0.674  0.00  0.00    +0.000 A 
ATOM     24  C   UNL     1       7.867  -0.513   0.502  0.00  0.00    +0.000 A 
ATOM     25  C   UNL     1       7.279   0.279   1.489  0.00  0.00    +0.000 A 
ATOM     26  C   UNL     1       6.055   0.847   1.236  0.00  0.00    +0.000 A 
ENDBRANCH  20  21
ENDBRANCH  19  20
ENDBRANCH   6  19
BRANCH  10  27
ATOM     27  C   UNL     1      -2.305  -2.657   1.611  0.00  0.00    +0.000 C 
BRANCH  27  28
ATOM     28  C   UNL     1      -2.397  -3.729   0.580  0.00  0.00    +0.000 A 
ATOM     29  C   UNL     1      -3.463  -4.071  -0.203  0.00  0.00    +0.000 A 
ATOM     30  C   UNL     1      -3.059  -5.119  -0.994  0.00  0.00    +0.000 A 
ATOM     31  C   UNL     1      -1.725  -5.389  -0.659  0.00  0.00    +0.000 A 
ATOM     32  O   UNL     1      -1.416  -4.528   0.273  0.00  0.00    +0.000 OA
ENDBRANCH  27  28
ENDBRANCH  10  27
TORSDOF 8
