REMARK  Name = 
REMARK  7 active torsions:
REMARK  status: ('A' for Active; 'I' for Inactive)
REMARK    1  A    between atoms: C_2  and  C_3
REMARK    2  A    between atoms: C_8  and  S_9
REMARK    3  A    between atoms: S_9  and  C_10
REMARK    4  A    between atoms: C_10  and  C_11
REMARK    5  A    between atoms: N_13  and  C_14
REMARK    6  A    between atoms: C_19  and  O_20
REMARK    7  A    between atoms: C_23  and  C_24
REMARK                            x       y       z     vdW  Elec       q    Type
REMARK                         _______ _______ _______ _____ _____    ______ ____
ROOT
ATOM      1  C   UNL     1      -1.997  -2.434  -1.816  0.00  0.00    +0.000 A 
ATOM      2  C   UNL     1      -0.958  -3.325  -1.814  0.00  0.00    +0.000 A 
ATOM      3  C   UNL     1       0.076  -3.173  -0.881  0.00  0.00    +0.000 A 
ATOM      4  C   UNL     1       0.078  -2.154   0.036  0.00  0.00    +0.000 A 
ATOM      5  C   UNL     1      -0.946  -1.254   0.054  0.00  0.00    +0.000 A 
ATOM      6  C   UNL     1      -0.994  -0.224   0.964  0.00  0.00    +0.000 A 
ATOM      7  N   UNL     1      -2.083   0.592   0.876  0.00  0.00    +0.000 NA
ATOM      8  C   UNL     1      -3.061   0.457   0.003  0.00  0.00    +0.000 A 
ATOM      9  N   UNL     1      -3.009  -0.557  -0.888  0.00  0.00    +0.000 NA
ATOM     10  C   UNL     1      -1.980  -1.403  -0.876  0.00  0.00    +0.000 A 
ENDROOT
BRANCH   8  11
ATOM     11  C   UNL     1      -4.206   1.383  -0.026  0.00  0.00    +0.000 A 
ATOM     12  C   UNL     1      -4.200   2.449   0.834  0.00  0.00    +0.000 A 
ATOM     13  C   UNL     1      -5.278   3.340   0.840  0.00  0.00    +0.000 A 
ATOM     14  C   UNL     1      -6.341   3.143  -0.018  0.00  0.00    +0.000 A 
ATOM     15  C   UNL     1      -6.366   2.091  -0.878  0.00  0.00    +0.000 A 
ATOM     16  C   UNL     1      -5.274   1.221  -0.859  0.00  0.00    +0.000 A 
ENDBRANCH   8  11
BRANCH   1  18
ATOM     17  C   UNL     1      -4.324  -3.059  -2.064  0.00  0.00    +0.000 C 
ATOM     18  C   UNL     1      -3.107  -2.536  -2.785  0.00  0.00    +0.000 C 
ENDBRANCH   1  18
BRANCH   6  19
ATOM     19  S   UNL     1       0.227   0.028   2.196  0.00  0.00    +0.000 S 
BRANCH  19  20
ATOM     20  C   UNL     1       1.597  -1.046   2.211  0.00  0.00    +0.000 C 
BRANCH  20  21
ATOM     21  C   UNL     1       2.683  -0.906   1.265  0.00  0.00    +0.000 C 
ATOM     22  O   UNL     1       3.099  -1.891   0.608  0.00  0.00    +0.000 OA
ATOM     23  N   UNL     1       3.365   0.340   1.015  0.00  0.00    +0.000 NA
BRANCH  23  24
ATOM     24  C   UNL     1       4.424   0.341   0.075  0.00  0.00    +0.000 A 
ATOM     25  C   UNL     1       4.759  -0.768  -0.651  0.00  0.00    +0.000 A 
ATOM     26  C   UNL     1       5.800  -0.695  -1.549  0.00  0.00    +0.000 A 
ATOM     27  C   UNL     1       6.508   0.469  -1.730  0.00  0.00    +0.000 A 
ATOM     28  C   UNL     1       6.145   1.568  -0.984  0.00  0.00    +0.000 A 
ATOM     29  C   UNL     1       5.114   1.522  -0.083  0.00  0.00    +0.000 A 
BRANCH  29  30
ATOM     30  O   UNL     1       4.756   2.658   0.678  0.00  0.00    +0.000 OA
ATOM     31  C   UNL     1       5.492   3.824   0.474  0.00  0.00    +0.000 C 
ENDBRANCH  29  30
ENDBRANCH  23  24
ENDBRANCH  20  21
ENDBRANCH  19  20
ENDBRANCH   6  19
TORSDOF 7
