REMARK  Name = 
REMARK  8 active torsions:
REMARK  status: ('A' for Active; 'I' for Inactive)
REMARK    1  A    between atoms: C_2  and  O_3
REMARK    2  A    between atoms: O_3  and  C_4
REMARK    3  A    between atoms: C_7  and  N_8
REMARK    4  A    between atoms: C_11  and  N_12
REMARK    5  A    between atoms: N_12  and  C_13
REMARK    6  A    between atoms: C_18  and  C_19
REMARK    7  A    between atoms: C_21  and  S_22
REMARK    8  A    between atoms: S_22  and  C_23
REMARK                            x       y       z     vdW  Elec       q    Type
REMARK                         _______ _______ _______ _____ _____    ______ ____
ROOT
ATOM      1  N   UNL     1       1.230  -0.040  -0.613  0.00  0.00    +0.000 N 
ATOM      2  C   UNL     1       0.521  -1.249  -0.863  0.00  0.00    +0.000 C 
ATOM      3  O   UNL     1       0.997  -2.408  -0.992  0.00  0.00    +0.000 OA
ATOM      4  C   UNL     1      -0.907  -0.977  -0.959  0.00  0.00    +0.000 C 
ATOM      5  C   UNL     1      -1.072   0.321  -0.779  0.00  0.00    +0.000 C 
ATOM      6  C   UNL     1       0.220   0.969  -0.558  0.00  0.00    +0.000 C 
ATOM      7  O   UNL     1       0.417   2.188  -0.355  0.00  0.00    +0.000 OA
ENDROOT
BRANCH   1  11
ATOM      8  C   UNL     1       5.429   0.436  -0.103  0.00  0.00    +0.000 A 
ATOM      9  C   UNL     1       4.531   0.929   0.820  0.00  0.00    +0.000 A 
ATOM     10  C   UNL     1       3.171   0.773   0.653  0.00  0.00    +0.000 A 
ATOM     11  C   UNL     1       2.649   0.114  -0.452  0.00  0.00    +0.000 A 
ATOM     12  C   UNL     1       3.557  -0.373  -1.368  0.00  0.00    +0.000 A 
ATOM     13  C   UNL     1       4.916  -0.218  -1.201  0.00  0.00    +0.000 A 
BRANCH   8  14
ATOM     14  O   UNL     1       6.801   0.573   0.030  0.00  0.00    +0.000 OA
BRANCH  14  16
ATOM     15  C   UNL     1       6.845   0.575   2.444  0.00  0.00    +0.000 C 
ATOM     16  C   UNL     1       7.272   1.254   1.179  0.00  0.00    +0.000 C 
ENDBRANCH  14  16
ENDBRANCH   8  14
ENDBRANCH   1  11
BRANCH   4  17
ATOM     17  N   UNL     1      -1.967  -1.902  -1.198  0.00  0.00    +0.000 NA
BRANCH  17  18
ATOM     18  C   UNL     1      -2.624  -2.592  -0.152  0.00  0.00    +0.000 A 
ATOM     19  C   UNL     1      -2.229  -2.367   1.145  0.00  0.00    +0.000 A 
ATOM     20  C   UNL     1      -2.815  -2.997   2.222  0.00  0.00    +0.000 A 
ATOM     21  C   UNL     1      -3.837  -3.882   1.936  0.00  0.00    +0.000 A 
ATOM     22  C   UNL     1      -4.240  -4.116   0.660  0.00  0.00    +0.000 A 
ATOM     23  C   UNL     1      -3.628  -3.464  -0.408  0.00  0.00    +0.000 A 
BRANCH  23  24
ATOM     24  C   UNL     1      -4.098  -3.749  -1.784  0.00  0.00    +0.000 C 
ATOM     25  C   UNL     1      -5.224  -4.760  -1.756  0.00  0.00    +0.000 C 
ENDBRANCH  23  24
ENDBRANCH  17  18
ENDBRANCH   4  17
BRANCH   5  26
ATOM     26  S   UNL     1      -2.634   1.181  -0.798  0.00  0.00    +0.000 S 
BRANCH  26  27
ATOM     27  C   UNL     1      -2.397   2.927  -0.508  0.00  0.00    +0.000 A 
ATOM     28  C   UNL     1      -2.418   3.420   0.782  0.00  0.00    +0.000 A 
ATOM     29  C   UNL     1      -2.240   4.769   1.071  0.00  0.00    +0.000 A 
ATOM     30  C   UNL     1      -2.031   5.664   0.040  0.00  0.00    +0.000 A 
ATOM     31  C   UNL     1      -2.008   5.168  -1.265  0.00  0.00    +0.000 A 
ATOM     32  C   UNL     1      -2.187   3.833  -1.526  0.00  0.00    +0.000 A 
ENDBRANCH  26  27
ENDBRANCH   5  26
TORSDOF 8
