REMARK  Name = 
REMARK  8 active torsions:
REMARK  status: ('A' for Active; 'I' for Inactive)
REMARK    1  A    between atoms: C_2  and  C_3
REMARK    2  A    between atoms: C_6  and  C_7
REMARK    3  A    between atoms: C_7  and  C_8
REMARK    4  A    between atoms: C_7  and  N_11
REMARK    5  A    between atoms: C_8  and  C_9
REMARK    6  A    between atoms: C_12  and  O_14
REMARK    7  A    between atoms: O_14  and  C_15
REMARK    8  A    between atoms: C_15  and  C_16
REMARK                            x       y       z     vdW  Elec       q    Type
REMARK                         _______ _______ _______ _____ _____    ______ ____
ROOT
ATOM      1  N   UNL     1       1.323   0.192   1.310  0.00  0.00    +0.000 NA
ATOM      2  C   UNL     1       0.377   0.113   0.270  0.00  0.00    +0.000 C 
ATOM      3  O   UNL     1       0.325  -0.944  -0.413  0.00  0.00    +0.000 OA
ENDROOT
BRANCH   1   4
ATOM      4  C   UNL     1       2.225  -1.109   1.485  0.00  0.00    +0.000 C 
BRANCH   4   8
ATOM      5  C   UNL     1       5.474  -0.016  -1.171  0.00  0.00    +0.000 A 
ATOM      6  C   UNL     1       4.959   0.914  -0.292  0.00  0.00    +0.000 A 
ATOM      7  C   UNL     1       3.932   0.558   0.544  0.00  0.00    +0.000 A 
ATOM      8  C   UNL     1       3.436  -0.648   0.517  0.00  0.00    +0.000 A 
ATOM      9  C   UNL     1       3.895  -1.627  -0.329  0.00  0.00    +0.000 A 
ATOM     10  C   UNL     1       4.927  -1.292  -1.178  0.00  0.00    +0.000 A 
BRANCH   5  12
ATOM     11  C   UNL     1       7.875   0.012  -1.364  0.00  0.00    +0.000 C 
ATOM     12  C   UNL     1       6.590   0.329  -2.096  0.00  0.00    +0.000 C 
ENDBRANCH   5  12
ENDBRANCH   4   8
BRANCH   4  13
ATOM     13  C   UNL     1       2.967  -0.599   2.870  0.00  0.00    +0.000 C 
BRANCH  13  14
ATOM     14  C   UNL     1       3.208   0.850   2.759  0.00  0.00    +0.000 C 
ATOM     15  O   UNL     1       3.822   1.273   3.905  0.00  0.00    +0.000 OA
ENDBRANCH  13  14
ENDBRANCH   4  13
ENDBRANCH   1   4
BRANCH   2  16
ATOM     16  O   UNL     1      -0.515   1.107  -0.076  0.00  0.00    +0.000 OA
BRANCH  16  17
ATOM     17  C   UNL     1      -1.458   1.003  -1.129  0.00  0.00    +0.000 C 
BRANCH  17  18
ATOM     18  C   UNL     1      -2.346  -0.194  -0.768  0.00  0.00    +0.000 C 
ATOM     19  C   UNL     1      -3.011   0.068   0.537  0.00  0.00    +0.000 A 
ATOM     20  C   UNL     1      -2.486   0.256   1.796  0.00  0.00    +0.000 A 
ATOM     21  C   UNL     1      -3.275   0.491   2.905  0.00  0.00    +0.000 A 
ATOM     22  C   UNL     1      -4.628   0.534   2.723  0.00  0.00    +0.000 A 
ATOM     23  C   UNL     1      -5.161   0.345   1.458  0.00  0.00    +0.000 A 
ATOM     24  C   UNL     1      -4.378   0.110   0.345  0.00  0.00    +0.000 A 
ATOM     25  C   UNL     1      -4.673  -0.117  -1.065  0.00  0.00    +0.000 A 
ATOM     26  C   UNL     1      -5.857  -0.174  -1.777  0.00  0.00    +0.000 A 
ATOM     27  C   UNL     1      -5.871  -0.408  -3.139  0.00  0.00    +0.000 A 
ATOM     28  C   UNL     1      -4.691  -0.586  -3.795  0.00  0.00    +0.000 A 
ATOM     29  C   UNL     1      -3.499  -0.530  -3.092  0.00  0.00    +0.000 A 
ATOM     30  C   UNL     1      -3.484  -0.298  -1.740  0.00  0.00    +0.000 A 
ENDBRANCH  17  18
ENDBRANCH  16  17
ENDBRANCH   2  16
TORSDOF 8
