REMARK  Name = 
REMARK  7 active torsions:
REMARK  status: ('A' for Active; 'I' for Inactive)
REMARK    1  A    between atoms: C_2  and  O_3
REMARK    2  A    between atoms: O_3  and  C_4
REMARK    3  A    between atoms: C_7  and  N_8
REMARK    4  A    between atoms: C_11  and  N_12
REMARK    5  A    between atoms: N_12  and  C_13
REMARK    6  A    between atoms: C_21  and  S_22
REMARK    7  A    between atoms: S_22  and  C_23
REMARK                            x       y       z     vdW  Elec       q    Type
REMARK                         _______ _______ _______ _____ _____    ______ ____
ROOT
ATOM      1  N   UNL     1       0.927   0.260   0.127  0.00  0.00    +0.000 N 
ATOM      2  C   UNL     1       0.165  -0.902   0.375  0.00  0.00    +0.000 C 
ATOM      3  O   UNL     1       0.647  -2.052   0.556  0.00  0.00    +0.000 OA
ATOM      4  C   UNL     1      -1.248  -0.583   0.394  0.00  0.00    +0.000 C 
ATOM      5  C   UNL     1      -1.359   0.756   0.159  0.00  0.00    +0.000 C 
ATOM      6  C   UNL     1      -0.032   1.319  -0.012  0.00  0.00    +0.000 C 
ATOM      7  O   UNL     1       0.333   2.496  -0.242  0.00  0.00    +0.000 OA
ENDROOT
BRANCH   1  11
ATOM      8  C   UNL     1       5.146   0.696  -0.204  0.00  0.00    +0.000 A 
ATOM      9  C   UNL     1       4.503  -0.508  -0.124  0.00  0.00    +0.000 A 
ATOM     10  C   UNL     1       3.158  -0.718  -0.018  0.00  0.00    +0.000 A 
ATOM     11  C   UNL     1       2.333   0.434   0.016  0.00  0.00    +0.000 A 
ATOM     12  C   UNL     1       2.938   1.634  -0.061  0.00  0.00    +0.000 A 
ATOM     13  C   UNL     1       4.309   1.819  -0.170  0.00  0.00    +0.000 A 
BRANCH   8  14
ATOM     14  O   UNL     1       6.524   0.799  -0.311  0.00  0.00    +0.000 OA
BRANCH  14  16
ATOM     15  C   UNL     1       7.065  -1.159  -1.520  0.00  0.00    +0.000 C 
ATOM     16  C   UNL     1       7.390  -0.292  -0.344  0.00  0.00    +0.000 C 
ENDBRANCH  14  16
ENDBRANCH   8  14
ENDBRANCH   1  11
BRANCH   4  17
ATOM     17  N   UNL     1      -2.351  -1.423   0.611  0.00  0.00    +0.000 NA
BRANCH  17  18
ATOM     18  C   UNL     1      -2.474  -2.767   0.181  0.00  0.00    +0.000 A 
ATOM     19  C   UNL     1      -1.463  -3.378  -0.553  0.00  0.00    +0.000 A 
ATOM     20  C   UNL     1      -1.599  -4.700  -0.968  0.00  0.00    +0.000 A 
ATOM     21  C   UNL     1      -0.507  -5.359  -1.760  0.00  0.00    +0.000 C 
ATOM     22  C   UNL     1      -2.705  -5.439  -0.680  0.00  0.00    +0.000 A 
ATOM     23  C   UNL     1      -3.723  -4.847   0.051  0.00  0.00    +0.000 A 
ATOM     24  C   UNL     1      -3.580  -3.528   0.461  0.00  0.00    +0.000 A 
ATOM     25  C   UNL     1      -4.714  -2.963   1.240  0.00  0.00    +0.000 C 
ENDBRANCH  17  18
ENDBRANCH   4  17
BRANCH   5  26
ATOM     26  S   UNL     1      -2.893   1.620   0.090  0.00  0.00    +0.000 S 
BRANCH  26  27
ATOM     27  C   UNL     1      -2.808   3.369   0.115  0.00  0.00    +0.000 A 
ATOM     28  C   UNL     1      -1.653   4.083   0.228  0.00  0.00    +0.000 A 
ATOM     29  C   UNL     1      -1.616   5.457   0.262  0.00  0.00    +0.000 A 
ATOM     30  C   UNL     1      -2.781   6.223   0.182  0.00  0.00    +0.000 A 
ATOM     31  C   UNL     1      -3.951   5.511   0.067  0.00  0.00    +0.000 A 
ATOM     32  C   UNL     1      -3.982   4.142   0.033  0.00  0.00    +0.000 A 
ENDBRANCH  26  27
ENDBRANCH   5  26
TORSDOF 7
