REMARK  Name = 
REMARK  10 active torsions:
REMARK  status: ('A' for Active; 'I' for Inactive)
REMARK    1  A    between atoms: C_2  and  C_3
REMARK    2  A    between atoms: C_3  and  C_4
REMARK    3  A    between atoms: C_4  and  C_5
REMARK    4  A    between atoms: C_5  and  O_6
REMARK    5  A    between atoms: O_6  and  C_7
REMARK    6  A    between atoms: C_10  and  C_11
REMARK    7  A    between atoms: C_11  and  O_13
REMARK    8  A    between atoms: O_13  and  C_14
REMARK    9  A    between atoms: C_14  and  C_15
REMARK   10  A    between atoms: N_17  and  C_18
REMARK                            x       y       z     vdW  Elec       q    Type
REMARK                         _______ _______ _______ _____ _____    ______ ____
ROOT
ATOM      1  O   UNL     1      -0.149  -0.337  -2.925  0.00  0.00    +0.000 OA
ENDROOT
BRANCH   1   2
ATOM      2  C   UNL     1      -0.724  -0.699  -1.720  0.00  0.00    +0.000 C 
ATOM      3  O   UNL     1      -0.356  -1.762  -1.161  0.00  0.00    +0.000 OA
BRANCH   2   7
ATOM      4  C   UNL     1      -3.723   1.619   0.247  0.00  0.00    +0.000 A 
ATOM      5  C   UNL     1      -3.247   0.435   0.773  0.00  0.00    +0.000 A 
ATOM      6  C   UNL     1      -2.289  -0.302   0.141  0.00  0.00    +0.000 A 
ATOM      7  C   UNL     1      -1.747   0.102  -1.059  0.00  0.00    +0.000 A 
ATOM      8  C   UNL     1      -2.214   1.284  -1.595  0.00  0.00    +0.000 A 
ATOM      9  C   UNL     1      -3.181   2.024  -0.954  0.00  0.00    +0.000 A 
BRANCH   4  10
ATOM     10  O   UNL     1      -4.702   2.385   0.880  0.00  0.00    +0.000 OA
BRANCH  10  11
ATOM     11  C   UNL     1      -5.248   1.966   2.102  0.00  0.00    +0.000 C 
BRANCH  11  12
ATOM     12  C   UNL     1      -5.928   0.609   1.993  0.00  0.00    +0.000 C 
BRANCH  12  13
ATOM     13  C   UNL     1      -7.062   0.647   0.982  0.00  0.00    +0.000 C 
BRANCH  13  15
ATOM     14  C   UNL     1      -7.619   1.068  -1.389  0.00  0.00    +0.000 C 
ATOM     15  C   UNL     1      -6.492   1.023  -0.351  0.00  0.00    +0.000 C 
ENDBRANCH  13  15
ENDBRANCH  12  13
ENDBRANCH  11  12
ENDBRANCH  10  11
ENDBRANCH   4  10
ENDBRANCH   2   7
ENDBRANCH   1   2
BRANCH   1  16
ATOM     16  C   UNL     1       0.845  -1.116  -3.565  0.00  0.00    +0.000 C 
BRANCH  16  17
ATOM     17  C   UNL     1       2.047  -1.277  -2.719  0.00  0.00    +0.000 C 
ATOM     18  O   UNL     1       3.013  -1.934  -3.135  0.00  0.00    +0.000 OA
ATOM     19  N   UNL     1       2.095  -0.685  -1.446  0.00  0.00    +0.000 NA
BRANCH  19  20
ATOM     20  C   UNL     1       3.207  -0.785  -0.561  0.00  0.00    +0.000 A 
ATOM     21  C   UNL     1       4.355  -1.467  -0.848  0.00  0.00    +0.000 A 
ATOM     22  C   UNL     1       5.369  -1.494   0.090  0.00  0.00    +0.000 A 
ATOM     23  C   UNL     1       5.246  -0.852   1.301  0.00  0.00    +0.000 A 
ATOM     24  C   UNL     1       6.259  -0.878   2.241  0.00  0.00    +0.000 A 
ATOM     25  C   UNL     1       6.122  -0.226   3.460  0.00  0.00    +0.000 A 
ATOM     26  C   UNL     1       4.972   0.468   3.768  0.00  0.00    +0.000 A 
ATOM     27  C   UNL     1       3.969   0.485   2.821  0.00  0.00    +0.000 A 
ATOM     28  C   UNL     1       4.100  -0.161   1.610  0.00  0.00    +0.000 A 
ATOM     29  C   UNL     1       3.082  -0.138   0.658  0.00  0.00    +0.000 A 
ENDBRANCH  19  20
ENDBRANCH  16  17
ENDBRANCH   1  16
TORSDOF 10
