REMARK  Name = 
REMARK  8 active torsions:
REMARK  status: ('A' for Active; 'I' for Inactive)
REMARK    1  A    between atoms: C_2  and  O_3
REMARK    2  A    between atoms: O_3  and  C_4
REMARK    3  A    between atoms: C_7  and  N_8
REMARK    4  A    between atoms: N_8  and  C_9
REMARK    5  A    between atoms: C_10  and  S_11
REMARK    6  A    between atoms: S_11  and  C_12
REMARK    7  A    between atoms: N_20  and  C_21
REMARK    8  A    between atoms: C_26  and  O_27
REMARK                            x       y       z     vdW  Elec       q    Type
REMARK                         _______ _______ _______ _____ _____    ______ ____
ROOT
ATOM      1  C   UNL     1       0.462   0.691  -0.016  0.00  0.00    +0.000 C 
ATOM      2  C   UNL     1      -0.773   1.155   0.091  0.00  0.00    +0.000 C 
ATOM      3  C   UNL     1      -1.700   0.070   0.368  0.00  0.00    +0.000 C 
ATOM      4  O   UNL     1      -2.959   0.174   0.528  0.00  0.00    +0.000 OA
ATOM      5  N   UNL     1      -0.962  -1.155   0.434  0.00  0.00    +0.000 N 
ATOM      6  C   UNL     1       0.397  -0.731   0.188  0.00  0.00    +0.000 C 
ATOM      7  O   UNL     1       1.323  -1.571   0.175  0.00  0.00    +0.000 OA
ENDROOT
BRANCH   5   8
ATOM      8  C   UNL     1      -1.431  -2.462   0.679  0.00  0.00    +0.000 A 
ATOM      9  C   UNL     1      -0.992  -3.191   1.755  0.00  0.00    +0.000 A 
ATOM     10  C   UNL     1      -1.464  -4.490   1.991  0.00  0.00    +0.000 A 
ATOM     11  C   UNL     1      -2.371  -5.043   1.143  0.00  0.00    +0.000 A 
ATOM     12  C   UNL     1      -2.810  -4.301   0.057  0.00  0.00    +0.000 A 
ATOM     13  C   UNL     1      -2.342  -3.025  -0.168  0.00  0.00    +0.000 A 
BRANCH  13  14
ATOM     14  O   UNL     1      -2.796  -2.312  -1.253  0.00  0.00    +0.000 OA
ATOM     15  C   UNL     1      -3.738  -2.818  -2.179  0.00  0.00    +0.000 C 
ENDBRANCH  13  14
ENDBRANCH   5   8
BRANCH   1  16
ATOM     16  N   UNL     1       1.563   1.501  -0.280  0.00  0.00    +0.000 NA
BRANCH  16  20
ATOM     17  C   UNL     1       5.694   0.905  -0.440  0.00  0.00    +0.000 A 
ATOM     18  C   UNL     1       5.130   2.140  -0.672  0.00  0.00    +0.000 A 
ATOM     19  C   UNL     1       3.767   2.279  -0.606  0.00  0.00    +0.000 A 
ATOM     20  C   UNL     1       2.918   1.198  -0.308  0.00  0.00    +0.000 A 
ATOM     21  C   UNL     1       3.530   0.007  -0.090  0.00  0.00    +0.000 A 
ATOM     22  C   UNL     1       4.892  -0.173  -0.146  0.00  0.00    +0.000 A 
BRANCH  17  23
ATOM     23  O   UNL     1       7.091   0.750  -0.505  0.00  0.00    +0.000 OA
BRANCH  23  25
ATOM     24  C   UNL     1       7.270  -1.550  -1.241  0.00  0.00    +0.000 C 
ATOM     25  C   UNL     1       7.709  -0.482  -0.278  0.00  0.00    +0.000 C 
ENDBRANCH  23  25
ENDBRANCH  17  23
ENDBRANCH  16  20
ENDBRANCH   1  16
BRANCH   2  26
ATOM     26  S   UNL     1      -1.236   2.892  -0.084  0.00  0.00    +0.000 S 
BRANCH  26  27
ATOM     27  C   UNL     1      -2.990   3.092   0.119  0.00  0.00    +0.000 A 
ATOM     28  C   UNL     1      -3.880   3.024  -0.929  0.00  0.00    +0.000 A 
ATOM     29  C   UNL     1      -5.245   3.190  -0.700  0.00  0.00    +0.000 A 
ATOM     30  C   UNL     1      -5.728   3.421   0.564  0.00  0.00    +0.000 A 
ATOM     31  C   UNL     1      -4.840   3.488   1.608  0.00  0.00    +0.000 A 
ATOM     32  C   UNL     1      -3.489   3.325   1.381  0.00  0.00    +0.000 A 
ENDBRANCH  26  27
ENDBRANCH   2  26
TORSDOF 8
