REMARK  Name = 
REMARK  8 active torsions:
REMARK  status: ('A' for Active; 'I' for Inactive)
REMARK    1  A    between atoms: C_4  and  O_5
REMARK    2  A    between atoms: O_5  and  C_6
REMARK    3  A    between atoms: C_6  and  C_7
REMARK    4  A    between atoms: N_9  and  C_10
REMARK    5  A    between atoms: C_13  and  O_14
REMARK    6  A    between atoms: O_14  and  C_15
REMARK    7  A    between atoms: C_15  and  C_16
REMARK    8  A    between atoms: C_25  and  C_26
REMARK                            x       y       z     vdW  Elec       q    Type
REMARK                         _______ _______ _______ _____ _____    ______ ____
ROOT
ATOM      1  C   UNL     1       0.604   0.434  -0.519  0.00  0.00    +0.000 C 
ATOM      2  O   UNL     1      -0.162   0.929  -1.384  0.00  0.00    +0.000 OA
ATOM      3  N   UNL     1       0.168   0.244   0.794  0.00  0.00    +0.000 NA
ENDROOT
BRANCH   3   4
ATOM      4  C   UNL     1      -1.149   0.610   1.164  0.00  0.00    +0.000 A 
ATOM      5  C   UNL     1      -1.994   1.145   0.219  0.00  0.00    +0.000 A 
ATOM      6  C   UNL     1      -3.285   1.519   0.523  0.00  0.00    +0.000 A 
ATOM      7  C   UNL     1      -3.758   1.357   1.818  0.00  0.00    +0.000 A 
ATOM      8  C   UNL     1      -2.912   0.826   2.745  0.00  0.00    +0.000 A 
ATOM      9  C   UNL     1      -1.607   0.439   2.471  0.00  0.00    +0.000 A 
BRANCH   7  10
ATOM     10  O   UNL     1      -5.055   1.743   2.084  0.00  0.00    +0.000 OA
BRANCH  10  11
ATOM     11  C   UNL     1      -5.932   2.287   1.136  0.00  0.00    +0.000 C 
BRANCH  11  12
ATOM     12  C   UNL     1      -6.201   1.368  -0.013  0.00  0.00    +0.000 A 
ATOM     13  C   UNL     1      -5.701   0.070  -0.054  0.00  0.00    +0.000 A 
ATOM     14  C   UNL     1      -5.952  -0.766  -1.113  0.00  0.00    +0.000 A 
ATOM     15  C   UNL     1      -6.718  -0.329  -2.174  0.00  0.00    +0.000 A 
ATOM     16  C   UNL     1      -7.207   0.976  -2.110  0.00  0.00    +0.000 A 
ATOM     17  C   UNL     1      -6.957   1.813  -1.053  0.00  0.00    +0.000 A 
ENDBRANCH  11  12
ENDBRANCH  10  11
ENDBRANCH   7  10
ENDBRANCH   3   4
BRANCH   1  18
ATOM     18  C   UNL     1       1.976   0.055  -0.916  0.00  0.00    +0.000 C 
BRANCH  18  19
ATOM     19  O   UNL     1       2.646  -0.475   0.193  0.00  0.00    +0.000 OA
BRANCH  19  23
ATOM     20  C   UNL     1       6.429  -2.426   2.527  0.00  0.00    +0.000 C 
ATOM     21  C   UNL     1       5.784  -1.874   1.303  0.00  0.00    +0.000 A 
ATOM     22  C   UNL     1       4.491  -1.425   1.328  0.00  0.00    +0.000 A 
ATOM     23  C   UNL     1       3.955  -0.927   0.160  0.00  0.00    +0.000 A 
ATOM     24  N   UNL     1       4.714  -0.897  -0.961  0.00  0.00    +0.000 NA
ATOM     25  C   UNL     1       5.975  -1.333  -0.990  0.00  0.00    +0.000 A 
ATOM     26  N   UNL     1       6.499  -1.818   0.145  0.00  0.00    +0.000 NA
BRANCH  25  27
ATOM     27  C   UNL     1       6.838  -1.315  -2.200  0.00  0.00    +0.000 C 
ATOM     28  C   UNL     1       6.251  -0.415  -3.266  0.00  0.00    +0.000 C 
ATOM     29  C   UNL     1       8.257  -0.919  -1.860  0.00  0.00    +0.000 C 
ENDBRANCH  25  27
ENDBRANCH  19  23
ENDBRANCH  18  19
ENDBRANCH   1  18
TORSDOF 8
