REMARK  Name = 
REMARK  7 active torsions:
REMARK  status: ('A' for Active; 'I' for Inactive)
REMARK    1  A    between atoms: O_2  and  C_3
REMARK    2  A    between atoms: C_6  and  C_7
REMARK    3  A    between atoms: C_7  and  C_8
REMARK    4  A    between atoms: C_7  and  C_15
REMARK    5  A    between atoms: C_8  and  C_9
REMARK    6  A    between atoms: C_23  and  O_24
REMARK    7  A    between atoms: O_24  and  C_25
REMARK                            x       y       z     vdW  Elec       q    Type
REMARK                         _______ _______ _______ _____ _____    ______ ____
ROOT
ATOM      1  C   UNL     1       1.288   0.819   1.625  0.00  0.00    +0.000 A 
ATOM      2  C   UNL     1       0.435   0.008   2.332  0.00  0.00    +0.000 A 
ATOM      3  C   UNL     1      -0.370  -0.913   1.667  0.00  0.00    +0.000 A 
ATOM      4  C   UNL     1      -0.344  -1.040   0.348  0.00  0.00    +0.000 A 
ATOM      5  C   UNL     1       0.496  -0.247  -0.388  0.00  0.00    +0.000 A 
ATOM      6  C   UNL     1       1.325   0.697   0.257  0.00  0.00    +0.000 A 
ENDROOT
BRANCH   1   8
ATOM      7  C   UNL     1       2.081   1.891   3.693  0.00  0.00    +0.000 C 
ATOM      8  O   UNL     1       2.110   1.757   2.289  0.00  0.00    +0.000 OA
ENDBRANCH   1   8
BRANCH   4   9
ATOM      9  C   UNL     1      -1.177  -2.071  -0.493  0.00  0.00    +0.000 C 
BRANCH   9  10
ATOM     10  C   UNL     1      -2.504  -2.191   0.315  0.00  0.00    +0.000 A 
ATOM     11  C   UNL     1      -2.682  -1.604   1.520  0.00  0.00    +0.000 A 
ATOM     12  C   UNL     1      -3.898  -1.764   2.216  0.00  0.00    +0.000 A 
ATOM     13  C   UNL     1      -4.901  -2.521   1.660  0.00  0.00    +0.000 A 
ATOM     14  N   UNL     1      -6.156  -2.691   2.370  0.00  0.00    +0.000 NA
ATOM     15  C   UNL     1      -4.717  -3.116   0.434  0.00  0.00    +0.000 A 
ATOM     16  C   UNL     1      -3.487  -2.938  -0.241  0.00  0.00    +0.000 A 
ENDBRANCH   9  10
BRANCH   9  17
ATOM     17  C   UNL     1      -1.733  -1.000  -1.612  0.00  0.00    +0.000 C 
BRANCH  17  18
ATOM     18  C   UNL     1      -2.513   0.020  -0.946  0.00  0.00    +0.000 A 
ATOM     19  C   UNL     1      -3.893  -0.060  -0.719  0.00  0.00    +0.000 A 
ATOM     20  C   UNL     1      -4.616   0.903  -0.101  0.00  0.00    +0.000 A 
ATOM     21  N   UNL     1      -4.019   2.010   0.334  0.00  0.00    +0.000 NA
ATOM     22  C   UNL     1      -2.679   2.171   0.155  0.00  0.00    +0.000 A 
ATOM     23  C   UNL     1      -1.949   1.184  -0.476  0.00  0.00    +0.000 A 
ENDBRANCH  17  18
ENDBRANCH   9  17
ENDBRANCH   4   9
BRANCH   6  24
ATOM     24  O   UNL     1       2.181   1.508  -0.479  0.00  0.00    +0.000 OA
BRANCH  24  25
ATOM     25  C   UNL     1       2.217   1.379  -1.897  0.00  0.00    +0.000 C 
ATOM     26  C   UNL     1       3.231   2.382  -2.402  0.00  0.00    +0.000 C 
ATOM     27  C   UNL     1       4.509   1.726  -2.071  0.00  0.00    +0.000 A 
ATOM     28  C   UNL     1       5.762   2.233  -1.834  0.00  0.00    +0.000 A 
ATOM     29  C   UNL     1       6.847   1.423  -1.536  0.00  0.00    +0.000 A 
ATOM     30  C   UNL     1       6.632   0.067  -1.481  0.00  0.00    +0.000 A 
ATOM     31  C   UNL     1       5.356  -0.444  -1.723  0.00  0.00    +0.000 A 
ATOM     32  C   UNL     1       4.293   0.367  -2.017  0.00  0.00    +0.000 A 
ATOM     33  C   UNL     1       2.877   0.054  -2.301  0.00  0.00    +0.000 C 
ENDBRANCH  24  25
ENDBRANCH   6  24
TORSDOF 7
