REMARK  Name = 
REMARK  8 active torsions:
REMARK  status: ('A' for Active; 'I' for Inactive)
REMARK    1  A    between atoms: C_2  and  N_3
REMARK    2  A    between atoms: C_2  and  C_25
REMARK    3  A    between atoms: N_3  and  N_4
REMARK    4  A    between atoms: C_5  and  C_7
REMARK    5  A    between atoms: C_10  and  C_11
REMARK    6  A    between atoms: C_11  and  O_12
REMARK    7  A    between atoms: O_12  and  C_13
REMARK    8  A    between atoms: C_19  and  C_20
REMARK                            x       y       z     vdW  Elec       q    Type
REMARK                         _______ _______ _______ _____ _____    ______ ____
ROOT
ATOM      1  C   UNL     1       1.736   0.674  -0.413  0.00  0.00    +0.000 A 
ATOM      2  C   UNL     1       0.724   0.591   0.534  0.00  0.00    +0.000 A 
ATOM      3  C   UNL     1      -0.570   0.370   0.120  0.00  0.00    +0.000 A 
ATOM      4  C   UNL     1      -0.894   0.230  -1.202  0.00  0.00    +0.000 A 
ATOM      5  C   UNL     1       0.120   0.316  -2.117  0.00  0.00    +0.000 A 
ATOM      6  C   UNL     1       1.433   0.537  -1.730  0.00  0.00    +0.000 A 
ENDROOT
BRANCH   1   8
ATOM      7  N   UNL     1       3.382   1.087   1.440  0.00  0.00    +0.000 NA
ATOM      8  C   UNL     1       3.091   0.909   0.073  0.00  0.00    +0.000 C 
ATOM      9  O   UNL     1       4.021   0.952  -0.758  0.00  0.00    +0.000 OA
BRANCH   7  10
ATOM     10  N   UNL     1       4.648   1.313   1.970  0.00  0.00    +0.000 NA
BRANCH  10  12
ATOM     11  C   UNL     1       6.730   1.836   0.998  0.00  0.00    +0.000 C 
ATOM     12  C   UNL     1       5.795   0.918   1.238  0.00  0.00    +0.000 C 
BRANCH  12  13
ATOM     13  C   UNL     1       6.001  -0.434   0.741  0.00  0.00    +0.000 A 
ATOM     14  C   UNL     1       7.089  -0.898   0.036  0.00  0.00    +0.000 A 
ATOM     15  C   UNL     1       6.879  -2.241  -0.239  0.00  0.00    +0.000 A 
ATOM     16  C   UNL     1       5.651  -2.529   0.325  0.00  0.00    +0.000 A 
ATOM     17  O   UNL     1       5.170  -1.435   0.892  0.00  0.00    +0.000 OA
ENDBRANCH  12  13
ENDBRANCH  10  12
ENDBRANCH   7  10
ENDBRANCH   1   8
BRANCH   4  18
ATOM     18  C   UNL     1      -2.277  -0.005  -1.625  0.00  0.00    +0.000 C 
BRANCH  18  19
ATOM     19  O   UNL     1      -3.108  -0.005  -0.481  0.00  0.00    +0.000 OA
BRANCH  19  20
ATOM     20  C   UNL     1      -4.479  -0.206  -0.550  0.00  0.00    +0.000 A 
ATOM     21  C   UNL     1      -5.088  -0.416  -1.762  0.00  0.00    +0.000 A 
ATOM     22  C   UNL     1      -6.462  -0.621  -1.861  0.00  0.00    +0.000 A 
ATOM     23  C   UNL     1      -7.112  -0.847  -3.185  0.00  0.00    +0.000 C 
ATOM     24  C   UNL     1      -7.176  -0.601  -0.685  0.00  0.00    +0.000 A 
ATOM     25  C   UNL     1      -6.608  -0.393   0.556  0.00  0.00    +0.000 A 
ATOM     26  C   UNL     1      -5.226  -0.192   0.606  0.00  0.00    +0.000 A 
BRANCH  26  27
ATOM     27  C   UNL     1      -4.528   0.039   1.889  0.00  0.00    +0.000 C 
ATOM     28  C   UNL     1      -5.478   0.029   3.063  0.00  0.00    +0.000 C 
ATOM     29  C   UNL     1      -3.464  -1.010   2.123  0.00  0.00    +0.000 C 
ENDBRANCH  26  27
ENDBRANCH  19  20
ENDBRANCH  18  19
ENDBRANCH   4  18
TORSDOF 8
