REMARK  Name = 
REMARK  8 active torsions:
REMARK  status: ('A' for Active; 'I' for Inactive)
REMARK    1  A    between atoms: O_2  and  C_3
REMARK    2  A    between atoms: C_9  and  C_10
REMARK    3  A    between atoms: N_12  and  C_13
REMARK    4  A    between atoms: C_13  and  C_15
REMARK    5  A    between atoms: C_15  and  C_16
REMARK    6  A    between atoms: C_16  and  C_17
REMARK    7  A    between atoms: N_25  and  C_26
REMARK    8  A    between atoms: C_26  and  C_27
REMARK                            x       y       z     vdW  Elec       q    Type
REMARK                         _______ _______ _______ _____ _____    ______ ____
ROOT
ATOM      1  C   UNL     1      -2.506   3.034   1.888  0.00  0.00    +0.000 A 
ATOM      2  C   UNL     1      -3.419   2.962   0.859  0.00  0.00    +0.000 A 
ATOM      3  C   UNL     1      -3.328   2.073  -0.193  0.00  0.00    +0.000 A 
ATOM      4  C   UNL     1      -2.270   1.185  -0.255  0.00  0.00    +0.000 A 
ATOM      5  C   UNL     1      -1.352   1.250   0.770  0.00  0.00    +0.000 A 
ATOM      6  C   UNL     1      -1.435   2.130   1.820  0.00  0.00    +0.000 A 
ATOM      7  C   UNL     1      -0.422   0.289   0.482  0.00  0.00    +0.000 A 
ATOM      8  C   UNL     1      -0.786  -0.340  -0.706  0.00  0.00    +0.000 A 
ATOM      9  C   UNL     1      -0.074  -1.442  -1.402  0.00  0.00    +0.000 C 
ATOM     10  N   UNL     1      -1.930   0.232  -1.141  0.00  0.00    +0.000 N 
ENDROOT
BRANCH   7  11
ATOM     11  C   UNL     1       0.757  -0.071   1.252  0.00  0.00    +0.000 C 
ATOM     12  O   UNL     1       1.058   0.490   2.340  0.00  0.00    +0.000 OA
ATOM     13  N   UNL     1       1.590  -1.070   0.782  0.00  0.00    +0.000 NA
BRANCH  13  14
ATOM     14  C   UNL     1       2.855  -1.484   1.585  0.00  0.00    +0.000 C 
ATOM     15  C   UNL     1       2.081  -2.532   2.566  0.00  0.00    +0.000 C 
BRANCH  14  16
ATOM     16  C   UNL     1       3.227  -2.673   0.492  0.00  0.00    +0.000 C 
BRANCH  16  17
ATOM     17  C   UNL     1       3.414  -1.906  -0.806  0.00  0.00    +0.000 C 
BRANCH  17  18
ATOM     18  C   UNL     1       4.543  -0.951  -0.503  0.00  0.00    +0.000 A 
ATOM     19  C   UNL     1       5.861  -1.258  -0.723  0.00  0.00    +0.000 A 
ATOM     20  C   UNL     1       6.899  -0.400  -0.437  0.00  0.00    +0.000 A 
ATOM     21  C   UNL     1       6.526   0.826   0.104  0.00  0.00    +0.000 A 
ATOM     22  C   UNL     1       5.206   1.135   0.325  0.00  0.00    +0.000 A 
ATOM     23  C   UNL     1       4.178   0.265   0.032  0.00  0.00    +0.000 A 
ENDBRANCH  17  18
ENDBRANCH  16  17
ENDBRANCH  14  16
ENDBRANCH  13  14
ENDBRANCH   7  11
BRANCH   1  25
ATOM     24  C   UNL     1      -3.661   4.867   3.063  0.00  0.00    +0.000 C 
ATOM     25  O   UNL     1      -2.612   3.936   2.943  0.00  0.00    +0.000 OA
ENDBRANCH   1  25
BRANCH  10  26
ATOM     26  C   UNL     1      -2.617  -0.180  -2.373  0.00  0.00    +0.000 C 
BRANCH  26  27
ATOM     27  C   UNL     1      -3.585  -1.261  -2.100  0.00  0.00    +0.000 A 
ATOM     28  C   UNL     1      -4.927  -1.074  -1.934  0.00  0.00    +0.000 A 
ATOM     29  C   UNL     1      -5.503  -2.309  -1.693  0.00  0.00    +0.000 A 
ATOM     30  C   UNL     1      -4.440  -3.208  -1.728  0.00  0.00    +0.000 A 
ATOM     31  O   UNL     1      -3.326  -2.516  -1.974  0.00  0.00    +0.000 OA
ENDBRANCH  26  27
ENDBRANCH  10  26
TORSDOF 8
