REMARK  Name = 
REMARK  7 active torsions:
REMARK  status: ('A' for Active; 'I' for Inactive)
REMARK    1  A    between atoms: C_2  and  O_3
REMARK    2  A    between atoms: O_3  and  C_4
REMARK    3  A    between atoms: C_9  and  N_10
REMARK    4  A    between atoms: C_11  and  C_13
REMARK    5  A    between atoms: C_14  and  N_15
REMARK    6  A    between atoms: N_15  and  C_16
REMARK    7  A    between atoms: C_16  and  C_17
REMARK                            x       y       z     vdW  Elec       q    Type
REMARK                         _______ _______ _______ _____ _____    ______ ____
ROOT
ATOM      1  C   UNL     1      -0.625  -1.341   0.589  0.00  0.00    +0.000 A 
ATOM      2  C   UNL     1      -1.216  -1.511   1.803  0.00  0.00    +0.000 A 
ATOM      3  S   UNL     1      -2.329  -2.811   1.490  0.00  0.00    +0.000 S 
ATOM      4  C   UNL     1      -1.983  -3.064  -0.168  0.00  0.00    +0.000 A 
ATOM      5  C   UNL     1      -1.030  -2.150  -0.430  0.00  0.00    +0.000 A 
ATOM      6  C   UNL     1      -0.481  -2.091  -1.858  0.00  0.00    +0.000 C 
ATOM      7  C   UNL     1      -0.721  -3.434  -2.467  0.00  0.00    +0.000 C 
ATOM      8  C   UNL     1      -2.385  -3.351  -2.607  0.00  0.00    +0.000 C 
ATOM      9  C   UNL     1      -2.450  -4.787  -3.424  0.00  0.00    +0.000 C 
ATOM     10  C   UNL     1      -2.566  -4.060  -1.148  0.00  0.00    +0.000 C 
ENDROOT
BRANCH   1  12
ATOM     11  N   UNL     1       1.093  -0.094  -0.816  0.00  0.00    +0.000 NA
ATOM     12  C   UNL     1       0.474  -0.341   0.443  0.00  0.00    +0.000 C 
ATOM     13  O   UNL     1       0.909   0.327   1.399  0.00  0.00    +0.000 OA
BRANCH  11  19
ATOM     14  C   UNL     1       2.748   1.111  -2.152  0.00  0.00    +0.000 A 
ATOM     15  C   UNL     1       3.769   2.037  -2.298  0.00  0.00    +0.000 A 
ATOM     16  C   UNL     1       4.170   2.721  -1.162  0.00  0.00    +0.000 A 
ATOM     17  C   UNL     1       3.594   2.509   0.071  0.00  0.00    +0.000 A 
ATOM     18  C   UNL     1       2.587   1.581   0.163  0.00  0.00    +0.000 A 
ATOM     19  C   UNL     1       2.146   0.868  -0.936  0.00  0.00    +0.000 A 
BRANCH  14  20
ATOM     20  O   UNL     1       2.289   0.379  -3.259  0.00  0.00    +0.000 OA
BRANCH  20  22
ATOM     21  C   UNL     1       2.629   2.036  -4.913  0.00  0.00    +0.000 C 
ATOM     22  C   UNL     1       2.853   0.568  -4.542  0.00  0.00    +0.000 C 
ENDBRANCH  20  22
ENDBRANCH  14  20
ENDBRANCH  11  19
ENDBRANCH   1  12
BRANCH   2  23
ATOM     23  N   UNL     1      -1.158  -0.892   3.057  0.00  0.00    +0.000 NA
BRANCH  23  24
ATOM     24  C   UNL     1      -0.588   0.203   3.653  0.00  0.00    +0.000 C 
BRANCH  24  25
ATOM     25  C   UNL     1      -1.302   1.465   3.227  0.00  0.00    +0.000 A 
ATOM     26  C   UNL     1      -0.874   2.679   3.723  0.00  0.00    +0.000 A 
ATOM     27  C   UNL     1      -1.559   3.804   3.303  0.00  0.00    +0.000 A 
ATOM     28  C   UNL     1      -2.623   3.730   2.431  0.00  0.00    +0.000 A 
ATOM     29  N   UNL     1      -3.005   2.515   1.973  0.00  0.00    +0.000 NA
ATOM     30  C   UNL     1      -2.368   1.394   2.354  0.00  0.00    +0.000 A 
ENDBRANCH  24  25
ENDBRANCH  23  24
ENDBRANCH   2  23
TORSDOF 7
