REMARK  Name = 
REMARK  9 active torsions:
REMARK  status: ('A' for Active; 'I' for Inactive)
REMARK    1  A    between atoms: C_2  and  C_3
REMARK    2  A    between atoms: C_3  and  O_4
REMARK    3  A    between atoms: O_4  and  C_5
REMARK    4  A    between atoms: C_5  and  C_7
REMARK    5  A    between atoms: N_10  and  C_11
REMARK    6  A    between atoms: C_11  and  C_12
REMARK    7  A    between atoms: C_12  and  C_13
REMARK    8  A    between atoms: C_16  and  O_17
REMARK    9  A    between atoms: C_19  and  O_20
REMARK                            x       y       z     vdW  Elec       q    Type
REMARK                         _______ _______ _______ _____ _____    ______ ____
ROOT
ATOM      1  C   UNL     1      -1.665   0.417  -2.132  0.00  0.00    +0.000 A 
ATOM      2  C   UNL     1      -1.007   1.002  -1.073  0.00  0.00    +0.000 A 
ATOM      3  N   UNL     1      -0.799   2.389  -0.841  0.00  0.00    +0.000 NA
ATOM      4  N   UNL     1      -0.561   0.021  -0.238  0.00  0.00    +0.000 N 
ATOM      5  C   UNL     1      -0.916  -1.187  -0.733  0.00  0.00    +0.000 A 
ATOM      6  N   UNL     1      -0.733  -2.455  -0.316  0.00  0.00    +0.000 NA
ATOM      7  C   UNL     1      -1.201  -3.507  -1.013  0.00  0.00    +0.000 A 
ATOM      8  C   UNL     1      -1.000  -4.815  -0.560  0.00  0.00    +0.000 A 
ATOM      9  C   UNL     1      -1.498  -5.852  -1.308  0.00  0.00    +0.000 A 
ATOM     10  C   UNL     1      -2.186  -5.645  -2.485  0.00  0.00    +0.000 A 
ATOM     11  C   UNL     1      -2.373  -4.329  -2.913  0.00  0.00    +0.000 A 
ATOM     12  C   UNL     1      -1.882  -3.258  -2.181  0.00  0.00    +0.000 A 
ATOM     13  N   UNL     1      -2.074  -1.999  -2.612  0.00  0.00    +0.000 NA
ATOM     14  C   UNL     1      -1.599  -0.937  -1.904  0.00  0.00    +0.000 A 
ENDROOT
BRANCH   1  15
ATOM     15  C   UNL     1      -2.304   1.105  -3.265  0.00  0.00    +0.000 C 
ATOM     16  O   UNL     1      -2.875   0.453  -4.172  0.00  0.00    +0.000 OA
BRANCH  15  17
ATOM     17  O   UNL     1      -2.293   2.484  -3.366  0.00  0.00    +0.000 OA
BRANCH  17  18
ATOM     18  C   UNL     1      -2.915   3.108  -4.468  0.00  0.00    +0.000 C 
BRANCH  18  20
ATOM     19  C   UNL     1      -2.171   5.122  -3.388  0.00  0.00    +0.000 C 
ATOM     20  C   UNL     1      -2.811   4.577  -4.420  0.00  0.00    +0.000 C 
ENDBRANCH  18  20
ENDBRANCH  17  18
ENDBRANCH  15  17
ENDBRANCH   1  15
BRANCH   4  21
ATOM     21  C   UNL     1       0.180   0.200   0.992  0.00  0.00    +0.000 C 
BRANCH  21  22
ATOM     22  C   UNL     1       1.677   0.208   0.769  0.00  0.00    +0.000 C 
BRANCH  22  23
ATOM     23  C   UNL     1       2.321   0.399   2.093  0.00  0.00    +0.000 A 
ATOM     24  C   UNL     1       2.658  -0.679   2.882  0.00  0.00    +0.000 A 
ATOM     25  C   UNL     1       3.249  -0.506   4.096  0.00  0.00    +0.000 A 
ATOM     26  C   UNL     1       3.562   0.759   4.645  0.00  0.00    +0.000 A 
ATOM     27  C   UNL     1       3.200   1.839   3.803  0.00  0.00    +0.000 A 
ATOM     28  C   UNL     1       2.609   1.650   2.590  0.00  0.00    +0.000 A 
BRANCH  26  29
ATOM     29  O   UNL     1       4.114   0.951   5.777  0.00  0.00    +0.000 OA
ATOM     30  C   UNL     1       4.662   1.124   6.902  0.00  0.00    +0.000 C 
ENDBRANCH  26  29
BRANCH  27  31
ATOM     31  O   UNL     1       3.489   3.126   4.297  0.00  0.00    +0.000 OA
ATOM     32  C   UNL     1       3.142   4.236   3.486  0.00  0.00    +0.000 C 
ENDBRANCH  27  31
ENDBRANCH  22  23
ENDBRANCH  21  22
ENDBRANCH   4  21
TORSDOF 9
