REMARK  Name = 
REMARK  9 active torsions:
REMARK  status: ('A' for Active; 'I' for Inactive)
REMARK    1  A    between atoms: C_2  and  O_3
REMARK    2  A    between atoms: O_3  and  C_4
REMARK    3  A    between atoms: C_7  and  C_8
REMARK    4  A    between atoms: N_9  and  N_10
REMARK    5  A    between atoms: C_11  and  C_13
REMARK    6  A    between atoms: C_16  and  O_17
REMARK    7  A    between atoms: O_17  and  C_18
REMARK    8  A    between atoms: C_18  and  C_19
REMARK    9  A    between atoms: C_23  and  O_24
REMARK                            x       y       z     vdW  Elec       q    Type
REMARK                         _______ _______ _______ _____ _____    ______ ____
ROOT
ATOM      1  C   UNL     1       0.183  -0.326   0.243  0.00  0.00    +0.000 A 
ATOM      2  C   UNL     1       0.943   0.327  -0.704  0.00  0.00    +0.000 A 
ATOM      3  C   UNL     1       2.317   0.223  -0.732  0.00  0.00    +0.000 A 
ATOM      4  C   UNL     1       2.975  -0.560   0.215  0.00  0.00    +0.000 A 
ATOM      5  C   UNL     1       2.193  -1.198   1.144  0.00  0.00    +0.000 A 
ATOM      6  C   UNL     1       0.818  -1.105   1.187  0.00  0.00    +0.000 A 
ENDROOT
BRANCH   1   8
ATOM      7  N   UNL     1      -1.935   0.613  -0.734  0.00  0.00    +0.000 NA
ATOM      8  C   UNL     1      -1.288  -0.191   0.241  0.00  0.00    +0.000 C 
ATOM      9  O   UNL     1      -1.998  -0.775   1.092  0.00  0.00    +0.000 OA
BRANCH   7  11
ATOM     10  C   UNL     1      -4.128   0.284   0.078  0.00  0.00    +0.000 C 
ATOM     11  N   UNL     1      -3.327   0.773  -0.777  0.00  0.00    +0.000 NA
BRANCH  10  15
ATOM     12  C   UNL     1      -8.354   0.628   0.162  0.00  0.00    +0.000 A 
ATOM     13  C   UNL     1      -7.645   1.232  -0.854  0.00  0.00    +0.000 A 
ATOM     14  C   UNL     1      -6.260   1.135  -0.906  0.00  0.00    +0.000 A 
ATOM     15  C   UNL     1      -5.578   0.439   0.050  0.00  0.00    +0.000 A 
ATOM     16  C   UNL     1      -6.290  -0.165   1.066  0.00  0.00    +0.000 A 
ATOM     17  C   UNL     1      -7.683  -0.076   1.131  0.00  0.00    +0.000 A 
BRANCH  12  18
ATOM     18  O   UNL     1      -9.736   0.749   0.177  0.00  0.00    +0.000 OA
BRANCH  18  20
ATOM     19  C   UNL     1     -10.409  -1.342   1.214  0.00  0.00    +0.000 C 
ATOM     20  C   UNL     1     -10.550   0.174   1.162  0.00  0.00    +0.000 C 
ENDBRANCH  18  20
ENDBRANCH  12  18
ENDBRANCH  10  15
ENDBRANCH   7  11
ENDBRANCH   1   8
BRANCH   4  21
ATOM     21  O   UNL     1       4.348  -0.706   0.241  0.00  0.00    +0.000 OA
BRANCH  21  22
ATOM     22  C   UNL     1       5.093  -0.020  -0.747  0.00  0.00    +0.000 C 
BRANCH  22  23
ATOM     23  C   UNL     1       6.552  -0.260  -0.607  0.00  0.00    +0.000 A 
ATOM     24  C   UNL     1       7.082  -1.341  -1.296  0.00  0.00    +0.000 A 
ATOM     25  C   UNL     1       8.437  -1.615  -1.204  0.00  0.00    +0.000 A 
ATOM     26  C   UNL     1       9.292  -0.826  -0.432  0.00  0.00    +0.000 A 
ATOM     27  C   UNL     1       8.757   0.248   0.250  0.00  0.00    +0.000 A 
ATOM     28  C   UNL     1       7.394   0.502   0.143  0.00  0.00    +0.000 A 
BRANCH  27  29
ATOM     29  O   UNL     1       9.604   1.034   1.019  0.00  0.00    +0.000 OA
ATOM     30  C   UNL     1       9.193   2.145   1.755  0.00  0.00    +0.000 C 
ENDBRANCH  27  29
ENDBRANCH  22  23
ENDBRANCH  21  22
ENDBRANCH   4  21
TORSDOF 9
