REMARK  Name = 
REMARK  10 active torsions:
REMARK  status: ('A' for Active; 'I' for Inactive)
REMARK    1  A    between atoms: C_2  and  C_3
REMARK    2  A    between atoms: C_3  and  C_4
REMARK    3  A    between atoms: C_4  and  C_5
REMARK    4  A    between atoms: C_5  and  C_6
REMARK    5  A    between atoms: C_6  and  C_7
REMARK    6  A    between atoms: C_8  and  C_9
REMARK    7  A    between atoms: N_11  and  C_12
REMARK    8  A    between atoms: C_12  and  C_13
REMARK    9  A    between atoms: C_13  and  C_14
REMARK   10  A    between atoms: C_21  and  C_22
REMARK                            x       y       z     vdW  Elec       q    Type
REMARK                         _______ _______ _______ _____ _____    ______ ____
ROOT
ATOM      1  C   UNL     1      -1.839   0.483  -0.245  0.00  0.00    +0.000 C 
ATOM      2  C   UNL     1      -0.794  -0.118  -0.739  0.00  0.00    +0.000 C 
ATOM      3  C   UNL     1      -1.334  -1.603  -0.847  0.00  0.00    +0.000 C 
ATOM      4  O   UNL     1      -2.730  -1.232  -1.248  0.00  0.00    +0.000 OA
ATOM      5  N   UNL     1      -2.921  -0.462  -0.107  0.00  0.00    +0.000 NA
ENDROOT
BRANCH   3   6
ATOM      6  C   UNL     1      -1.531  -2.018   0.614  0.00  0.00    +0.000 A 
ATOM      7  C   UNL     1      -0.566  -1.637   1.484  0.00  0.00    +0.000 A 
ATOM      8  C   UNL     1      -0.663  -1.956   2.862  0.00  0.00    +0.000 A 
ATOM      9  C   UNL     1      -1.758  -2.657   3.276  0.00  0.00    +0.000 A 
ATOM     10  C   UNL     1      -2.731  -3.042   2.408  0.00  0.00    +0.000 A 
ATOM     11  C   UNL     1      -3.827  -3.752   2.818  0.00  0.00    +0.000 A 
ATOM     12  C   UNL     1      -4.778  -4.126   1.901  0.00  0.00    +0.000 A 
ATOM     13  C   UNL     1      -4.675  -3.812   0.562  0.00  0.00    +0.000 A 
ATOM     14  C   UNL     1      -3.583  -3.099   0.125  0.00  0.00    +0.000 A 
ATOM     15  C   UNL     1      -2.609  -2.710   1.031  0.00  0.00    +0.000 A 
ENDBRANCH   3   6
BRANCH   2  16
ATOM     16  C   UNL     1       0.487   0.377  -1.073  0.00  0.00    +0.000 C 
ATOM     17  O   UNL     1       0.756   1.586  -0.898  0.00  0.00    +0.000 OA
ATOM     18  N   UNL     1       1.575  -0.379  -1.617  0.00  0.00    +0.000 NA
BRANCH  18  19
ATOM     19  C   UNL     1       2.847   0.162  -1.937  0.00  0.00    +0.000 C 
BRANCH  19  20
ATOM     20  C   UNL     1       2.805   1.259  -2.966  0.00  0.00    +0.000 C 
BRANCH  20  21
ATOM     21  C   UNL     1       4.151   1.789  -3.266  0.00  0.00    +0.000 A 
ATOM     22  C   UNL     1       4.581   2.848  -2.493  0.00  0.00    +0.000 A 
ATOM     23  C   UNL     1       5.838   3.410  -2.709  0.00  0.00    +0.000 A 
ATOM     24  C   UNL     1       6.663   2.918  -3.691  0.00  0.00    +0.000 A 
ATOM     25  F   UNL     1       7.870   3.491  -3.866  0.00  0.00    +0.000 F 
ATOM     26  C   UNL     1       6.240   1.866  -4.462  0.00  0.00    +0.000 A 
ATOM     27  C   UNL     1       4.982   1.298  -4.252  0.00  0.00    +0.000 A 
ENDBRANCH  20  21
ENDBRANCH  19  20
ENDBRANCH  18  19
ENDBRANCH   2  16
BRANCH   1  28
ATOM     28  C   UNL     1      -1.793   1.934   0.064  0.00  0.00    +0.000 C 
BRANCH  28  29
ATOM     29  C   UNL     1      -2.051   2.247   1.520  0.00  0.00    +0.000 C 
BRANCH  29  30
ATOM     30  C   UNL     1      -1.028   1.592   2.422  0.00  0.00    +0.000 C 
BRANCH  30  31
ATOM     31  C   UNL     1      -1.249   1.877   3.869  0.00  0.00    +0.000 C 
BRANCH  31  33
ATOM     32  C   UNL     1      -3.740   2.068   3.605  0.00  0.00    +0.000 C 
ATOM     33  C   UNL     1      -2.598   1.397   4.365  0.00  0.00    +0.000 C 
ENDBRANCH  31  33
ENDBRANCH  30  31
ENDBRANCH  29  30
ENDBRANCH  28  29
ENDBRANCH   1  28
TORSDOF 10
