REMARK  Name = 
REMARK  6 active torsions:
REMARK  status: ('A' for Active; 'I' for Inactive)
REMARK    1  A    between atoms: C_2  and  C_3
REMARK    2  A    between atoms: C_3  and  C_4
REMARK    3  A    between atoms: C_4  and  N_5
REMARK    4  A    between atoms: C_6  and  C_8
REMARK    5  A    between atoms: N_14  and  C_15
REMARK    6  A    between atoms: C_15  and  C_16
REMARK                            x       y       z     vdW  Elec       q    Type
REMARK                         _______ _______ _______ _____ _____    ______ ____
ROOT
ATOM      1  C   UNL     1       2.057  -0.397   0.297  0.00  0.00    +0.000 A 
ATOM      2  C   UNL     1       2.358  -1.622   0.848  0.00  0.00    +0.000 A 
ATOM      3  C   UNL     1       1.419  -2.627   0.920  0.00  0.00    +0.000 A 
ATOM      4  C   UNL     1       0.131  -2.458   0.444  0.00  0.00    +0.000 A 
ATOM      5  C   UNL     1      -0.183  -1.235  -0.110  0.00  0.00    +0.000 A 
ATOM      6  C   UNL     1       0.774  -0.233  -0.176  0.00  0.00    +0.000 A 
ATOM      7  N   UNL     1      -1.440  -0.823  -0.666  0.00  0.00    +0.000 N 
ATOM      8  C   UNL     1      -2.766  -1.251  -0.392  0.00  0.00    +0.000 C 
ATOM      9  O   UNL     1      -3.720  -0.688  -1.018  0.00  0.00    +0.000 OA
ATOM     10  C   UNL     1      -3.233  -2.278   0.530  0.00  0.00    +0.000 A 
ATOM     11  C   UNL     1      -4.532  -2.065   0.944  0.00  0.00    +0.000 A 
ATOM     12  C   UNL     1      -5.157  -2.927   1.820  0.00  0.00    +0.000 A 
ATOM     13  C   UNL     1      -4.471  -4.016   2.287  0.00  0.00    +0.000 A 
ATOM     14  C   UNL     1      -3.172  -4.220   1.867  0.00  0.00    +0.000 A 
ATOM     15  C   UNL     1      -2.544  -3.362   0.993  0.00  0.00    +0.000 A 
ATOM     16  S   UNL     1      -0.881  -3.914   0.659  0.00  0.00    +0.000 S 
ENDROOT
BRANCH   1  18
ATOM     17  N   UNL     1       4.351   0.495   0.701  0.00  0.00    +0.000 NA
ATOM     18  C   UNL     1       3.042   0.683   0.212  0.00  0.00    +0.000 C 
ATOM     19  O   UNL     1       2.758   1.799  -0.293  0.00  0.00    +0.000 OA
BRANCH  17  20
ATOM     20  C   UNL     1       5.365   1.558   0.631  0.00  0.00    +0.000 C 
BRANCH  20  21
ATOM     21  C   UNL     1       6.653   1.017   1.245  0.00  0.00    +0.000 C 
BRANCH  21  23
ATOM     22  C   UNL     1       7.191   3.280   1.977  0.00  0.00    +0.000 C 
ATOM     23  C   UNL     1       7.713   2.095   1.184  0.00  0.00    +0.000 C 
ENDBRANCH  21  23
ENDBRANCH  20  21
ENDBRANCH  17  20
ENDBRANCH   1  18
BRANCH   7  24
ATOM     24  C   UNL     1      -1.338   0.199  -1.669  0.00  0.00    +0.000 C 
BRANCH  24  25
ATOM     25  C   UNL     1      -1.408   1.566  -1.105  0.00  0.00    +0.000 A 
ATOM     26  C   UNL     1      -1.553   1.855   0.216  0.00  0.00    +0.000 A 
ATOM     27  C   UNL     1      -1.610   3.159   0.662  0.00  0.00    +0.000 A 
ATOM     28  C   UNL     1      -1.523   4.233  -0.204  0.00  0.00    +0.000 A 
ATOM     29  C   UNL     1      -1.587   5.628   0.298  0.00  0.00    +0.000 C 
ATOM     30  C   UNL     1      -1.376   3.932  -1.545  0.00  0.00    +0.000 A 
ATOM     31  C   UNL     1      -1.318   2.617  -2.004  0.00  0.00    +0.000 A 
ENDBRANCH  24  25
ENDBRANCH   7  24
TORSDOF 6
