REMARK  Name = 
REMARK  9 active torsions:
REMARK  status: ('A' for Active; 'I' for Inactive)
REMARK    1  A    between atoms: C_2  and  C_3
REMARK    2  A    between atoms: C_3  and  C_4
REMARK    3  A    between atoms: C_4  and  C_5
REMARK    4  A    between atoms: C_5  and  O_6
REMARK    5  A    between atoms: O_6  and  C_7
REMARK    6  A    between atoms: C_7  and  C_9
REMARK    7  A    between atoms: N_12  and  C_13
REMARK    8  A    between atoms: C_13  and  C_14
REMARK    9  A    between atoms: C_17  and  O_18
REMARK                            x       y       z     vdW  Elec       q    Type
REMARK                         _______ _______ _______ _____ _____    ______ ____
ROOT
ATOM      1  C   UNL     1       1.230   0.050   0.673  0.00  0.00    +0.000 A 
ATOM      2  C   UNL     1       0.147   0.590   1.324  0.00  0.00    +0.000 A 
ATOM      3  N   UNL     1       0.142   1.898   1.901  0.00  0.00    +0.000 NA
ATOM      4  N   UNL     1      -0.880  -0.260   1.341  0.00  0.00    +0.000 N 
ATOM      5  C   UNL     1      -0.451  -1.375   0.687  0.00  0.00    +0.000 A 
ATOM      6  N   UNL     1      -1.094  -2.527   0.426  0.00  0.00    +0.000 NA
ATOM      7  C   UNL     1      -0.440  -3.509  -0.256  0.00  0.00    +0.000 A 
ATOM      8  C   UNL     1      -1.102  -4.708  -0.531  0.00  0.00    +0.000 A 
ATOM      9  C   UNL     1      -0.436  -5.692  -1.217  0.00  0.00    +0.000 A 
ATOM     10  C   UNL     1       0.863  -5.529  -1.640  0.00  0.00    +0.000 A 
ATOM     11  C   UNL     1       1.533  -4.359  -1.381  0.00  0.00    +0.000 A 
ATOM     12  C   UNL     1       0.858  -3.348  -0.679  0.00  0.00    +0.000 A 
ATOM     13  N   UNL     1       1.506  -2.183  -0.414  0.00  0.00    +0.000 NA
ATOM     14  C   UNL     1       0.841  -1.230   0.259  0.00  0.00    +0.000 A 
ENDROOT
BRANCH   1  15
ATOM     15  C   UNL     1       2.539   0.645   0.436  0.00  0.00    +0.000 C 
ATOM     16  O   UNL     1       3.419  -0.002  -0.184  0.00  0.00    +0.000 OA
BRANCH  15  17
ATOM     17  O   UNL     1       2.881   1.911   0.863  0.00  0.00    +0.000 OA
BRANCH  17  18
ATOM     18  C   UNL     1       4.176   2.459   0.610  0.00  0.00    +0.000 C 
BRANCH  18  19
ATOM     19  C   UNL     1       4.361   2.498  -0.900  0.00  0.00    +0.000 C 
BRANCH  19  20
ATOM     20  C   UNL     1       5.690   3.057  -1.288  0.00  0.00    +0.000 C 
BRANCH  20  22
ATOM     21  C   UNL     1       5.767   4.450   0.716  0.00  0.00    +0.000 C 
ATOM     22  C   UNL     1       5.870   4.455  -0.792  0.00  0.00    +0.000 C 
ENDBRANCH  20  22
ENDBRANCH  19  20
ENDBRANCH  18  19
ENDBRANCH  17  18
ENDBRANCH  15  17
ENDBRANCH   1  15
BRANCH   4  23
ATOM     23  C   UNL     1      -2.206  -0.116   1.910  0.00  0.00    +0.000 C 
BRANCH  23  24
ATOM     24  C   UNL     1      -3.126   0.459   0.920  0.00  0.00    +0.000 A 
ATOM     25  C   UNL     1      -3.884  -0.263   0.035  0.00  0.00    +0.000 A 
ATOM     26  C   UNL     1      -4.732   0.361  -0.873  0.00  0.00    +0.000 A 
ATOM     27  C   UNL     1      -4.807   1.738  -0.877  0.00  0.00    +0.000 A 
ATOM     28  C   UNL     1      -4.059   2.490  -0.002  0.00  0.00    +0.000 A 
ATOM     29  C   UNL     1      -3.237   1.838   0.875  0.00  0.00    +0.000 A 
BRANCH  27  30
ATOM     30  O   UNL     1      -5.637   2.405  -1.763  0.00  0.00    +0.000 OA
ATOM     31  C   UNL     1      -5.732   3.796  -1.789  0.00  0.00    +0.000 C 
ENDBRANCH  27  30
ENDBRANCH  23  24
ENDBRANCH   4  23
TORSDOF 9
