REMARK  Name = 
REMARK  8 active torsions:
REMARK  status: ('A' for Active; 'I' for Inactive)
REMARK    1  A    between atoms: C_2  and  C_3
REMARK    2  A    between atoms: C_3  and  C_4
REMARK    3  A    between atoms: C_4  and  C_5
REMARK    4  A    between atoms: C_5  and  N_6
REMARK    5  A    between atoms: C_7  and  C_9
REMARK    6  A    between atoms: N_12  and  C_13
REMARK    7  A    between atoms: C_13  and  C_14
REMARK    8  A    between atoms: C_14  and  C_15
REMARK                            x       y       z     vdW  Elec       q    Type
REMARK                         _______ _______ _______ _____ _____    ______ ____
ROOT
ATOM      1  C   UNL     1       1.078  -0.427   0.973  0.00  0.00    +0.000 A 
ATOM      2  C   UNL     1       0.132  -0.680   1.940  0.00  0.00    +0.000 A 
ATOM      3  N   UNL     1       0.339  -1.596   3.008  0.00  0.00    +0.000 NA
ATOM      4  N   UNL     1      -0.968   0.067   1.692  0.00  0.00    +0.000 N 
ATOM      5  C   UNL     1      -0.788   0.818   0.582  0.00  0.00    +0.000 A 
ATOM      6  N   UNL     1      -1.566   1.706  -0.063  0.00  0.00    +0.000 NA
ATOM      7  C   UNL     1      -1.118   2.322  -1.172  0.00  0.00    +0.000 A 
ATOM      8  C   UNL     1      -1.933   3.246  -1.840  0.00  0.00    +0.000 A 
ATOM      9  C   UNL     1      -1.465   3.872  -2.975  0.00  0.00    +0.000 A 
ATOM     10  C   UNL     1      -0.196   3.566  -3.422  0.00  0.00    +0.000 A 
ATOM     11  C   UNL     1       0.606   2.656  -2.765  0.00  0.00    +0.000 A 
ATOM     12  C   UNL     1       0.151   2.014  -1.617  0.00  0.00    +0.000 A 
ATOM     13  N   UNL     1       0.928   1.124  -0.969  0.00  0.00    +0.000 NA
ATOM     14  C   UNL     1       0.490   0.503   0.141  0.00  0.00    +0.000 A 
ENDROOT
BRANCH   1  16
ATOM     15  N   UNL     1       3.287  -0.673  -0.185  0.00  0.00    +0.000 NA
ATOM     16  C   UNL     1       2.402  -1.019   0.865  0.00  0.00    +0.000 C 
ATOM     17  O   UNL     1       2.772  -1.854   1.718  0.00  0.00    +0.000 OA
BRANCH  15  18
ATOM     18  C   UNL     1       4.610  -1.259  -0.299  0.00  0.00    +0.000 C 
BRANCH  18  19
ATOM     19  C   UNL     1       5.407  -0.930   0.945  0.00  0.00    +0.000 C 
BRANCH  19  20
ATOM     20  C   UNL     1       6.784  -1.542   0.821  0.00  0.00    +0.000 C 
BRANCH  20  22
ATOM     21  C   UNL     1       5.806  -3.319  -0.570  0.00  0.00    +0.000 C 
ATOM     22  C   UNL     1       6.631  -3.033   0.680  0.00  0.00    +0.000 C 
ENDBRANCH  20  22
ENDBRANCH  19  20
ENDBRANCH  18  19
ENDBRANCH  15  18
ENDBRANCH   1  16
BRANCH   4  23
ATOM     23  C   UNL     1      -2.120   0.010   2.550  0.00  0.00    +0.000 C 
BRANCH  23  24
ATOM     24  C   UNL     1      -3.037  -1.080   2.052  0.00  0.00    +0.000 C 
BRANCH  24  25
ATOM     25  C   UNL     1      -3.459  -0.759   0.673  0.00  0.00    +0.000 A 
ATOM     26  C   UNL     1      -2.906  -1.402  -0.399  0.00  0.00    +0.000 A 
ATOM     27  C   UNL     1      -3.335  -1.067  -1.674  0.00  0.00    +0.000 A 
ATOM     28  C   UNL     1      -4.299  -0.109  -1.903  0.00  0.00    +0.000 A 
ATOM     29  C   UNL     1      -4.849   0.532  -0.813  0.00  0.00    +0.000 A 
ATOM     30  C   UNL     1      -4.432   0.209   0.472  0.00  0.00    +0.000 A 
ATOM     31  F   UNL     1      -4.952   0.819   1.553  0.00  0.00    +0.000 F 
ENDBRANCH  24  25
ENDBRANCH  23  24
ENDBRANCH   4  23
TORSDOF 8
