REMARK  Name = 
REMARK  5 active torsions:
REMARK  status: ('A' for Active; 'I' for Inactive)
REMARK    1  A    between atoms: C_2  and  C_3
REMARK    2  A    between atoms: C_8  and  C_10
REMARK    3  A    between atoms: C_22  and  O_23
REMARK    4  A    between atoms: O_23  and  C_24
REMARK    5  A    between atoms: C_24  and  C_25
REMARK                            x       y       z     vdW  Elec       q    Type
REMARK                         _______ _______ _______ _____ _____    ______ ____
ROOT
ATOM      1  C   UNL     1      -1.029   0.327   0.706  0.00  0.00    +0.000 C 
ATOM      2  C   UNL     1      -1.067  -1.141   0.311  0.00  0.00    +0.000 C 
ATOM      3  C   UNL     1      -2.302  -1.439  -0.512  0.00  0.00    +0.000 C 
ATOM      4  C   UNL     1      -2.154  -0.979  -1.945  0.00  0.00    +0.000 C 
ATOM      5  O   UNL     1      -2.564  -2.803  -0.553  0.00  0.00    +0.000 OA
ATOM      6  C   UNL     1      -3.493  -0.772   0.151  0.00  0.00    +0.000 C 
ATOM      7  O   UNL     1      -3.568  -1.289   1.441  0.00  0.00    +0.000 OA
ATOM      8  C   UNL     1      -3.349   0.733   0.236  0.00  0.00    +0.000 C 
ATOM      9  C   UNL     1      -1.904   1.076  -0.455  0.00  0.00    +0.000 C 
ATOM     10  C   UNL     1      -1.796   2.565   0.208  0.00  0.00    +0.000 C 
ATOM     11  C   UNL     1      -0.515   3.054  -0.426  0.00  0.00    +0.000 C 
ATOM     12  C   UNL     1       0.601   2.154   0.055  0.00  0.00    +0.000 A 
ATOM     13  C   UNL     1       1.895   2.584  -0.024  0.00  0.00    +0.000 A 
ATOM     14  C   UNL     1       2.977   1.801   0.398  0.00  0.00    +0.000 A 
ATOM     15  C   UNL     1       2.698   0.571   0.901  0.00  0.00    +0.000 A 
ATOM     16  C   UNL     1       1.384   0.122   0.989  0.00  0.00    +0.000 A 
ATOM     17  C   UNL     1       0.327   0.896   0.572  0.00  0.00    +0.000 A 
ENDROOT
BRANCH   6  18
ATOM     18  C   UNL     1      -4.697  -1.143  -0.627  0.00  0.00    +0.000 A 
ATOM     19  C   UNL     1      -4.638  -1.165  -2.009  0.00  0.00    +0.000 A 
ATOM     20  C   UNL     1      -5.737  -1.510  -2.760  0.00  0.00    +0.000 A 
ATOM     21  C   UNL     1      -6.902  -1.835  -2.132  0.00  0.00    +0.000 A 
ATOM     22  C   UNL     1      -6.918  -1.800  -0.752  0.00  0.00    +0.000 A 
ATOM     23  N   UNL     1      -5.850  -1.465  -0.026  0.00  0.00    +0.000 NA
ENDBRANCH   6  18
BRANCH   1  25
ATOM     24  C   UNL     1      -1.572   2.029   2.418  0.00  0.00    +0.000 C 
ATOM     25  C   UNL     1      -1.623   0.583   2.027  0.00  0.00    +0.000 C 
ENDBRANCH   1  25
BRANCH  14  26
ATOM     26  O   UNL     1       4.258   2.279   0.293  0.00  0.00    +0.000 OA
BRANCH  26  27
ATOM     27  C   UNL     1       5.391   1.590   0.658  0.00  0.00    +0.000 C 
BRANCH  27  28
ATOM     28  C   UNL     1       5.518   0.348  -0.130  0.00  0.00    +0.000 A 
ATOM     29  C   UNL     1       4.647  -0.101  -1.075  0.00  0.00    +0.000 A 
ATOM     30  C   UNL     1       4.867  -1.270  -1.741  0.00  0.00    +0.000 A 
ATOM     31  C   UNL     1       5.996  -2.019  -1.453  0.00  0.00    +0.000 A 
ATOM     32  N   UNL     1       6.837  -1.567  -0.525  0.00  0.00    +0.000 NA
ATOM     33  C   UNL     1       6.642  -0.433   0.134  0.00  0.00    +0.000 A 
ATOM     34  C   UNL     1       7.640   0.020   1.173  0.00  0.00    +0.000 C 
ENDBRANCH  27  28
ENDBRANCH  26  27
ENDBRANCH  14  26
TORSDOF 5
