REMARK  Name = 
REMARK  6 active torsions:
REMARK  status: ('A' for Active; 'I' for Inactive)
REMARK    1  A    between atoms: O_2  and  C_3
REMARK    2  A    between atoms: C_6  and  C_7
REMARK    3  A    between atoms: C_7  and  C_8
REMARK    4  A    between atoms: C_8  and  N_9
REMARK    5  A    between atoms: C_10  and  C_12
REMARK    6  A    between atoms: C_15  and  C_16
REMARK                            x       y       z     vdW  Elec       q    Type
REMARK                         _______ _______ _______ _____ _____    ______ ____
ROOT
ATOM      1  C   UNL     1      -1.298  -0.581  -0.199  0.00  0.00    +0.000 A 
ATOM      2  C   UNL     1      -2.121   0.526  -0.186  0.00  0.00    +0.000 A 
ATOM      3  C   UNL     1      -1.538   1.880  -0.425  0.00  0.00    +0.000 C 
ATOM      4  C   UNL     1      -3.482   0.403   0.044  0.00  0.00    +0.000 A 
ATOM      5  N   UNL     1      -3.959  -0.838   0.253  0.00  0.00    +0.000 NA
ATOM      6  C   UNL     1      -3.177  -1.953   0.249  0.00  0.00    +0.000 A 
ATOM      7  C   UNL     1      -3.714  -3.202   0.469  0.00  0.00    +0.000 A 
ATOM      8  C   UNL     1      -2.881  -4.296   0.454  0.00  0.00    +0.000 A 
ATOM      9  C   UNL     1      -1.519  -4.197   0.226  0.00  0.00    +0.000 A 
ATOM     10  C   UNL     1      -0.694  -5.434   0.227  0.00  0.00    +0.000 C 
ATOM     11  C   UNL     1      -0.965  -2.947   0.003  0.00  0.00    +0.000 A 
ATOM     12  C   UNL     1      -1.824  -1.858   0.023  0.00  0.00    +0.000 A 
ENDROOT
BRANCH   4  13
ATOM     13  C   UNL     1      -4.358   1.566   0.058  0.00  0.00    +0.000 A 
ATOM     14  C   UNL     1      -5.567   1.554  -0.594  0.00  0.00    +0.000 A 
ATOM     15  C   UNL     1      -6.408   2.672  -0.580  0.00  0.00    +0.000 A 
ATOM     16  C   UNL     1      -6.031   3.811   0.095  0.00  0.00    +0.000 A 
ATOM     17  C   UNL     1      -4.834   3.827   0.743  0.00  0.00    +0.000 A 
ATOM     18  C   UNL     1      -3.996   2.708   0.727  0.00  0.00    +0.000 A 
ENDBRANCH   4  13
BRANCH   1  20
ATOM     19  N   UNL     1       0.680   0.814  -0.664  0.00  0.00    +0.000 NA
ATOM     20  C   UNL     1       0.124  -0.472  -0.437  0.00  0.00    +0.000 C 
ATOM     21  O   UNL     1       0.861  -1.459  -0.448  0.00  0.00    +0.000 OA
BRANCH  19  22
ATOM     22  C   UNL     1       2.111   0.980  -0.910  0.00  0.00    +0.000 C 
BRANCH  22  23
ATOM     23  C   UNL     1       2.815   0.441   0.322  0.00  0.00    +0.000 C 
BRANCH  23  27
ATOM     24  C   UNL     1       7.070   0.653  -0.157  0.00  0.00    +0.000 A 
ATOM     25  C   UNL     1       6.362  -0.456  -0.565  0.00  0.00    +0.000 A 
ATOM     26  C   UNL     1       4.993  -0.498  -0.399  0.00  0.00    +0.000 A 
ATOM     27  C   UNL     1       4.288   0.562   0.178  0.00  0.00    +0.000 A 
ATOM     28  C   UNL     1       5.002   1.657   0.578  0.00  0.00    +0.000 A 
ATOM     29  C   UNL     1       6.369   1.696   0.411  0.00  0.00    +0.000 A 
BRANCH  24  31
ATOM     30  C   UNL     1       9.251   1.757   0.050  0.00  0.00    +0.000 C 
ATOM     31  O   UNL     1       8.440   0.685  -0.327  0.00  0.00    +0.000 OA
ENDBRANCH  24  31
ENDBRANCH  23  27
ENDBRANCH  22  23
ENDBRANCH  19  22
ENDBRANCH   1  20
TORSDOF 6
