REMARK  Name = 
REMARK  8 active torsions:
REMARK  status: ('A' for Active; 'I' for Inactive)
REMARK    1  A    between atoms: C_2  and  O_3
REMARK    2  A    between atoms: O_3  and  C_4
REMARK    3  A    between atoms: C_7  and  C_8
REMARK    4  A    between atoms: C_10  and  C_11
REMARK    5  A    between atoms: N_13  and  C_14
REMARK    6  A    between atoms: C_14  and  C_15
REMARK    7  A    between atoms: C_23  and  O_24
REMARK    8  A    between atoms: C_26  and  O_27
REMARK                            x       y       z     vdW  Elec       q    Type
REMARK                         _______ _______ _______ _____ _____    ______ ____
ROOT
ATOM      1  C   UNL     1      -0.587  -0.143   0.270  0.00  0.00    +0.000 A 
ATOM      2  C   UNL     1       0.680  -0.681   0.490  0.00  0.00    +0.000 A 
ATOM      3  C   UNL     1       1.792   0.118   0.653  0.00  0.00    +0.000 A 
ATOM      4  C   UNL     1       1.605   1.476   0.589  0.00  0.00    +0.000 A 
ATOM      5  C   UNL     1       0.376   2.059   0.374  0.00  0.00    +0.000 A 
ATOM      6  C   UNL     1       0.175   3.422   0.308  0.00  0.00    +0.000 A 
ATOM      7  C   UNL     1      -1.062   3.990   0.092  0.00  0.00    +0.000 A 
ATOM      8  C   UNL     1      -2.144   3.145  -0.064  0.00  0.00    +0.000 A 
ATOM      9  C   UNL     1      -1.964   1.785  -0.002  0.00  0.00    +0.000 A 
ATOM     10  C   UNL     1      -0.712   1.229   0.216  0.00  0.00    +0.000 A 
ENDROOT
BRANCH   1  14
ATOM     11  C   UNL     1      -4.016  -2.663  -0.220  0.00  0.00    +0.000 A 
ATOM     12  C   UNL     1      -3.099  -2.906   0.787  0.00  0.00    +0.000 A 
ATOM     13  C   UNL     1      -1.990  -2.080   0.935  0.00  0.00    +0.000 A 
ATOM     14  C   UNL     1      -1.764  -1.005   0.099  0.00  0.00    +0.000 A 
ATOM     15  C   UNL     1      -2.670  -0.762  -0.898  0.00  0.00    +0.000 A 
ATOM     16  C   UNL     1      -3.759  -1.582  -1.034  0.00  0.00    +0.000 A 
BRANCH  11  17
ATOM     17  O   UNL     1      -5.134  -3.462  -0.401  0.00  0.00    +0.000 OA
BRANCH  17  19
ATOM     18  C   UNL     1      -7.176  -4.099  -1.517  0.00  0.00    +0.000 C 
ATOM     19  C   UNL     1      -6.024  -3.146  -1.454  0.00  0.00    +0.000 C 
ENDBRANCH  17  19
ENDBRANCH  11  17
ENDBRANCH   1  14
BRANCH   3  20
ATOM     20  C   UNL     1       3.115  -0.470   0.883  0.00  0.00    +0.000 C 
ATOM     21  O   UNL     1       4.104   0.278   1.027  0.00  0.00    +0.000 OA
ATOM     22  N   UNL     1       3.287  -1.860   0.946  0.00  0.00    +0.000 NA
BRANCH  22  23
ATOM     23  C   UNL     1       4.615  -2.392   1.176  0.00  0.00    +0.000 C 
BRANCH  23  24
ATOM     24  C   UNL     1       5.574  -1.990   0.119  0.00  0.00    +0.000 A 
ATOM     25  C   UNL     1       5.834  -2.690  -1.053  0.00  0.00    +0.000 A 
ATOM     26  C   UNL     1       6.786  -1.938  -1.716  0.00  0.00    +0.000 A 
ATOM     27  C   UNL     1       7.050  -0.844  -0.931  0.00  0.00    +0.000 A 
ATOM     28  O   UNL     1       6.313  -0.910   0.147  0.00  0.00    +0.000 OA
ENDBRANCH  23  24
ENDBRANCH  22  23
ENDBRANCH   3  20
BRANCH   7  29
ATOM     29  O   UNL     1      -1.217   5.379   0.033  0.00  0.00    +0.000 OA
ATOM     30  C   UNL     1      -0.086   6.191   0.198  0.00  0.00    +0.000 C 
ENDBRANCH   7  29
BRANCH   8  31
ATOM     31  O   UNL     1      -3.390   3.713  -0.282  0.00  0.00    +0.000 OA
ATOM     32  C   UNL     1      -4.514   2.839  -0.444  0.00  0.00    +0.000 C 
ENDBRANCH   8  31
TORSDOF 8
