REMARK  Name = 
REMARK  6 active torsions:
REMARK  status: ('A' for Active; 'I' for Inactive)
REMARK    1  A    between atoms: C_7  and  C_8
REMARK    2  A    between atoms: C_8  and  O_9
REMARK    3  A    between atoms: O_9  and  C_10
REMARK    4  A    between atoms: C_13  and  C_14
REMARK    5  A    between atoms: C_14  and  C_15
REMARK    6  A    between atoms: C_16  and  C_17
REMARK                            x       y       z     vdW  Elec       q    Type
REMARK                         _______ _______ _______ _____ _____    ______ ____
ROOT
ATOM      1  C   UNL     1      -2.473  -0.650   0.065  0.00  0.00    +0.000 A 
ATOM      2  C   UNL     1      -2.874   0.583   0.466  0.00  0.00    +0.000 A 
ATOM      3  C   UNL     1      -3.478   0.633   1.745  0.00  0.00    +0.000 A 
ATOM      4  C   UNL     1      -3.647  -0.489   2.518  0.00  0.00    +0.000 A 
ATOM      5  C   UNL     1      -3.235  -1.731   2.084  0.00  0.00    +0.000 A 
ATOM      6  C   UNL     1      -3.383  -2.884   2.823  0.00  0.00    +0.000 A 
ATOM      7  C   UNL     1      -2.959  -4.116   2.364  0.00  0.00    +0.000 A 
ATOM      8  O   UNL     1      -3.104  -5.271   3.097  0.00  0.00    +0.000 OA
ATOM      9  C   UNL     1      -2.366  -4.187   1.122  0.00  0.00    +0.000 A 
ATOM     10  C   UNL     1      -2.213  -3.014   0.368  0.00  0.00    +0.000 A 
ATOM     11  C   UNL     1      -2.648  -1.801   0.855  0.00  0.00    +0.000 A 
ENDROOT
BRANCH   2  12
ATOM     12  C   UNL     1      -2.839   1.807  -0.325  0.00  0.00    +0.000 A 
ATOM     13  C   UNL     1      -3.963   2.659  -0.226  0.00  0.00    +0.000 A 
ATOM     14  C   UNL     1      -4.072   3.834  -0.925  0.00  0.00    +0.000 A 
ATOM     15  C   UNL     1      -3.069   4.254  -1.780  0.00  0.00    +0.000 A 
ATOM     16  O   UNL     1      -3.188   5.441  -2.482  0.00  0.00    +0.000 OA
ATOM     17  C   UNL     1      -1.966   3.430  -1.884  0.00  0.00    +0.000 A 
ATOM     18  C   UNL     1      -1.888   2.258  -1.169  0.00  0.00    +0.000 A 
ENDBRANCH   2  12
BRANCH   1  19
ATOM     19  C   UNL     1      -1.721  -0.793  -1.201  0.00  0.00    +0.000 C 
BRANCH  19  23
ATOM     20  C   UNL     1       2.486  -0.956  -0.254  0.00  0.00    +0.000 A 
ATOM     21  C   UNL     1       1.697  -2.077  -0.275  0.00  0.00    +0.000 A 
ATOM     22  C   UNL     1       0.382  -1.978  -0.575  0.00  0.00    +0.000 A 
ATOM     23  C   UNL     1      -0.266  -0.754  -0.882  0.00  0.00    +0.000 A 
ATOM     24  C   UNL     1       0.569   0.314  -0.844  0.00  0.00    +0.000 A 
ATOM     25  C   UNL     1       1.914   0.279  -0.546  0.00  0.00    +0.000 A 
BRANCH  20  26
ATOM     26  O   UNL     1       3.824  -1.107   0.058  0.00  0.00    +0.000 OA
BRANCH  26  27
ATOM     27  C   UNL     1       4.643   0.048   0.084  0.00  0.00    +0.000 C 
BRANCH  27  34
ATOM     28  C   UNL     1       4.369   2.821  -0.994  0.00  0.00    +0.000 C 
ATOM     29  N   UNL     1       5.366   1.815  -1.393  0.00  0.00    +0.000 NA
ATOM     30  C   UNL     1       6.329   1.712  -0.409  0.00  0.00    +0.000 C 
ATOM     31  C   UNL     1       7.025   0.423  -0.210  0.00  0.00    +0.000 C 
ATOM     32  C   UNL     1       6.690  -0.639  -1.205  0.00  0.00    +0.000 C 
ATOM     33  C   UNL     1       5.609  -0.409  -2.128  0.00  0.00    +0.000 C 
ATOM     34  C   UNL     1       4.449   0.544  -1.472  0.00  0.00    +0.000 C 
ENDBRANCH  27  34
ENDBRANCH  26  27
ENDBRANCH  20  26
ENDBRANCH  19  23
ENDBRANCH   1  19
TORSDOF 6
