REMARK  Name = 
REMARK  8 active torsions:
REMARK  status: ('A' for Active; 'I' for Inactive)
REMARK    1  A    between atoms: C_2  and  O_3
REMARK    2  A    between atoms: O_3  and  C_4
REMARK    3  A    between atoms: C_6  and  C_7
REMARK    4  A    between atoms: N_8  and  C_9
REMARK    5  A    between atoms: C_12  and  N_13
REMARK    6  A    between atoms: C_21  and  O_22
REMARK    7  A    between atoms: O_22  and  C_23
REMARK    8  A    between atoms: C_23  and  C_24
REMARK                            x       y       z     vdW  Elec       q    Type
REMARK                         _______ _______ _______ _____ _____    ______ ____
ROOT
ATOM      1  C   UNL     1      -2.236  -1.843  -0.775  0.00  0.00    +0.000 A 
ATOM      2  C   UNL     1      -0.921  -1.496  -0.557  0.00  0.00    +0.000 A 
ATOM      3  C   UNL     1      -0.493  -0.199  -0.602  0.00  0.00    +0.000 A 
ATOM      4  C   UNL     1      -1.436   0.796  -0.879  0.00  0.00    +0.000 A 
ATOM      5  C   UNL     1      -2.748   0.439  -1.096  0.00  0.00    +0.000 A 
ATOM      6  C   UNL     1      -3.185  -0.867  -1.052  0.00  0.00    +0.000 A 
ENDROOT
BRANCH   3   7
ATOM      7  C   UNL     1       0.865   0.241  -0.385  0.00  0.00    +0.000 C 
ATOM      8  N   UNL     1       1.860  -0.504  -0.122  0.00  0.00    +0.000 NA
BRANCH   8   9
ATOM      9  C   UNL     1       3.184  -0.036   0.086  0.00  0.00    +0.000 A 
ATOM     10  C   UNL     1       3.466   0.579   1.283  0.00  0.00    +0.000 A 
ATOM     11  C   UNL     1       4.741   1.065   1.560  0.00  0.00    +0.000 A 
ATOM     12  C   UNL     1       5.747   0.926   0.612  0.00  0.00    +0.000 A 
ATOM     13  C   UNL     1       5.466   0.317  -0.573  0.00  0.00    +0.000 A 
ATOM     14  C   UNL     1       4.182  -0.170  -0.848  0.00  0.00    +0.000 A 
BRANCH  12  15
ATOM     15  N   UNL     1       7.024   1.446   0.967  0.00  0.00    +0.000 NA
ATOM     16  C   UNL     1       8.144   1.381   0.109  0.00  0.00    +0.000 C 
ATOM     17  C   UNL     1       9.487   1.919   0.462  0.00  0.00    +0.000 C 
ATOM     18  O   UNL     1       7.959   0.821  -1.025  0.00  0.00    +0.000 OA
ENDBRANCH  12  15
ENDBRANCH   8   9
ENDBRANCH   3   7
BRANCH   1  19
ATOM     19  O   UNL     1      -2.686  -3.157  -0.733  0.00  0.00    +0.000 OA
BRANCH  19  21
ATOM     20  C   UNL     1      -2.638  -5.518  -0.494  0.00  0.00    +0.000 C 
ATOM     21  C   UNL     1      -1.825  -4.239  -0.463  0.00  0.00    +0.000 C 
ENDBRANCH  19  21
ENDBRANCH   1  19
BRANCH   6  22
ATOM     22  O   UNL     1      -4.518  -1.237  -1.271  0.00  0.00    +0.000 OA
BRANCH  22  23
ATOM     23  C   UNL     1      -5.471  -0.246  -1.546  0.00  0.00    +0.000 C 
BRANCH  23  24
ATOM     24  C   UNL     1      -5.562   0.713  -0.400  0.00  0.00    +0.000 A 
ATOM     25  C   UNL     1      -4.911   0.438   0.785  0.00  0.00    +0.000 A 
ATOM     26  C   UNL     1      -5.012   1.338   1.822  0.00  0.00    +0.000 A 
ATOM     27  C   UNL     1      -5.759   2.483   1.647  0.00  0.00    +0.000 A 
ATOM     28  C   UNL     1      -6.408   2.747   0.454  0.00  0.00    +0.000 A 
ATOM     29  C   UNL     1      -6.316   1.863  -0.584  0.00  0.00    +0.000 A 
ENDBRANCH  23  24
ENDBRANCH  22  23
ENDBRANCH   6  22
TORSDOF 8
