REMARK  Name = 
REMARK  7 active torsions:
REMARK  status: ('A' for Active; 'I' for Inactive)
REMARK    1  A    between atoms: C_2  and  C_3
REMARK    2  A    between atoms: C_7  and  C_8
REMARK    3  A    between atoms: C_10  and  N_11
REMARK    4  A    between atoms: C_12  and  C_14
REMARK    5  A    between atoms: C_14  and  O_15
REMARK    6  A    between atoms: O_15  and  C_16
REMARK    7  A    between atoms: C_16  and  C_18
REMARK                            x       y       z     vdW  Elec       q    Type
REMARK                         _______ _______ _______ _____ _____    ______ ____
ROOT
ATOM      1  C   UNL     1      -1.269  -0.446   0.370  0.00  0.00    +0.000 C 
ATOM      2  O   UNL     1      -0.732  -0.753   1.465  0.00  0.00    +0.000 OA
ENDROOT
BRANCH   1   3
ATOM      3  C   UNL     1      -2.588   0.216   0.437  0.00  0.00    +0.000 C 
ATOM      4  C   UNL     1      -2.667   1.538  -0.172  0.00  0.00    +0.000 A 
ATOM      5  C   UNL     1      -1.646   2.439   0.115  0.00  0.00    +0.000 A 
ATOM      6  C   UNL     1      -1.633   3.707  -0.414  0.00  0.00    +0.000 A 
ATOM      7  C   UNL     1      -2.663   4.088  -1.250  0.00  0.00    +0.000 A 
ATOM      8  C   UNL     1      -3.670   3.195  -1.530  0.00  0.00    +0.000 A 
ATOM      9  C   UNL     1      -3.679   1.908  -0.991  0.00  0.00    +0.000 A 
ATOM     10  O   UNL     1      -4.735   1.036  -1.309  0.00  0.00    +0.000 OA
ATOM     11  C   UNL     1      -4.700  -0.231  -0.747  0.00  0.00    +0.000 A 
ATOM     12  C   UNL     1      -5.763  -1.064  -1.087  0.00  0.00    +0.000 A 
ATOM     13  C   UNL     1      -5.824  -2.337  -0.584  0.00  0.00    +0.000 A 
ATOM     14  C   UNL     1      -4.830  -2.803   0.265  0.00  0.00    +0.000 A 
ATOM     15  C   UNL     1      -3.777  -1.942   0.586  0.00  0.00    +0.000 A 
ATOM     16  C   UNL     1      -3.699  -0.656   0.088  0.00  0.00    +0.000 A 
ENDBRANCH   1   3
BRANCH   1  17
ATOM     17  O   UNL     1      -0.582  -0.754  -0.777  0.00  0.00    +0.000 OA
BRANCH  17  18
ATOM     18  C   UNL     1       0.647  -1.380  -0.887  0.00  0.00    +0.000 C 
BRANCH  18  20
ATOM     19  N   UNL     1       3.061  -1.347  -0.344  0.00  0.00    +0.000 NA
ATOM     20  C   UNL     1       1.793  -0.745  -0.256  0.00  0.00    +0.000 C 
ATOM     21  O   UNL     1       1.662   0.328   0.364  0.00  0.00    +0.000 OA
BRANCH  19  27
ATOM     22  C   UNL     1       5.080   0.022  -0.414  0.00  0.00    +0.000 A 
ATOM     23  C   UNL     1       6.246   0.492   0.174  0.00  0.00    +0.000 A 
ATOM     24  C   UNL     1       6.584   0.084   1.426  0.00  0.00    +0.000 A 
ATOM     25  C   UNL     1       5.771  -0.788   2.100  0.00  0.00    +0.000 A 
ATOM     26  C   UNL     1       4.594  -1.259   1.498  0.00  0.00    +0.000 A 
ATOM     27  C   UNL     1       4.244  -0.845   0.220  0.00  0.00    +0.000 A 
BRANCH  22  29
ATOM     28  C   UNL     1       3.701   1.549  -1.808  0.00  0.00    +0.000 C 
ATOM     29  C   UNL     1       4.771   0.496  -1.776  0.00  0.00    +0.000 C 
ENDBRANCH  22  29
BRANCH  26  30
ATOM     30  C   UNL     1       3.755  -2.205   2.252  0.00  0.00    +0.000 C 
ATOM     31  C   UNL     1       2.549  -1.543   2.819  0.00  0.00    +0.000 C 
ENDBRANCH  26  30
ENDBRANCH  19  27
ENDBRANCH  18  20
ENDBRANCH  17  18
ENDBRANCH   1  17
TORSDOF 7
