REMARK  Name = 
REMARK  9 active torsions:
REMARK  status: ('A' for Active; 'I' for Inactive)
REMARK    1  A    between atoms: O_2  and  C_3
REMARK    2  A    between atoms: C_6  and  S_7
REMARK    3  A    between atoms: S_7  and  N_10
REMARK    4  A    between atoms: N_10  and  C_11
REMARK    5  A    between atoms: C_11  and  C_13
REMARK    6  A    between atoms: C_13  and  C_14
REMARK    7  A    between atoms: C_14  and  C_15
REMARK    8  A    between atoms: N_17  and  C_18
REMARK    9  A    between atoms: C_18  and  C_19
REMARK                            x       y       z     vdW  Elec       q    Type
REMARK                         _______ _______ _______ _____ _____    ______ ____
ROOT
ATOM      1  C   UNL     1      -0.630   0.882   1.759  0.00  0.00    +0.000 C 
ENDROOT
BRANCH   1   2
ATOM      2  C   UNL     1      -1.563   0.562   0.682  0.00  0.00    +0.000 A 
ATOM      3  C   UNL     1      -2.815   1.194   0.605  0.00  0.00    +0.000 A 
ATOM      4  N   UNL     1      -3.485   0.746  -0.456  0.00  0.00    +0.000 N 
ATOM      5  C   UNL     1      -2.707  -0.161  -1.075  0.00  0.00    +0.000 A 
ATOM      6  C   UNL     1      -2.929  -0.901  -2.191  0.00  0.00    +0.000 A 
ATOM      7  C   UNL     1      -1.988  -1.784  -2.659  0.00  0.00    +0.000 A 
ATOM      8  C   UNL     1      -0.800  -1.914  -1.977  0.00  0.00    +0.000 A 
ATOM      9  C   UNL     1      -0.585  -1.164  -0.853  0.00  0.00    +0.000 A 
ATOM     10  C   UNL     1      -1.508  -0.285  -0.377  0.00  0.00    +0.000 A 
BRANCH   4  11
ATOM     11  C   UNL     1      -4.826   1.187  -0.844  0.00  0.00    +0.000 C 
BRANCH  11  12
ATOM     12  C   UNL     1      -5.772   0.263  -0.143  0.00  0.00    +0.000 A 
ATOM     13  C   UNL     1      -6.202   0.645   1.133  0.00  0.00    +0.000 A 
ATOM     14  C   UNL     1      -7.072  -0.185   1.803  0.00  0.00    +0.000 A 
ATOM     15  C   UNL     1      -7.499  -1.347   1.233  0.00  0.00    +0.000 A 
ATOM     16  C   UNL     1      -7.071  -1.718  -0.028  0.00  0.00    +0.000 A 
ATOM     17  C   UNL     1      -6.213  -0.916  -0.708  0.00  0.00    +0.000 A 
ENDBRANCH  11  12
ENDBRANCH   4  11
ENDBRANCH   1   2
BRANCH   1  18
ATOM     18  C   UNL     1       0.473   1.788   1.286  0.00  0.00    +0.000 C 
BRANCH  18  19
ATOM     19  C   UNL     1       1.230   0.827   0.190  0.00  0.00    +0.000 C 
ATOM     20  C   UNL     1       2.650   1.642   0.308  0.00  0.00    +0.000 C 
BRANCH  19  21
ATOM     21  N   UNL     1       1.597  -0.249   1.271  0.00  0.00    +0.000 NA
BRANCH  21  22
ATOM     22  S   UNL     1       2.853  -1.229   0.752  0.00  0.00    +0.000 S 
ATOM     23  O   UNL     1       3.141  -2.220   1.877  0.00  0.00    +0.000 OA
ATOM     24  O   UNL     1       2.495  -2.093  -0.427  0.00  0.00    +0.000 OA
BRANCH  22  28
ATOM     25  C   UNL     1       6.706   1.114  -0.004  0.00  0.00    +0.000 A 
ATOM     26  C   UNL     1       5.858   0.791  -1.041  0.00  0.00    +0.000 A 
ATOM     27  C   UNL     1       4.708   0.092  -0.821  0.00  0.00    +0.000 A 
ATOM     28  C   UNL     1       4.321  -0.334   0.455  0.00  0.00    +0.000 A 
ATOM     29  C   UNL     1       5.192   0.005   1.480  0.00  0.00    +0.000 A 
ATOM     30  C   UNL     1       6.356   0.711   1.264  0.00  0.00    +0.000 A 
BRANCH  25  32
ATOM     31  C   UNL     1       8.193   2.219  -1.556  0.00  0.00    +0.000 C 
ATOM     32  O   UNL     1       7.892   1.834  -0.227  0.00  0.00    +0.000 OA
ENDBRANCH  25  32
ENDBRANCH  22  28
ENDBRANCH  21  22
ENDBRANCH  19  21
ENDBRANCH  18  19
ENDBRANCH   1  18
TORSDOF 9
