REMARK  Name = 
REMARK  5 active torsions:
REMARK  status: ('A' for Active; 'I' for Inactive)
REMARK    1  A    between atoms: O_2  and  C_3
REMARK    2  A    between atoms: C_8  and  N_9
REMARK    3  A    between atoms: C_10  and  C_12
REMARK    4  A    between atoms: C_13  and  N_14
REMARK    5  A    between atoms: C_15  and  C_17
REMARK                            x       y       z     vdW  Elec       q    Type
REMARK                         _______ _______ _______ _____ _____    ______ ____
ROOT
ATOM      1  C   UNL     1       0.097  -1.416  -0.165  0.00  0.00    +0.000 A 
ATOM      2  C   UNL     1      -1.088  -0.768  -0.039  0.00  0.00    +0.000 A 
ATOM      3  S   UNL     1      -2.231  -2.096  -0.340  0.00  0.00    +0.000 S 
ATOM      4  C   UNL     1      -1.149  -3.343  -0.590  0.00  0.00    +0.000 A 
ATOM      5  C   UNL     1       0.059  -2.753  -0.448  0.00  0.00    +0.000 A 
ATOM      6  C   UNL     1       1.221  -3.735  -0.636  0.00  0.00    +0.000 C 
ATOM      7  C   UNL     1       1.002  -4.309  -2.028  0.00  0.00    +0.000 C 
ATOM      8  C   UNL     1      -0.335  -5.005  -2.136  0.00  0.00    +0.000 C 
ATOM      9  C   UNL     1      -1.177  -4.822  -0.903  0.00  0.00    +0.000 C 
ENDROOT
BRANCH   1  11
ATOM     10  N   UNL     1       2.651  -1.382  -0.168  0.00  0.00    +0.000 NA
ATOM     11  C   UNL     1       1.405  -0.698  -0.146  0.00  0.00    +0.000 C 
ATOM     12  O   UNL     1       1.448   0.521  -0.108  0.00  0.00    +0.000 OA
BRANCH  10  18
ATOM     13  C   UNL     1       5.098  -1.287  -0.158  0.00  0.00    +0.000 A 
ATOM     14  C   UNL     1       6.269  -0.567  -0.137  0.00  0.00    +0.000 A 
ATOM     15  C   UNL     1       6.197   0.831  -0.102  0.00  0.00    +0.000 A 
ATOM     16  C   UNL     1       4.983   1.478  -0.088  0.00  0.00    +0.000 A 
ATOM     17  C   UNL     1       3.838   0.709  -0.111  0.00  0.00    +0.000 A 
ATOM     18  C   UNL     1       3.894  -0.668  -0.146  0.00  0.00    +0.000 A 
BRANCH  13  20
ATOM     19  C   UNL     1       6.340  -3.411  -0.209  0.00  0.00    +0.000 C 
ATOM     20  O   UNL     1       5.156  -2.657  -0.193  0.00  0.00    +0.000 OA
ENDBRANCH  13  20
ENDBRANCH  10  18
ENDBRANCH   1  11
BRANCH   2  21
ATOM     21  N   UNL     1      -1.576   0.459   0.350  0.00  0.00    +0.000 NA
ATOM     22  C   UNL     1      -1.344   1.624   0.947  0.00  0.00    +0.000 C 
ATOM     23  O   UNL     1      -0.222   1.846   1.450  0.00  0.00    +0.000 OA
BRANCH  22  24
ATOM     24  C   UNL     1      -2.329   2.730   1.079  0.00  0.00    +0.000 A 
ATOM     25  C   UNL     1      -1.951   3.874   1.720  0.00  0.00    +0.000 A 
ATOM     26  C   UNL     1      -2.848   4.941   1.866  0.00  0.00    +0.000 A 
ATOM     27  C   UNL     1      -4.125   4.819   1.351  0.00  0.00    +0.000 A 
ATOM     28  C   UNL     1      -4.525   3.670   0.701  0.00  0.00    +0.000 A 
ATOM     29  C   UNL     1      -5.808   3.563   0.190  0.00  0.00    +0.000 A 
ATOM     30  C   UNL     1      -6.134   2.382  -0.447  0.00  0.00    +0.000 A 
ATOM     31  C   UNL     1      -5.239   1.343  -0.582  0.00  0.00    +0.000 A 
ATOM     32  C   UNL     1      -3.971   1.489  -0.060  0.00  0.00    +0.000 A 
ATOM     33  C   UNL     1      -3.606   2.638   0.578  0.00  0.00    +0.000 A 
ENDBRANCH  22  24
ENDBRANCH   2  21
TORSDOF 5
