REMARK  Name = 
REMARK  7 active torsions:
REMARK  status: ('A' for Active; 'I' for Inactive)
REMARK    1  A    between atoms: C_2  and  O_3
REMARK    2  A    between atoms: O_3  and  C_4
REMARK    3  A    between atoms: C_7  and  N_8
REMARK    4  A    between atoms: C_11  and  C_12
REMARK    5  A    between atoms: N_19  and  C_20
REMARK    6  A    between atoms: C_20  and  C_21
REMARK    7  A    between atoms: C_24  and  N_25
REMARK                            x       y       z     vdW  Elec       q    Type
REMARK                         _______ _______ _______ _____ _____    ______ ____
ROOT
ATOM      1  N   UNL     1       2.642   1.025  -1.771  0.00  0.00    +0.000 NA
ATOM      2  C   UNL     1       1.474   1.152  -0.930  0.00  0.00    +0.000 A 
ATOM      3  N   UNL     1       0.395   1.856  -1.185  0.00  0.00    +0.000 NA
ATOM      4  C   UNL     1      -0.578   1.871  -0.322  0.00  0.00    +0.000 A 
ATOM      5  N   UNL     1      -0.438   1.160   0.795  0.00  0.00    +0.000 N 
ATOM      6  S   UNL     1       1.114   0.474   0.589  0.00  0.00    +0.000 S 
ENDROOT
BRANCH   4   7
ATOM      7  C   UNL     1      -1.800   2.683  -0.575  0.00  0.00    +0.000 A 
ATOM      8  C   UNL     1      -1.986   3.391  -1.744  0.00  0.00    +0.000 A 
ATOM      9  C   UNL     1      -3.104   4.164  -1.973  0.00  0.00    +0.000 A 
ATOM     10  C   UNL     1      -4.088   4.251  -1.018  0.00  0.00    +0.000 A 
ATOM     11  C   UNL     1      -5.319   5.074  -1.214  0.00  0.00    +0.000 C 
ATOM     12  C   UNL     1      -3.930   3.559   0.152  0.00  0.00    +0.000 A 
ATOM     13  C   UNL     1      -2.802   2.794   0.354  0.00  0.00    +0.000 A 
ENDBRANCH   4   7
BRANCH   1  17
ATOM     14  C   UNL     1       5.970  -1.294  -0.725  0.00  0.00    +0.000 A 
ATOM     15  C   UNL     1       5.915  -0.593  -1.905  0.00  0.00    +0.000 A 
ATOM     16  C   UNL     1       4.805   0.158  -2.215  0.00  0.00    +0.000 A 
ATOM     17  C   UNL     1       3.735   0.218  -1.350  0.00  0.00    +0.000 A 
ATOM     18  C   UNL     1       3.776  -0.472  -0.175  0.00  0.00    +0.000 A 
ATOM     19  C   UNL     1       4.891  -1.223   0.130  0.00  0.00    +0.000 A 
BRANCH  14  20
ATOM     20  O   UNL     1       7.103  -2.048  -0.431  0.00  0.00    +0.000 OA
BRANCH  20  22
ATOM     21  C   UNL     1       5.968  -3.723   0.799  0.00  0.00    +0.000 C 
ATOM     22  C   UNL     1       7.121  -2.756   0.794  0.00  0.00    +0.000 C 
ENDBRANCH  20  22
ENDBRANCH  14  20
ENDBRANCH   1  17
BRANCH   5  23
ATOM     23  C   UNL     1      -1.363   0.946   1.923  0.00  0.00    +0.000 C 
BRANCH  23  24
ATOM     24  C   UNL     1      -2.113  -0.312   1.679  0.00  0.00    +0.000 A 
ATOM     25  C   UNL     1      -3.322  -0.396   1.042  0.00  0.00    +0.000 A 
ATOM     26  C   UNL     1      -3.976  -1.590   0.842  0.00  0.00    +0.000 A 
ATOM     27  C   UNL     1      -3.445  -2.783   1.277  0.00  0.00    +0.000 A 
ATOM     28  C   UNL     1      -2.227  -2.740   1.923  0.00  0.00    +0.000 A 
ATOM     29  C   UNL     1      -1.586  -1.537   2.115  0.00  0.00    +0.000 A 
BRANCH  27  30
ATOM     30  N   UNL     1      -4.105  -4.029   1.080  0.00  0.00    +0.000 N 
ATOM     31  O   UNL     1      -5.191  -4.088   0.506  0.00  0.00    +0.000 OA
ATOM     32  O   UNL     1      -3.535  -5.190   1.532  0.00  0.00    +0.000 OA
ENDBRANCH  27  30
ENDBRANCH  23  24
ENDBRANCH   5  23
TORSDOF 7
