REMARK  Name = 
REMARK  8 active torsions:
REMARK  status: ('A' for Active; 'I' for Inactive)
REMARK    1  A    between atoms: C_5  and  S_6
REMARK    2  A    between atoms: S_6  and  N_9
REMARK    3  A    between atoms: N_9  and  N_10
REMARK    4  A    between atoms: C_11  and  C_12
REMARK    5  A    between atoms: C_11  and  C_19
REMARK    6  A    between atoms: C_22  and  O_23
REMARK    7  A    between atoms: O_23  and  C_24
REMARK    8  A    between atoms: C_24  and  C_25
REMARK                            x       y       z     vdW  Elec       q    Type
REMARK                         _______ _______ _______ _____ _____    ______ ____
ROOT
ATOM      1  N   UNL     1      -1.012  -0.644   0.409  0.00  0.00    +0.000 NA
ATOM      2  C   UNL     1       0.101  -1.020  -0.126  0.00  0.00    +0.000 C 
ENDROOT
BRANCH   2   3
ATOM      3  C   UNL     1       0.301  -2.356  -0.654  0.00  0.00    +0.000 A 
ATOM      4  C   UNL     1       1.502  -2.718  -1.217  0.00  0.00    +0.000 A 
ATOM      5  C   UNL     1       1.739  -3.977  -1.732  0.00  0.00    +0.000 A 
ATOM      6  C   UNL     1       0.744  -4.919  -1.688  0.00  0.00    +0.000 A 
ATOM      7  F   UNL     1       0.912  -6.184  -2.181  0.00  0.00    +0.000 F 
ATOM      8  C   UNL     1      -0.461  -4.571  -1.129  0.00  0.00    +0.000 A 
ATOM      9  C   UNL     1      -0.690  -3.305  -0.614  0.00  0.00    +0.000 A 
ENDBRANCH   2   3
BRANCH   2  10
ATOM     10  C   UNL     1       1.166  -0.036  -0.181  0.00  0.00    +0.000 A 
ATOM     11  C   UNL     1       2.365  -0.398  -0.743  0.00  0.00    +0.000 A 
ATOM     12  C   UNL     1       3.401   0.494  -0.819  0.00  0.00    +0.000 A 
ATOM     13  C   UNL     1       3.290   1.775  -0.342  0.00  0.00    +0.000 A 
ATOM     14  C   UNL     1       2.082   2.131   0.222  0.00  0.00    +0.000 A 
ATOM     15  C   UNL     1       1.036   1.244   0.302  0.00  0.00    +0.000 A 
BRANCH  13  16
ATOM     16  O   UNL     1       4.356   2.692  -0.420  0.00  0.00    +0.000 OA
BRANCH  16  17
ATOM     17  C   UNL     1       5.550   2.228  -1.015  0.00  0.00    +0.000 C 
BRANCH  17  18
ATOM     18  C   UNL     1       6.054   1.064  -0.223  0.00  0.00    +0.000 C 
ATOM     19  C   UNL     1       6.356   1.374   1.205  0.00  0.00    +0.000 C 
ATOM     20  C   UNL     1       7.089   0.245  -0.915  0.00  0.00    +0.000 C 
ENDBRANCH  17  18
ENDBRANCH  16  17
ENDBRANCH  13  16
ENDBRANCH   2  10
BRANCH   1  21
ATOM     21  N   UNL     1      -1.163   0.654   0.906  0.00  0.00    +0.000 NA
BRANCH  21  22
ATOM     22  S   UNL     1      -2.198   1.719   0.006  0.00  0.00    +0.000 S 
ATOM     23  O   UNL     1      -1.747   3.136   0.142  0.00  0.00    +0.000 OA
ATOM     24  O   UNL     1      -2.126   1.339  -1.449  0.00  0.00    +0.000 OA
BRANCH  22  29
ATOM     25  C   UNL     1      -7.829   1.238   2.213  0.00  0.00    +0.000 C 
ATOM     26  C   UNL     1      -6.441   1.370   1.683  0.00  0.00    +0.000 A 
ATOM     27  C   UNL     1      -6.003   0.564   0.652  0.00  0.00    +0.000 A 
ATOM     28  C   UNL     1      -4.729   0.648   0.127  0.00  0.00    +0.000 A 
ATOM     29  C   UNL     1      -3.834   1.559   0.627  0.00  0.00    +0.000 A 
ATOM     30  C   UNL     1      -4.266   2.368   1.658  0.00  0.00    +0.000 A 
ATOM     31  C   UNL     1      -5.545   2.288   2.189  0.00  0.00    +0.000 A 
ENDBRANCH  22  29
ENDBRANCH  21  22
ENDBRANCH   1  21
TORSDOF 8
