REMARK  Name = 
REMARK  7 active torsions:
REMARK  status: ('A' for Active; 'I' for Inactive)
REMARK    1  A    between atoms: O_2  and  C_3
REMARK    2  A    between atoms: C_8  and  C_9
REMARK    3  A    between atoms: C_9  and  C_10
REMARK    4  A    between atoms: C_10  and  N_11
REMARK    5  A    between atoms: C_12  and  C_14
REMARK    6  A    between atoms: N_17  and  C_18
REMARK    7  A    between atoms: C_18  and  C_19
REMARK                            x       y       z     vdW  Elec       q    Type
REMARK                         _______ _______ _______ _____ _____    ______ ____
ROOT
ATOM      1  C   UNL     1      -0.980  -0.266  -0.247  0.00  0.00    +0.000 A 
ATOM      2  C   UNL     1      -1.767   0.441   0.675  0.00  0.00    +0.000 A 
ATOM      3  C   UNL     1      -1.227   1.324   1.744  0.00  0.00    +0.000 C 
ATOM      4  N   UNL     1      -3.030   0.142   0.369  0.00  0.00    +0.000 N 
ATOM      5  C   UNL     1      -3.082  -0.700  -0.677  0.00  0.00    +0.000 A 
ATOM      6  C   UNL     1      -4.134  -1.288  -1.354  0.00  0.00    +0.000 A 
ATOM      7  C   UNL     1      -3.871  -2.129  -2.415  0.00  0.00    +0.000 A 
ATOM      8  C   UNL     1      -2.587  -2.414  -2.836  0.00  0.00    +0.000 A 
ATOM      9  O   UNL     1      -2.412  -3.274  -3.917  0.00  0.00    +0.000 OA
ATOM     10  C   UNL     1      -1.536  -1.833  -2.168  0.00  0.00    +0.000 A 
ATOM     11  C   UNL     1      -1.796  -0.985  -1.099  0.00  0.00    +0.000 A 
ENDROOT
BRANCH   1  13
ATOM     12  N   UNL     1       1.234   0.513   0.641  0.00  0.00    +0.000 NA
ATOM     13  C   UNL     1       0.467  -0.238  -0.285  0.00  0.00    +0.000 C 
ATOM     14  O   UNL     1       1.074  -0.897  -1.161  0.00  0.00    +0.000 OA
BRANCH  12  15
ATOM     15  C   UNL     1       2.666   0.557   0.625  0.00  0.00    +0.000 C 
BRANCH  15  16
ATOM     16  C   UNL     1       3.192  -0.862   0.814  0.00  0.00    +0.000 C 
BRANCH  16  22
ATOM     17  C   UNL     1       5.381  -0.360   1.912  0.00  0.00    +0.000 A 
ATOM     18  C   UNL     1       6.754  -0.307   1.924  0.00  0.00    +0.000 A 
ATOM     19  C   UNL     1       7.450  -0.715   0.813  0.00  0.00    +0.000 A 
ATOM     20  C   UNL     1       6.799  -1.177  -0.317  0.00  0.00    +0.000 A 
ATOM     21  C   UNL     1       5.415  -1.218  -0.298  0.00  0.00    +0.000 A 
ATOM     22  C   UNL     1       4.695  -0.816   0.801  0.00  0.00    +0.000 A 
BRANCH  17  24
ATOM     23  C   UNL     1       5.173   0.522   4.200  0.00  0.00    +0.000 C 
ATOM     24  O   UNL     1       4.618   0.039   3.009  0.00  0.00    +0.000 OA
ENDBRANCH  17  24
ENDBRANCH  16  22
ENDBRANCH  15  16
ENDBRANCH  12  15
ENDBRANCH   1  13
BRANCH   4  25
ATOM     25  C   UNL     1      -4.192   0.654   1.063  0.00  0.00    +0.000 C 
BRANCH  25  26
ATOM     26  C   UNL     1      -4.559   1.925   0.334  0.00  0.00    +0.000 A 
ATOM     27  C   UNL     1      -4.122   3.188   0.592  0.00  0.00    +0.000 A 
ATOM     28  C   UNL     1      -4.577   4.175  -0.184  0.00  0.00    +0.000 A 
ATOM     29  C   UNL     1      -5.448   3.843  -1.181  0.00  0.00    +0.000 A 
ATOM     30  S   UNL     1      -5.600   2.155  -0.995  0.00  0.00    +0.000 S 
ENDBRANCH  25  26
ENDBRANCH   4  25
TORSDOF 7
