REMARK  Name = 
REMARK  5 active torsions:
REMARK  status: ('A' for Active; 'I' for Inactive)
REMARK    1  A    between atoms: C_2  and  N_3
REMARK    2  A    between atoms: C_12  and  N_13
REMARK    3  A    between atoms: C_14  and  C_16
REMARK    4  A    between atoms: C_16  and  N_17
REMARK    5  A    between atoms: N_17  and  C_18
REMARK                            x       y       z     vdW  Elec       q    Type
REMARK                         _______ _______ _______ _____ _____    ______ ____
ROOT
ATOM      1  N   UNL     1       4.592   1.162   0.950  0.00  0.00    +0.000 N 
ATOM      2  C   UNL     1       5.162   0.163   0.278  0.00  0.00    +0.000 A 
ATOM      3  C   UNL     1       6.485  -0.210   0.157  0.00  0.00    +0.000 A 
ATOM      4  C   UNL     1       6.840  -1.309  -0.616  0.00  0.00    +0.000 A 
ATOM      5  C   UNL     1       5.873  -2.041  -1.273  0.00  0.00    +0.000 A 
ATOM      6  C   UNL     1       4.553  -1.686  -1.165  0.00  0.00    +0.000 A 
ATOM      7  C   UNL     1       4.223  -0.577  -0.382  0.00  0.00    +0.000 A 
ATOM      8  C   UNL     1       3.017   0.005  -0.093  0.00  0.00    +0.000 A 
ATOM      9  C   UNL     1       1.722  -0.277  -0.456  0.00  0.00    +0.000 A 
ATOM     10  C   UNL     1       0.651   0.499  -0.009  0.00  0.00    +0.000 A 
ATOM     11  C   UNL     1       0.943   1.569   0.818  0.00  0.00    +0.000 A 
ATOM     12  C   UNL     1       2.222   1.879   1.201  0.00  0.00    +0.000 A 
ATOM     13  C   UNL     1       3.271   1.076   0.730  0.00  0.00    +0.000 A 
ENDROOT
BRANCH  10  14
ATOM     14  N   UNL     1      -0.683   0.209  -0.383  0.00  0.00    +0.000 NA
ATOM     15  C   UNL     1      -0.964  -0.894  -1.229  0.00  0.00    +0.000 C 
ATOM     16  O   UNL     1       0.009  -1.612  -1.643  0.00  0.00    +0.000 OA
BRANCH  15  17
ATOM     17  C   UNL     1      -2.348  -1.239  -1.648  0.00  0.00    +0.000 C 
BRANCH  17  18
ATOM     18  N   UNL     1      -3.214  -0.257  -1.032  0.00  0.00    +0.000 NA
BRANCH  18  19
ATOM     19  C   UNL     1      -4.671  -0.674  -1.500  0.00  0.00    +0.000 C 
ATOM     20  C   UNL     1      -4.705  -2.158  -0.772  0.00  0.00    +0.000 C 
ATOM     21  C   UNL     1      -3.934  -2.221   0.430  0.00  0.00    +0.000 C 
ATOM     22  C   UNL     1      -3.667  -0.901   1.088  0.00  0.00    +0.000 C 
ATOM     23  C   UNL     1      -4.903  -0.086   0.960  0.00  0.00    +0.000 A 
ATOM     24  C   UNL     1      -5.533   0.524   2.029  0.00  0.00    +0.000 A 
ATOM     25  C   UNL     1      -6.676   1.272   1.788  0.00  0.00    +0.000 A 
ATOM     26  C   UNL     1      -7.174   1.404   0.508  0.00  0.00    +0.000 A 
ATOM     27  C   UNL     1      -6.526   0.781  -0.559  0.00  0.00    +0.000 A 
ATOM     28  C   UNL     1      -5.416   0.064  -0.269  0.00  0.00    +0.000 A 
ENDBRANCH  18  19
ENDBRANCH  17  18
ENDBRANCH  15  17
ENDBRANCH  10  14
BRANCH   1  30
ATOM     29  C   UNL     1       5.596   3.358   0.869  0.00  0.00    +0.000 C 
ATOM     30  C   UNL     1       5.256   2.177   1.779  0.00  0.00    +0.000 C 
ENDBRANCH   1  30
TORSDOF 5
