REMARK  Name = 
REMARK  8 active torsions:
REMARK  status: ('A' for Active; 'I' for Inactive)
REMARK    1  A    between atoms: C_2  and  C_3
REMARK    2  A    between atoms: C_3  and  C_5
REMARK    3  A    between atoms: C_8  and  N_9
REMARK    4  A    between atoms: C_10  and  C_12
REMARK    5  A    between atoms: C_12  and  O_13
REMARK    6  A    between atoms: O_13  and  C_14
REMARK    7  A    between atoms: C_14  and  C_16
REMARK    8  A    between atoms: C_21  and  C_22
REMARK                            x       y       z     vdW  Elec       q    Type
REMARK                         _______ _______ _______ _____ _____    ______ ____
ROOT
ATOM      1  O   UNL     1       1.635  -0.812   1.105  0.00  0.00    +0.000 OA
ENDROOT
BRANCH   1   2
ATOM      2  C   UNL     1       1.567   0.537   1.298  0.00  0.00    +0.000 C 
ATOM      3  O   UNL     1       0.707   1.017   2.076  0.00  0.00    +0.000 OA
BRANCH   2   4
ATOM      4  C   UNL     1       2.462   1.463   0.627  0.00  0.00    +0.000 A 
ATOM      5  C   UNL     1       2.245   2.848   0.813  0.00  0.00    +0.000 A 
ATOM      6  C   UNL     1       3.005   3.783   0.179  0.00  0.00    +0.000 A 
ATOM      7  C   UNL     1       4.001   3.352  -0.658  0.00  0.00    +0.000 A 
ATOM      8  C   UNL     1       4.254   2.024  -0.873  0.00  0.00    +0.000 A 
ATOM      9  C   UNL     1       3.470   1.083  -0.217  0.00  0.00    +0.000 A 
BRANCH   9  10
ATOM     10  C   UNL     1       3.765  -0.342  -0.388  0.00  0.00    +0.000 A 
ATOM     11  C   UNL     1       3.710  -0.947  -1.635  0.00  0.00    +0.000 A 
ATOM     12  C   UNL     1       4.041  -2.275  -1.775  0.00  0.00    +0.000 A 
ATOM     13  C   UNL     1       4.438  -3.071  -0.722  0.00  0.00    +0.000 A 
ATOM     14  C   UNL     1       4.787  -4.503  -0.920  0.00  0.00    +0.000 C 
ATOM     15  C   UNL     1       4.495  -2.473   0.521  0.00  0.00    +0.000 A 
ATOM     16  C   UNL     1       4.163  -1.141   0.664  0.00  0.00    +0.000 A 
ENDBRANCH   9  10
ENDBRANCH   2   4
ENDBRANCH   1   2
BRANCH   1  17
ATOM     17  C   UNL     1       0.755  -1.692   1.762  0.00  0.00    +0.000 C 
BRANCH  17  19
ATOM     18  N   UNL     1      -0.907  -0.289   0.412  0.00  0.00    +0.000 NA
ATOM     19  C   UNL     1      -0.615  -1.333   1.335  0.00  0.00    +0.000 C 
ATOM     20  O   UNL     1      -1.642  -1.955   1.779  0.00  0.00    +0.000 OA
BRANCH  18  24
ATOM     21  C   UNL     1      -4.913   0.566  -0.673  0.00  0.00    +0.000 A 
ATOM     22  C   UNL     1      -3.885   1.301  -1.214  0.00  0.00    +0.000 A 
ATOM     23  C   UNL     1      -2.552   1.017  -0.854  0.00  0.00    +0.000 A 
ATOM     24  C   UNL     1      -2.271   0.009   0.037  0.00  0.00    +0.000 A 
ATOM     25  C   UNL     1      -3.327  -0.698   0.552  0.00  0.00    +0.000 A 
ATOM     26  C   UNL     1      -4.646  -0.401   0.181  0.00  0.00    +0.000 A 
BRANCH  21  27
ATOM     27  C   UNL     1      -6.332   1.017  -1.185  0.00  0.00    +0.000 C 
ATOM     28  C   UNL     1      -7.007  -0.505  -1.265  0.00  0.00    +0.000 C 
BRANCH  27  30
ATOM     29  C   UNL     1      -8.454   1.144   0.056  0.00  0.00    +0.000 C 
ATOM     30  C   UNL     1      -6.948   1.275   0.326  0.00  0.00    +0.000 C 
ENDBRANCH  27  30
ENDBRANCH  21  27
ENDBRANCH  18  24
ENDBRANCH  17  19
ENDBRANCH   1  17
TORSDOF 8
