REMARK  Name = 
REMARK  7 active torsions:
REMARK  status: ('A' for Active; 'I' for Inactive)
REMARK    1  A    between atoms: C_2  and  O_3
REMARK    2  A    between atoms: O_3  and  C_4
REMARK    3  A    between atoms: C_7  and  N_8
REMARK    4  A    between atoms: C_11  and  N_12
REMARK    5  A    between atoms: N_12  and  C_13
REMARK    6  A    between atoms: C_21  and  S_22
REMARK    7  A    between atoms: S_22  and  C_23
REMARK                            x       y       z     vdW  Elec       q    Type
REMARK                         _______ _______ _______ _____ _____    ______ ____
ROOT
ATOM      1  N   UNL     1       1.772   0.664   0.023  0.00  0.00    +0.000 N 
ATOM      2  C   UNL     1       0.792  -0.228  -0.524  0.00  0.00    +0.000 C 
ATOM      3  O   UNL     1       1.062  -1.375  -0.975  0.00  0.00    +0.000 OA
ATOM      4  C   UNL     1      -0.519   0.440  -0.454  0.00  0.00    +0.000 C 
ATOM      5  C   UNL     1      -0.406   1.623   0.074  0.00  0.00    +0.000 C 
ATOM      6  C   UNL     1       1.034   1.812   0.395  0.00  0.00    +0.000 C 
ATOM      7  O   UNL     1       1.555   2.825   0.919  0.00  0.00    +0.000 OA
ENDROOT
BRANCH   1  11
ATOM      8  C   UNL     1       5.866  -0.001   0.311  0.00  0.00    +0.000 A 
ATOM      9  C   UNL     1       5.405   0.876  -0.619  0.00  0.00    +0.000 A 
ATOM     10  C   UNL     1       4.036   1.077  -0.690  0.00  0.00    +0.000 A 
ATOM     11  C   UNL     1       3.163   0.418   0.145  0.00  0.00    +0.000 A 
ATOM     12  C   UNL     1       3.651  -0.454   1.065  0.00  0.00    +0.000 A 
ATOM     13  C   UNL     1       5.011  -0.672   1.157  0.00  0.00    +0.000 A 
BRANCH   8  14
ATOM     14  O   UNL     1       7.250  -0.195   0.374  0.00  0.00    +0.000 OA
BRANCH  14  16
ATOM     15  C   UNL     1       7.317  -2.468   0.992  0.00  0.00    +0.000 C 
ATOM     16  C   UNL     1       7.872  -1.067   1.279  0.00  0.00    +0.000 C 
ENDBRANCH  14  16
ENDBRANCH   8  14
ENDBRANCH   1  11
BRANCH   4  17
ATOM     17  N   UNL     1      -1.670  -0.200  -0.917  0.00  0.00    +0.000 NA
BRANCH  17  18
ATOM     18  C   UNL     1      -2.155  -1.435  -0.409  0.00  0.00    +0.000 A 
ATOM     19  C   UNL     1      -1.456  -1.970   0.679  0.00  0.00    +0.000 A 
ATOM     20  C   UNL     1      -1.842  -3.145   1.258  0.00  0.00    +0.000 A 
ATOM     21  C   UNL     1      -2.932  -3.828   0.777  0.00  0.00    +0.000 A 
ATOM     22  C   UNL     1      -3.622  -3.297  -0.299  0.00  0.00    +0.000 A 
ATOM     23  C   UNL     1      -4.812  -3.974  -0.877  0.00  0.00    +0.000 C 
ATOM     24  C   UNL     1      -3.231  -2.097  -0.894  0.00  0.00    +0.000 A 
ATOM     25  C   UNL     1      -3.965  -1.546  -2.048  0.00  0.00    +0.000 C 
ENDBRANCH  17  18
ENDBRANCH   4  17
BRANCH   5  26
ATOM     26  S   UNL     1      -1.576   2.904   0.432  0.00  0.00    +0.000 S 
BRANCH  26  27
ATOM     27  C   UNL     1      -3.219   2.599  -0.045  0.00  0.00    +0.000 A 
ATOM     28  C   UNL     1      -4.122   3.641   0.268  0.00  0.00    +0.000 A 
ATOM     29  C   UNL     1      -5.435   3.593  -0.024  0.00  0.00    +0.000 A 
ATOM     30  C   UNL     1      -5.969   2.495  -0.658  0.00  0.00    +0.000 A 
ATOM     31  C   UNL     1      -5.098   1.458  -0.975  0.00  0.00    +0.000 A 
ATOM     32  C   UNL     1      -3.757   1.526  -0.668  0.00  0.00    +0.000 A 
ENDBRANCH  26  27
ENDBRANCH   5  26
TORSDOF 7
