REMARK  Name = 
REMARK  6 active torsions:
REMARK  status: ('A' for Active; 'I' for Inactive)
REMARK    1  A    between atoms: C_2  and  O_3
REMARK    2  A    between atoms: C_2  and  C_15
REMARK    3  A    between atoms: O_3  and  C_4
REMARK    4  A    between atoms: N_17  and  C_18
REMARK    5  A    between atoms: C_21  and  O_22
REMARK    6  A    between atoms: O_22  and  C_23
REMARK                            x       y       z     vdW  Elec       q    Type
REMARK                         _______ _______ _______ _____ _____    ______ ____
ROOT
ATOM      1  C   UNL     1      -1.058  -1.323  -0.654  0.00  0.00    +0.000 C 
ATOM      2  O   UNL     1      -0.836  -1.393   0.540  0.00  0.00    +0.000 OA
ATOM      3  N   UNL     1      -0.194  -0.677  -1.536  0.00  0.00    +0.000 NA
ENDROOT
BRANCH   3   4
ATOM      4  C   UNL     1       1.034  -0.034  -1.122  0.00  0.00    +0.000 A 
ATOM      5  C   UNL     1       1.842   0.587  -2.045  0.00  0.00    +0.000 A 
ATOM      6  C   UNL     1       3.027   1.210  -1.658  0.00  0.00    +0.000 A 
ATOM      7  C   UNL     1       3.432   1.224  -0.333  0.00  0.00    +0.000 A 
ATOM      8  C   UNL     1       2.598   0.592   0.563  0.00  0.00    +0.000 A 
ATOM      9  C   UNL     1       1.425  -0.027   0.197  0.00  0.00    +0.000 A 
BRANCH   7  10
ATOM     10  O   UNL     1       4.603   1.832   0.093  0.00  0.00    +0.000 OA
BRANCH  10  11
ATOM     11  C   UNL     1       5.819   1.185   0.165  0.00  0.00    +0.000 A 
ATOM     12  C   UNL     1       5.888  -0.140  -0.204  0.00  0.00    +0.000 A 
ATOM     13  C   UNL     1       7.053  -0.867  -0.166  0.00  0.00    +0.000 A 
ATOM     14  C   UNL     1       8.209  -0.274   0.253  0.00  0.00    +0.000 A 
ATOM     15  C   UNL     1       8.163   1.038   0.623  0.00  0.00    +0.000 A 
ATOM     16  C   UNL     1       6.999   1.754   0.582  0.00  0.00    +0.000 A 
ENDBRANCH  10  11
ENDBRANCH   7  10
ENDBRANCH   3   4
BRANCH   1  18
ATOM     17  C   UNL     1      -1.614  -3.400  -1.722  0.00  0.00    +0.000 C 
ATOM     18  C   UNL     1      -2.356  -1.966  -1.308  0.00  0.00    +0.000 C 
BRANCH  18  19
ATOM     19  O   UNL     1      -3.017  -2.558  -0.050  0.00  0.00    +0.000 OA
BRANCH  19  20
ATOM     20  C   UNL     1      -3.786  -1.838   0.745  0.00  0.00    +0.000 A 
ATOM     21  C   UNL     1      -4.343  -2.431   1.850  0.00  0.00    +0.000 A 
ATOM     22  C   UNL     1      -5.153  -1.784   2.738  0.00  0.00    +0.000 A 
ATOM     23  C   UNL     1      -5.429  -0.473   2.523  0.00  0.00    +0.000 A 
ATOM     24  C   UNL     1      -4.909   0.180   1.444  0.00  0.00    +0.000 A 
ATOM     25  C   UNL     1      -4.085  -0.507   0.553  0.00  0.00    +0.000 A 
ATOM     26  O   UNL     1      -3.743   0.435  -0.402  0.00  0.00    +0.000 OA
ATOM     27  C   UNL     1      -4.657   1.518  -0.430  0.00  0.00    +0.000 C 
ATOM     28  C   UNL     1      -5.808   1.060  -1.322  0.00  0.00    +0.000 C 
ATOM     29  C   UNL     1      -4.028   2.775  -0.931  0.00  0.00    +0.000 C 
ATOM     30  C   UNL     1      -5.075   1.587   1.016  0.00  0.00    +0.000 C 
ENDBRANCH  19  20
ENDBRANCH  18  19
ENDBRANCH   1  18
TORSDOF 6
