REMARK  Name = 
REMARK  6 active torsions:
REMARK  status: ('A' for Active; 'I' for Inactive)
REMARK    1  A    between atoms: C_2  and  C_4
REMARK    2  A    between atoms: C_4  and  C_5
REMARK    3  A    between atoms: C_8  and  C_9
REMARK    4  A    between atoms: C_11  and  C_12
REMARK    5  A    between atoms: N_14  and  C_15
REMARK    6  A    between atoms: C_15  and  C_16
REMARK                            x       y       z     vdW  Elec       q    Type
REMARK                         _______ _______ _______ _____ _____    ______ ____
ROOT
ATOM      1  C   UNL     1      -2.183  -0.734   0.388  0.00  0.00    +0.000 A 
ATOM      2  C   UNL     1      -1.015  -0.906  -0.321  0.00  0.00    +0.000 A 
ATOM      3  C   UNL     1       0.164  -1.301   0.263  0.00  0.00    +0.000 A 
ATOM      4  C   UNL     1       0.174  -1.534   1.622  0.00  0.00    +0.000 A 
ATOM      5  C   UNL     1       1.305  -1.931   2.287  0.00  0.00    +0.000 A 
ATOM      6  C   UNL     1       1.359  -2.174   3.641  0.00  0.00    +0.000 A 
ATOM      7  C   UNL     1       0.169  -1.996   4.345  0.00  0.00    +0.000 A 
ATOM      8  C   UNL     1      -0.977  -1.600   3.698  0.00  0.00    +0.000 A 
ATOM      9  C   UNL     1      -1.000  -1.366   2.356  0.00  0.00    +0.000 A 
ATOM     10  N   UNL     1      -2.130  -0.972   1.708  0.00  0.00    +0.000 NA
ENDROOT
BRANCH   1  14
ATOM     11  C   UNL     1      -5.709   0.490  -1.630  0.00  0.00    +0.000 A 
ATOM     12  C   UNL     1      -5.742   0.266  -0.261  0.00  0.00    +0.000 A 
ATOM     13  C   UNL     1      -4.599  -0.135   0.413  0.00  0.00    +0.000 A 
ATOM     14  C   UNL     1      -3.427  -0.315  -0.245  0.00  0.00    +0.000 A 
ATOM     15  C   UNL     1      -3.408  -0.087  -1.615  0.00  0.00    +0.000 A 
ATOM     16  C   UNL     1      -4.524   0.311  -2.314  0.00  0.00    +0.000 A 
BRANCH  11  17
ATOM     17  C   UNL     1      -6.889   0.913  -2.401  0.00  0.00    +0.000 C 
BRANCH  17  19
ATOM     18  C   UNL     1      -7.111   2.966  -1.019  0.00  0.00    +0.000 C 
ATOM     19  C   UNL     1      -6.992   2.435  -2.448  0.00  0.00    +0.000 C 
ATOM     20  C   UNL     1      -5.720   3.046  -3.008  0.00  0.00    +0.000 C 
ENDBRANCH  17  19
ENDBRANCH  11  17
ENDBRANCH   1  14
BRANCH   3  21
ATOM     21  C   UNL     1       1.399  -1.485  -0.481  0.00  0.00    +0.000 C 
ATOM     22  O   UNL     1       1.346  -1.248  -1.739  0.00  0.00    +0.000 OA
ATOM     23  N   UNL     1       2.609  -1.896   0.086  0.00  0.00    +0.000 NA
BRANCH  23  24
ATOM     24  C   UNL     1       3.776  -2.041  -0.792  0.00  0.00    +0.000 C 
BRANCH  24  25
ATOM     25  C   UNL     1       4.276  -0.674  -1.075  0.00  0.00    +0.000 A 
ATOM     26  C   UNL     1       3.806   0.142  -2.066  0.00  0.00    +0.000 A 
ATOM     27  C   UNL     1       4.352   1.403  -2.244  0.00  0.00    +0.000 A 
ATOM     28  C   UNL     1       5.380   1.884  -1.441  0.00  0.00    +0.000 A 
ATOM     29  C   UNL     1       5.849   1.056  -0.445  0.00  0.00    +0.000 A 
ATOM     30  C   UNL     1       5.305  -0.214  -0.259  0.00  0.00    +0.000 A 
ATOM     31  O   UNL     1       6.853   1.749   0.204  0.00  0.00    +0.000 OA
ATOM     32  C   UNL     1       7.225   2.859  -0.619  0.00  0.00    +0.000 C 
ATOM     33  O   UNL     1       6.080   3.089  -1.423  0.00  0.00    +0.000 OA
ENDBRANCH  24  25
ENDBRANCH  23  24
ENDBRANCH   3  21
TORSDOF 6
