REMARK  Name = 
REMARK  7 active torsions:
REMARK  status: ('A' for Active; 'I' for Inactive)
REMARK    1  A    between atoms: C_4  and  N_5
REMARK    2  A    between atoms: C_6  and  C_8
REMARK    3  A    between atoms: C_8  and  S_9
REMARK    4  A    between atoms: S_9  and  C_10
REMARK    5  A    between atoms: N_18  and  C_19
REMARK    6  A    between atoms: C_19  and  C_20
REMARK    7  A    between atoms: N_23  and  C_24
REMARK                            x       y       z     vdW  Elec       q    Type
REMARK                         _______ _______ _______ _____ _____    ______ ____
ROOT
ATOM      1  N   UNL     1       2.206  -0.133  -0.598  0.00  0.00    +0.000 NA
ATOM      2  C   UNL     1       0.797  -0.195  -0.593  0.00  0.00    +0.000 C 
ATOM      3  O   UNL     1       0.201  -0.389   0.482  0.00  0.00    +0.000 OA
ENDROOT
BRANCH   1   7
ATOM      4  C   UNL     1       3.329  -0.711   4.291  0.00  0.00    +0.000 C 
ATOM      5  C   UNL     1       3.446  -0.503   2.815  0.00  0.00    +0.000 A 
ATOM      6  C   UNL     1       2.411  -0.504   1.891  0.00  0.00    +0.000 A 
ATOM      7  C   UNL     1       2.951  -0.262   0.634  0.00  0.00    +0.000 A 
ATOM      8  N   UNL     1       4.252  -0.123   0.791  0.00  0.00    +0.000 N 
ATOM      9  N   UNL     1       4.557  -0.268   2.105  0.00  0.00    +0.000 NA
BRANCH   8  10
ATOM     10  C   UNL     1       5.252   0.138  -0.197  0.00  0.00    +0.000 A 
ATOM     11  C   UNL     1       5.548   1.438  -0.584  0.00  0.00    +0.000 A 
ATOM     12  C   UNL     1       6.549   1.637  -1.522  0.00  0.00    +0.000 A 
ATOM     13  C   UNL     1       7.236   0.555  -2.056  0.00  0.00    +0.000 A 
ATOM     14  C   UNL     1       6.946  -0.719  -1.675  0.00  0.00    +0.000 A 
ATOM     15  C   UNL     1       5.949  -0.906  -0.745  0.00  0.00    +0.000 A 
ENDBRANCH   8  10
ENDBRANCH   1   7
BRANCH   2  16
ATOM     16  C   UNL     1      -0.043  -0.026  -1.843  0.00  0.00    +0.000 C 
BRANCH  16  17
ATOM     17  S   UNL     1      -1.447   1.018  -1.360  0.00  0.00    +0.000 S 
BRANCH  17  18
ATOM     18  C   UNL     1      -2.660   0.225  -0.353  0.00  0.00    +0.000 A 
ATOM     19  N   UNL     1      -2.726  -0.049   0.953  0.00  0.00    +0.000 NA
ATOM     20  C   UNL     1      -3.928  -0.563   1.295  0.00  0.00    +0.000 A 
ATOM     21  C   UNL     1      -4.527  -0.983   2.471  0.00  0.00    +0.000 A 
ATOM     22  C   UNL     1      -5.838  -1.438   2.429  0.00  0.00    +0.000 A 
ATOM     23  C   UNL     1      -6.578  -1.493   1.280  0.00  0.00    +0.000 A 
ATOM     24  C   UNL     1      -5.980  -1.075   0.095  0.00  0.00    +0.000 A 
ATOM     25  C   UNL     1      -4.652  -0.614   0.141  0.00  0.00    +0.000 A 
ATOM     26  N   UNL     1      -3.876  -0.136  -0.844  0.00  0.00    +0.000 N 
BRANCH  26  27
ATOM     27  C   UNL     1      -4.341   0.016  -2.231  0.00  0.00    +0.000 C 
BRANCH  27  28
ATOM     28  C   UNL     1      -4.888   1.389  -2.319  0.00  0.00    +0.000 C 
ATOM     29  C   UNL     1      -5.438   1.881  -3.576  0.00  0.00    +0.000 C 
ATOM     30  C   UNL     1      -4.707   2.284  -1.178  0.00  0.00    +0.000 C 
ENDBRANCH  27  28
ENDBRANCH  26  27
ENDBRANCH  17  18
ENDBRANCH  16  17
ENDBRANCH   2  16
TORSDOF 7
