REMARK  Name = 
REMARK  5 active torsions:
REMARK  status: ('A' for Active; 'I' for Inactive)
REMARK    1  A    between atoms: C_2  and  C_5
REMARK    2  A    between atoms: C_8  and  C_9
REMARK    3  A    between atoms: C_11  and  C_12
REMARK    4  A    between atoms: N_14  and  C_15
REMARK    5  A    between atoms: C_15  and  C_16
REMARK                            x       y       z     vdW  Elec       q    Type
REMARK                         _______ _______ _______ _____ _____    ______ ____
ROOT
ATOM      1  C   UNL     1      -2.204  -0.035  -0.521  0.00  0.00    +0.000 A 
ATOM      2  C   UNL     1      -1.020   0.325  -1.077  0.00  0.00    +0.000 A 
ATOM      3  C   UNL     1       0.169  -0.253  -0.684  0.00  0.00    +0.000 A 
ATOM      4  C   UNL     1       0.141  -1.257   0.341  0.00  0.00    +0.000 A 
ATOM      5  C   UNL     1       1.338  -1.789   0.751  0.00  0.00    +0.000 A 
ATOM      6  C   UNL     1       1.334  -2.725   1.761  0.00  0.00    +0.000 A 
ATOM      7  C   UNL     1       0.135  -3.100   2.345  0.00  0.00    +0.000 A 
ATOM      8  C   UNL     1      -1.049  -2.542   1.903  0.00  0.00    +0.000 A 
ATOM      9  C   UNL     1      -1.059  -1.599   0.881  0.00  0.00    +0.000 A 
ATOM     10  N   UNL     1      -2.144  -1.009   0.453  0.00  0.00    +0.000 NA
ENDROOT
BRANCH   1  14
ATOM     11  C   UNL     1      -6.200   1.336  -1.244  0.00  0.00    +0.000 A 
ATOM     12  C   UNL     1      -5.147   2.242  -1.431  0.00  0.00    +0.000 A 
ATOM     13  C   UNL     1      -3.824   1.785  -1.210  0.00  0.00    +0.000 A 
ATOM     14  C   UNL     1      -3.540   0.486  -0.811  0.00  0.00    +0.000 A 
ATOM     15  C   UNL     1      -4.611  -0.389  -0.631  0.00  0.00    +0.000 A 
ATOM     16  C   UNL     1      -5.893   0.064  -0.852  0.00  0.00    +0.000 A 
BRANCH  11  18
ATOM     17  C   UNL     1      -8.311   1.302  -2.611  0.00  0.00    +0.000 C 
ATOM     18  C   UNL     1      -7.642   1.795  -1.338  0.00  0.00    +0.000 C 
ATOM     19  C   UNL     1      -8.390   1.186  -0.110  0.00  0.00    +0.000 C 
ATOM     20  C   UNL     1      -7.738   3.263  -1.222  0.00  0.00    +0.000 C 
ENDBRANCH  11  18
ENDBRANCH   1  14
BRANCH   3  21
ATOM     21  C   UNL     1       1.500  -0.018  -1.242  0.00  0.00    +0.000 C 
ATOM     22  O   UNL     1       1.794   1.050  -1.857  0.00  0.00    +0.000 OA
ATOM     23  N   UNL     1       2.479  -0.961  -1.115  0.00  0.00    +0.000 NA
BRANCH  23  24
ATOM     24  C   UNL     1       3.845  -1.061  -1.494  0.00  0.00    +0.000 C 
BRANCH  24  25
ATOM     25  C   UNL     1       4.719  -0.545  -0.408  0.00  0.00    +0.000 A 
ATOM     26  C   UNL     1       4.337   0.548   0.301  0.00  0.00    +0.000 A 
ATOM     27  C   UNL     1       5.053   1.087   1.378  0.00  0.00    +0.000 A 
ATOM     28  C   UNL     1       6.247   0.446   1.715  0.00  0.00    +0.000 A 
ATOM     29  C   UNL     1       6.665  -0.664   1.004  0.00  0.00    +0.000 A 
ATOM     30  C   UNL     1       5.907  -1.171  -0.060  0.00  0.00    +0.000 A 
ATOM     31  O   UNL     1       7.858  -1.054   1.565  0.00  0.00    +0.000 OA
ATOM     32  C   UNL     1       8.063  -0.395   2.803  0.00  0.00    +0.000 C 
ATOM     33  O   UNL     1       7.190   0.727   2.719  0.00  0.00    +0.000 OA
ENDBRANCH  24  25
ENDBRANCH  23  24
ENDBRANCH   3  21
TORSDOF 5
