REMARK  Name = 
REMARK  7 active torsions:
REMARK  status: ('A' for Active; 'I' for Inactive)
REMARK    1  A    between atoms: C_2  and  C_4
REMARK    2  A    between atoms: C_7  and  N_8
REMARK    3  A    between atoms: N_8  and  C_9
REMARK    4  A    between atoms: C_10  and  S_11
REMARK    5  A    between atoms: S_11  and  C_12
REMARK    6  A    between atoms: N_20  and  C_21
REMARK    7  A    between atoms: C_21  and  C_22
REMARK                            x       y       z     vdW  Elec       q    Type
REMARK                         _______ _______ _______ _____ _____    ______ ____
ROOT
ATOM      1  C   UNL     1      -0.481  -0.098  -0.369  0.00  0.00    +0.000 C 
ATOM      2  C   UNL     1      -1.012   0.081  -1.568  0.00  0.00    +0.000 C 
ATOM      3  C   UNL     1      -1.452  -1.206  -2.092  0.00  0.00    +0.000 C 
ATOM      4  O   UNL     1      -2.004  -1.382  -3.221  0.00  0.00    +0.000 OA
ATOM      5  N   UNL     1      -1.139  -2.174  -1.104  0.00  0.00    +0.000 N 
ATOM      6  C   UNL     1      -0.527  -1.510  -0.006  0.00  0.00    +0.000 C 
ATOM      7  O   UNL     1      -0.102  -2.017   1.072  0.00  0.00    +0.000 OA
ENDROOT
BRANCH   1   8
ATOM      8  N   UNL     1       0.053   0.946   0.438  0.00  0.00    +0.000 NA
BRANCH   8  12
ATOM      9  C   UNL     1       4.060   0.923   1.690  0.00  0.00    +0.000 A 
ATOM     10  C   UNL     1       3.209   1.943   2.045  0.00  0.00    +0.000 A 
ATOM     11  C   UNL     1       1.902   1.943   1.632  0.00  0.00    +0.000 A 
ATOM     12  C   UNL     1       1.429   0.918   0.856  0.00  0.00    +0.000 A 
ATOM     13  C   UNL     1       2.274  -0.106   0.497  0.00  0.00    +0.000 A 
ATOM     14  C   UNL     1       3.597  -0.104   0.916  0.00  0.00    +0.000 A 
BRANCH   9  16
ATOM     15  C   UNL     1       6.077   2.244   1.539  0.00  0.00    +0.000 C 
ATOM     16  C   UNL     1       5.474   0.992   2.180  0.00  0.00    +0.000 C 
ATOM     17  C   UNL     1       5.432   1.132   3.687  0.00  0.00    +0.000 C 
ENDBRANCH   9  16
ENDBRANCH   8  12
ENDBRANCH   1   8
BRANCH   2  18
ATOM     18  S   UNL     1      -1.185   1.646  -2.449  0.00  0.00    +0.000 S 
BRANCH  18  19
ATOM     19  C   UNL     1      -0.516   2.945  -1.438  0.00  0.00    +0.000 A 
ATOM     20  C   UNL     1      -1.329   3.602  -0.556  0.00  0.00    +0.000 A 
ATOM     21  C   UNL     1      -0.831   4.611   0.237  0.00  0.00    +0.000 A 
ATOM     22  C   UNL     1       0.512   4.949   0.124  0.00  0.00    +0.000 A 
ATOM     23  C   UNL     1       1.314   4.279  -0.768  0.00  0.00    +0.000 A 
ATOM     24  C   UNL     1       0.804   3.281  -1.546  0.00  0.00    +0.000 A 
ENDBRANCH  18  19
ENDBRANCH   2  18
BRANCH   5  25
ATOM     25  C   UNL     1      -1.396  -3.582  -1.198  0.00  0.00    +0.000 C 
BRANCH  25  26
ATOM     26  C   UNL     1      -2.757  -3.840  -0.632  0.00  0.00    +0.000 A 
ATOM     27  C   UNL     1      -3.516  -2.800  -0.143  0.00  0.00    +0.000 A 
ATOM     28  C   UNL     1      -4.769  -2.959   0.389  0.00  0.00    +0.000 A 
ATOM     29  C   UNL     1      -5.276  -4.247   0.424  0.00  0.00    +0.000 A 
ATOM     30  C   UNL     1      -4.550  -5.314  -0.055  0.00  0.00    +0.000 A 
ATOM     31  C   UNL     1      -3.297  -5.097  -0.579  0.00  0.00    +0.000 A 
ENDBRANCH  25  26
ENDBRANCH   5  25
TORSDOF 7
