REMARK  Name = 
REMARK  7 active torsions:
REMARK  status: ('A' for Active; 'I' for Inactive)
REMARK    1  A    between atoms: C_2  and  O_3
REMARK    2  A    between atoms: O_3  and  C_4
REMARK    3  A    between atoms: C_7  and  C_8
REMARK    4  A    between atoms: C_10  and  C_11
REMARK    5  A    between atoms: N_13  and  C_14
REMARK    6  A    between atoms: C_14  and  C_15
REMARK    7  A    between atoms: C_19  and  O_20
REMARK                            x       y       z     vdW  Elec       q    Type
REMARK                         _______ _______ _______ _____ _____    ______ ____
ROOT
ATOM      1  C   UNL     1       2.292  -0.493   0.181  0.00  0.00    +0.000 A 
ATOM      2  C   UNL     1       1.061  -0.112   0.677  0.00  0.00    +0.000 A 
ATOM      3  C   UNL     1       0.036  -1.032   0.705  0.00  0.00    +0.000 A 
ATOM      4  C   UNL     1       0.194  -2.343   0.249  0.00  0.00    +0.000 A 
ATOM      5  C   UNL     1      -0.854  -3.240   0.292  0.00  0.00    +0.000 A 
ATOM      6  C   UNL     1      -0.633  -4.525  -0.174  0.00  0.00    +0.000 A 
ATOM      7  C   UNL     1       0.611  -4.867  -0.661  0.00  0.00    +0.000 A 
ATOM      8  C   UNL     1       1.644  -3.957  -0.695  0.00  0.00    +0.000 A 
ATOM      9  C   UNL     1       1.450  -2.656  -0.232  0.00  0.00    +0.000 A 
ATOM     10  N   UNL     1       2.449  -1.752  -0.258  0.00  0.00    +0.000 NA
ENDROOT
BRANCH   1  14
ATOM     11  C   UNL     1       5.609   2.174  -0.015  0.00  0.00    +0.000 A 
ATOM     12  C   UNL     1       5.700   0.878  -0.448  0.00  0.00    +0.000 A 
ATOM     13  C   UNL     1       4.616   0.033  -0.376  0.00  0.00    +0.000 A 
ATOM     14  C   UNL     1       3.415   0.463   0.132  0.00  0.00    +0.000 A 
ATOM     15  C   UNL     1       3.291   1.757   0.575  0.00  0.00    +0.000 A 
ATOM     16  C   UNL     1       4.389   2.595   0.495  0.00  0.00    +0.000 A 
BRANCH  11  17
ATOM     17  O   UNL     1       6.709   3.026  -0.091  0.00  0.00    +0.000 OA
BRANCH  17  19
ATOM     18  C   UNL     1       5.503   5.018  -0.468  0.00  0.00    +0.000 C 
ATOM     19  C   UNL     1       6.590   4.365   0.364  0.00  0.00    +0.000 C 
ENDBRANCH  17  19
ENDBRANCH  11  17
ENDBRANCH   1  14
BRANCH   3  20
ATOM     20  C   UNL     1      -1.296  -0.697   1.214  0.00  0.00    +0.000 C 
ATOM     21  O   UNL     1      -2.034  -1.486   1.841  0.00  0.00    +0.000 OA
ATOM     22  N   UNL     1      -1.781   0.620   0.975  0.00  0.00    +0.000 NA
BRANCH  22  23
ATOM     23  C   UNL     1      -3.056   1.101   1.405  0.00  0.00    +0.000 C 
BRANCH  23  24
ATOM     24  C   UNL     1      -4.178   0.609   0.572  0.00  0.00    +0.000 A 
ATOM     25  C   UNL     1      -4.209  -0.730   0.250  0.00  0.00    +0.000 A 
ATOM     26  C   UNL     1      -5.223  -1.268  -0.524  0.00  0.00    +0.000 A 
ATOM     27  C   UNL     1      -6.223  -0.467  -0.987  0.00  0.00    +0.000 A 
ATOM     28  C   UNL     1      -6.221   0.893  -0.680  0.00  0.00    +0.000 A 
ATOM     29  C   UNL     1      -5.193   1.410   0.099  0.00  0.00    +0.000 A 
BRANCH  28  30
ATOM     30  O   UNL     1      -7.255   1.653  -1.174  0.00  0.00    +0.000 OA
ATOM     31  C   UNL     1      -7.404   3.030  -0.959  0.00  0.00    +0.000 C 
ENDBRANCH  28  30
ENDBRANCH  23  24
ENDBRANCH  22  23
ENDBRANCH   3  20
TORSDOF 7
