REMARK  Name = 
REMARK  8 active torsions:
REMARK  status: ('A' for Active; 'I' for Inactive)
REMARK    1  A    between atoms: O_2  and  C_3
REMARK    2  A    between atoms: C_6  and  C_7
REMARK    3  A    between atoms: C_8  and  N_9
REMARK    4  A    between atoms: C_8  and  C_22
REMARK    5  A    between atoms: C_10  and  C_12
REMARK    6  A    between atoms: C_15  and  C_16
REMARK    7  A    between atoms: N_24  and  C_25
REMARK    8  A    between atoms: C_25  and  C_26
REMARK                            x       y       z     vdW  Elec       q    Type
REMARK                         _______ _______ _______ _____ _____    ______ ____
ROOT
ATOM      1  C   UNL     1      -0.635  -1.941   0.287  0.00  0.00    +0.000 C 
ATOM      2  C   UNL     1      -0.302  -0.704   0.609  0.00  0.00    +0.000 C 
ENDROOT
BRANCH   1   6
ATOM      3  C   UNL     1      -4.532  -3.701   0.128  0.00  0.00    +0.000 A 
ATOM      4  C   UNL     1      -4.291  -2.511  -0.568  0.00  0.00    +0.000 A 
ATOM      5  C   UNL     1      -3.016  -1.968  -0.503  0.00  0.00    +0.000 A 
ATOM      6  C   UNL     1      -1.961  -2.495   0.190  0.00  0.00    +0.000 A 
ATOM      7  C   UNL     1      -2.238  -3.698   0.881  0.00  0.00    +0.000 A 
ATOM      8  C   UNL     1      -3.490  -4.255   0.832  0.00  0.00    +0.000 A 
BRANCH   3  10
ATOM      9  C   UNL     1      -6.022  -5.498   0.812  0.00  0.00    +0.000 C 
ATOM     10  O   UNL     1      -5.782  -4.287   0.097  0.00  0.00    +0.000 OA
ENDBRANCH   3  10
ENDBRANCH   1   6
BRANCH   2  11
ATOM     11  N   UNL     1       1.099  -0.464   0.617  0.00  0.00    +0.000 NA
ATOM     12  C   UNL     1       1.792   0.440  -0.199  0.00  0.00    +0.000 C 
ATOM     13  O   UNL     1       1.232   1.159  -1.042  0.00  0.00    +0.000 OA
BRANCH  12  14
ATOM     14  C   UNL     1       3.256   0.506  -0.016  0.00  0.00    +0.000 A 
ATOM     15  C   UNL     1       3.873   0.347   1.202  0.00  0.00    +0.000 A 
ATOM     16  C   UNL     1       5.258   0.361   1.335  0.00  0.00    +0.000 A 
ATOM     17  C   UNL     1       6.009   0.550   0.171  0.00  0.00    +0.000 A 
ATOM     18  C   UNL     1       5.417   0.714  -1.049  0.00  0.00    +0.000 A 
ATOM     19  C   UNL     1       4.024   0.692  -1.145  0.00  0.00    +0.000 A 
BRANCH  17  20
ATOM     20  C   UNL     1       7.478   0.557   0.321  0.00  0.00    +0.000 C 
ATOM     21  C   UNL     1       7.848  -0.776   1.008  0.00  0.00    +0.000 C 
ATOM     22  C   UNL     1       8.105   0.558  -1.055  0.00  0.00    +0.000 C 
ATOM     23  C   UNL     1       7.923   1.724   1.142  0.00  0.00    +0.000 C 
ENDBRANCH  17  20
ENDBRANCH  12  14
ENDBRANCH   2  11
BRANCH   2  24
ATOM     24  C   UNL     1      -1.305   0.230   1.009  0.00  0.00    +0.000 C 
ATOM     25  O   UNL     1      -2.536  -0.110   1.097  0.00  0.00    +0.000 OA
ATOM     26  N   UNL     1      -1.110   1.601   1.358  0.00  0.00    +0.000 NA
BRANCH  26  27
ATOM     27  C   UNL     1      -2.167   2.469   1.767  0.00  0.00    +0.000 C 
BRANCH  27  28
ATOM     28  C   UNL     1      -3.098   2.939   0.763  0.00  0.00    +0.000 A 
ATOM     29  C   UNL     1      -2.707   3.836  -0.193  0.00  0.00    +0.000 A 
ATOM     30  C   UNL     1      -3.555   4.314  -1.159  0.00  0.00    +0.000 A 
ATOM     31  C   UNL     1      -4.845   3.889  -1.191  0.00  0.00    +0.000 A 
ATOM     32  C   UNL     1      -5.299   2.993  -0.267  0.00  0.00    +0.000 A 
ATOM     33  C   UNL     1      -4.426   2.530   0.697  0.00  0.00    +0.000 A 
ENDBRANCH  27  28
ENDBRANCH  26  27
ENDBRANCH   2  24
TORSDOF 8
