REMARK  Name = 
REMARK  7 active torsions:
REMARK  status: ('A' for Active; 'I' for Inactive)
REMARK    1  A    between atoms: C_2  and  O_3
REMARK    2  A    between atoms: O_3  and  C_4
REMARK    3  A    between atoms: C_7  and  C_8
REMARK    4  A    between atoms: C_10  and  C_11
REMARK    5  A    between atoms: N_13  and  C_14
REMARK    6  A    between atoms: C_14  and  C_15
REMARK    7  A    between atoms: C_18  and  O_19
REMARK                            x       y       z     vdW  Elec       q    Type
REMARK                         _______ _______ _______ _____ _____    ______ ____
ROOT
ATOM      1  C   UNL     1      -2.262  -0.482   0.390  0.00  0.00    +0.000 A 
ATOM      2  C   UNL     1      -1.372  -0.236  -0.631  0.00  0.00    +0.000 A 
ATOM      3  C   UNL     1      -0.197   0.402  -0.351  0.00  0.00    +0.000 A 
ATOM      4  C   UNL     1       0.060   0.785   0.969  0.00  0.00    +0.000 A 
ATOM      5  C   UNL     1       1.220   1.434   1.345  0.00  0.00    +0.000 A 
ATOM      6  C   UNL     1       1.486   1.816   2.624  0.00  0.00    +0.000 A 
ATOM      7  C   UNL     1       0.554   1.554   3.642  0.00  0.00    +0.000 A 
ATOM      8  C   UNL     1      -0.606   0.910   3.298  0.00  0.00    +0.000 A 
ATOM      9  C   UNL     1      -0.851   0.533   1.995  0.00  0.00    +0.000 A 
ATOM     10  N   UNL     1      -1.987  -0.100   1.645  0.00  0.00    +0.000 NA
ENDROOT
BRANCH   1  14
ATOM     11  C   UNL     1      -5.860  -2.582  -0.480  0.00  0.00    +0.000 A 
ATOM     12  C   UNL     1      -4.914  -2.397  -1.431  0.00  0.00    +0.000 A 
ATOM     13  C   UNL     1      -3.732  -1.699  -1.125  0.00  0.00    +0.000 A 
ATOM     14  C   UNL     1      -3.523  -1.194   0.153  0.00  0.00    +0.000 A 
ATOM     15  C   UNL     1      -4.494  -1.396   1.091  0.00  0.00    +0.000 A 
ATOM     16  C   UNL     1      -5.674  -2.090   0.789  0.00  0.00    +0.000 A 
BRANCH  11  17
ATOM     17  O   UNL     1      -7.071  -3.299  -0.778  0.00  0.00    +0.000 OA
BRANCH  17  19
ATOM     18  C   UNL     1      -7.006  -2.557  -3.015  0.00  0.00    +0.000 C 
ATOM     19  C   UNL     1      -7.141  -3.794  -2.140  0.00  0.00    +0.000 C 
ENDBRANCH  17  19
ENDBRANCH  11  17
ENDBRANCH   1  14
BRANCH   3  20
ATOM     20  C   UNL     1       0.859   0.690  -1.300  0.00  0.00    +0.000 C 
ATOM     21  O   UNL     1       0.956   1.811  -1.901  0.00  0.00    +0.000 OA
ATOM     22  N   UNL     1       1.821  -0.272  -1.601  0.00  0.00    +0.000 NA
BRANCH  22  23
ATOM     23  C   UNL     1       2.937  -0.193  -2.486  0.00  0.00    +0.000 C 
BRANCH  23  24
ATOM     24  C   UNL     1       4.076   0.505  -1.838  0.00  0.00    +0.000 A 
ATOM     25  C   UNL     1       5.093   1.127  -2.552  0.00  0.00    +0.000 A 
ATOM     26  C   UNL     1       6.160   1.751  -1.972  0.00  0.00    +0.000 A 
ATOM     27  C   UNL     1       6.293   1.800  -0.604  0.00  0.00    +0.000 A 
ATOM     28  C   UNL     1       5.264   1.172   0.144  0.00  0.00    +0.000 A 
ATOM     29  C   UNL     1       4.213   0.557  -0.457  0.00  0.00    +0.000 A 
BRANCH  27  30
ATOM     30  O   UNL     1       7.284   2.377   0.115  0.00  0.00    +0.000 OA
ATOM     31  C   UNL     1       8.413   3.066  -0.399  0.00  0.00    +0.000 C 
ENDBRANCH  27  30
ENDBRANCH  23  24
ENDBRANCH  22  23
ENDBRANCH   3  20
TORSDOF 7
