REMARK  Name = 
REMARK  8 active torsions:
REMARK  status: ('A' for Active; 'I' for Inactive)
REMARK    1  A    between atoms: C_2  and  O_3
REMARK    2  A    between atoms: O_3  and  C_4
REMARK    3  A    between atoms: C_7  and  N_8
REMARK    4  A    between atoms: C_11  and  N_12
REMARK    5  A    between atoms: N_12  and  C_13
REMARK    6  A    between atoms: C_18  and  O_19
REMARK    7  A    between atoms: C_21  and  S_22
REMARK    8  A    between atoms: S_22  and  C_23
REMARK                            x       y       z     vdW  Elec       q    Type
REMARK                         _______ _______ _______ _____ _____    ______ ____
ROOT
ATOM      1  N   UNL     1       1.351  -0.073  -0.058  0.00  0.00    +0.000 N 
ATOM      2  C   UNL     1       0.811   1.176  -0.420  0.00  0.00    +0.000 C 
ATOM      3  O   UNL     1       1.484   2.243  -0.586  0.00  0.00    +0.000 OA
ATOM      4  C   UNL     1      -0.661   1.036  -0.571  0.00  0.00    +0.000 C 
ATOM      5  C   UNL     1      -1.016  -0.220  -0.321  0.00  0.00    +0.000 C 
ATOM      6  C   UNL     1       0.212  -0.934   0.002  0.00  0.00    +0.000 C 
ATOM      7  O   UNL     1       0.281  -2.157   0.297  0.00  0.00    +0.000 OA
ENDROOT
BRANCH   1  11
ATOM      8  C   UNL     1       5.432  -1.034   0.651  0.00  0.00    +0.000 A 
ATOM      9  C   UNL     1       4.642  -1.811  -0.171  0.00  0.00    +0.000 A 
ATOM     10  C   UNL     1       3.314  -1.496  -0.400  0.00  0.00    +0.000 A 
ATOM     11  C   UNL     1       2.729  -0.392   0.186  0.00  0.00    +0.000 A 
ATOM     12  C   UNL     1       3.519   0.379   1.004  0.00  0.00    +0.000 A 
ATOM     13  C   UNL     1       4.838   0.070   1.234  0.00  0.00    +0.000 A 
BRANCH   8  14
ATOM     14  O   UNL     1       6.764  -1.386   0.857  0.00  0.00    +0.000 OA
BRANCH  14  16
ATOM     15  C   UNL     1       7.740   0.758   1.143  0.00  0.00    +0.000 C 
ATOM     16  C   UNL     1       7.626  -0.655   1.673  0.00  0.00    +0.000 C 
ENDBRANCH  14  16
ENDBRANCH   8  14
ENDBRANCH   1  11
BRANCH   4  17
ATOM     17  N   UNL     1      -1.488   2.105  -0.930  0.00  0.00    +0.000 NA
BRANCH  17  18
ATOM     18  C   UNL     1      -2.755   2.444  -0.475  0.00  0.00    +0.000 A 
ATOM     19  C   UNL     1      -3.535   1.787   0.434  0.00  0.00    +0.000 A 
ATOM     20  C   UNL     1      -4.784   2.236   0.791  0.00  0.00    +0.000 A 
ATOM     21  C   UNL     1      -5.309   3.395   0.231  0.00  0.00    +0.000 A 
ATOM     22  C   UNL     1      -4.553   4.073  -0.681  0.00  0.00    +0.000 A 
ATOM     23  C   UNL     1      -3.312   3.607  -1.022  0.00  0.00    +0.000 A 
BRANCH  23  24
ATOM     24  O   UNL     1      -2.579   4.346  -1.963  0.00  0.00    +0.000 OA
ATOM     25  C   UNL     1      -3.072   5.513  -2.545  0.00  0.00    +0.000 C 
ENDBRANCH  23  24
ENDBRANCH  17  18
ENDBRANCH   4  17
BRANCH   5  26
ATOM     26  S   UNL     1      -2.681  -0.904  -0.369  0.00  0.00    +0.000 S 
BRANCH  26  27
ATOM     27  C   UNL     1      -2.580  -2.636   0.042  0.00  0.00    +0.000 A 
ATOM     28  C   UNL     1      -2.661  -3.122   1.329  0.00  0.00    +0.000 A 
ATOM     29  C   UNL     1      -2.579  -4.499   1.538  0.00  0.00    +0.000 A 
ATOM     30  C   UNL     1      -2.421  -5.382   0.520  0.00  0.00    +0.000 A 
ATOM     31  C   UNL     1      -2.337  -4.922  -0.780  0.00  0.00    +0.000 A 
ATOM     32  C   UNL     1      -2.420  -3.543  -0.983  0.00  0.00    +0.000 A 
ENDBRANCH  26  27
ENDBRANCH   5  26
TORSDOF 8
