REMARK  Name = 
REMARK  6 active torsions:
REMARK  status: ('A' for Active; 'I' for Inactive)
REMARK    1  A    between atoms: O_2  and  C_3
REMARK    2  A    between atoms: C_8  and  N_9
REMARK    3  A    between atoms: C_10  and  C_12
REMARK    4  A    between atoms: C_13  and  N_14
REMARK    5  A    between atoms: C_15  and  C_17
REMARK    6  A    between atoms: C_28  and  C_29
REMARK                            x       y       z     vdW  Elec       q    Type
REMARK                         _______ _______ _______ _____ _____    ______ ____
ROOT
ATOM      1  C   UNL     1       0.078   0.434   0.165  0.00  0.00    +0.000 A 
ATOM      2  C   UNL     1       1.333   0.745  -0.287  0.00  0.00    +0.000 A 
ATOM      3  S   UNL     1       1.571   2.332   0.286  0.00  0.00    +0.000 S 
ATOM      4  C   UNL     1       0.083   2.565   1.082  0.00  0.00    +0.000 A 
ATOM      5  C   UNL     1      -0.555   1.389   0.872  0.00  0.00    +0.000 A 
ATOM      6  C   UNL     1      -1.942   1.289   1.476  0.00  0.00    +0.000 C 
ATOM      7  C   UNL     1      -2.384   2.534   2.065  0.00  0.00    +0.000 C 
ATOM      8  C   UNL     1      -1.191   3.071   3.079  0.00  0.00    +0.000 C 
ATOM      9  C   UNL     1      -0.401   3.755   1.819  0.00  0.00    +0.000 C 
ENDROOT
BRANCH   8  10
ATOM     10  C   UNL     1      -2.045   4.418   3.489  0.00  0.00    +0.000 C 
ATOM     11  C   UNL     1      -1.219   5.182   4.448  0.00  0.00    +0.000 C 
ATOM     12  C   UNL     1      -3.260   3.865   4.245  0.00  0.00    +0.000 C 
ATOM     13  C   UNL     1      -2.495   5.088   2.284  0.00  0.00    +0.000 C 
ENDBRANCH   8  10
BRANCH   1  15
ATOM     14  N   UNL     1      -1.784  -1.288   0.291  0.00  0.00    +0.000 NA
ATOM     15  C   UNL     1      -0.491  -0.908  -0.149  0.00  0.00    +0.000 C 
ATOM     16  O   UNL     1       0.132  -1.758  -0.807  0.00  0.00    +0.000 OA
BRANCH  14  22
ATOM     17  C   UNL     1      -3.582  -2.958   0.410  0.00  0.00    +0.000 A 
ATOM     18  C   UNL     1      -4.047  -4.228   0.079  0.00  0.00    +0.000 A 
ATOM     19  C   UNL     1      -3.287  -5.101  -0.653  0.00  0.00    +0.000 A 
ATOM     20  C   UNL     1      -2.024  -4.705  -1.072  0.00  0.00    +0.000 A 
ATOM     21  C   UNL     1      -1.576  -3.443  -0.737  0.00  0.00    +0.000 A 
ATOM     22  C   UNL     1      -2.346  -2.568   0.001  0.00  0.00    +0.000 A 
BRANCH  17  24
ATOM     23  C   UNL     1      -5.626  -2.483   1.571  0.00  0.00    +0.000 C 
ATOM     24  O   UNL     1      -4.346  -2.069   1.151  0.00  0.00    +0.000 OA
ENDBRANCH  17  24
ENDBRANCH  14  22
ENDBRANCH   1  15
BRANCH   2  25
ATOM     25  N   UNL     1       2.219  -0.065  -1.052  0.00  0.00    +0.000 NA
ATOM     26  C   UNL     1       3.502   0.422  -1.441  0.00  0.00    +0.000 C 
ATOM     27  O   UNL     1       3.832   1.565  -1.101  0.00  0.00    +0.000 OA
BRANCH  26  28
ATOM     28  C   UNL     1       4.404  -0.415  -2.224  0.00  0.00    +0.000 A 
ATOM     29  C   UNL     1       5.641   0.075  -2.591  0.00  0.00    +0.000 A 
ATOM     30  C   UNL     1       6.537  -0.669  -3.331  0.00  0.00    +0.000 A 
ATOM     31  C   UNL     1       6.213  -1.959  -3.737  0.00  0.00    +0.000 A 
ATOM     32  C   UNL     1       4.978  -2.424  -3.361  0.00  0.00    +0.000 A 
ATOM     33  C   UNL     1       4.083  -1.688  -2.624  0.00  0.00    +0.000 A 
ENDBRANCH  26  28
ENDBRANCH   2  25
TORSDOF 6
