REMARK  Name = 
REMARK  6 active torsions:
REMARK  status: ('A' for Active; 'I' for Inactive)
REMARK    1  A    between atoms: C_3  and  C_4
REMARK    2  A    between atoms: N_6  and  C_7
REMARK    3  A    between atoms: C_7  and  C_8
REMARK    4  A    between atoms: C_8  and  C_9
REMARK    5  A    between atoms: N_25  and  C_26
REMARK    6  A    between atoms: C_26  and  C_27
REMARK                            x       y       z     vdW  Elec       q    Type
REMARK                         _______ _______ _______ _____ _____    ______ ____
ROOT
ATOM      1  N   UNL     1       0.670   2.859   1.680  0.00  0.00    +0.000 NA
ATOM      2  C   UNL     1       0.089   1.806   0.902  0.00  0.00    +0.000 A 
ATOM      3  C   UNL     1       0.495   0.492   1.005  0.00  0.00    +0.000 A 
ATOM      4  C   UNL     1      -0.312  -0.198   0.091  0.00  0.00    +0.000 A 
ATOM      5  N   UNL     1      -0.304  -1.512  -0.184  0.00  0.00    +0.000 NA
ATOM      6  C   UNL     1      -1.170  -1.974  -1.104  0.00  0.00    +0.000 A 
ATOM      7  C   UNL     1      -1.200  -3.337  -1.424  0.00  0.00    +0.000 A 
ATOM      8  C   UNL     1      -2.080  -3.815  -2.362  0.00  0.00    +0.000 A 
ATOM      9  C   UNL     1      -2.935  -2.918  -2.980  0.00  0.00    +0.000 A 
ATOM     10  C   UNL     1      -2.904  -1.575  -2.661  0.00  0.00    +0.000 A 
ATOM     11  C   UNL     1      -2.020  -1.081  -1.718  0.00  0.00    +0.000 A 
ATOM     12  N   UNL     1      -2.009   0.252  -1.421  0.00  0.00    +0.000 NA
ATOM     13  C   UNL     1      -1.142   0.720  -0.498  0.00  0.00    +0.000 A 
ATOM     14  N   UNL     1      -0.896   1.958   0.001  0.00  0.00    +0.000 N 
ENDROOT
BRANCH   3  15
ATOM     15  C   UNL     1       1.525  -0.080   1.859  0.00  0.00    +0.000 C 
ATOM     16  O   UNL     1       2.157   0.678   2.621  0.00  0.00    +0.000 OA
ATOM     17  N   UNL     1       1.774  -1.472   1.796  0.00  0.00    +0.000 NA
BRANCH  17  18
ATOM     18  C   UNL     1       2.793  -2.038   2.640  0.00  0.00    +0.000 C 
BRANCH  18  19
ATOM     19  C   UNL     1       4.106  -1.361   2.273  0.00  0.00    +0.000 C 
BRANCH  19  20
ATOM     20  C   UNL     1       4.378  -1.636   0.838  0.00  0.00    +0.000 C 
ATOM     21  C   UNL     1       3.551  -2.362   0.091  0.00  0.00    +0.000 C 
ATOM     22  C   UNL     1       3.805  -2.643  -1.327  0.00  0.00    +0.000 C 
ATOM     23  C   UNL     1       5.251  -2.744  -1.690  0.00  0.00    +0.000 C 
ATOM     24  C   UNL     1       6.186  -2.238  -0.641  0.00  0.00    +0.000 C 
ATOM     25  C   UNL     1       5.601  -1.104   0.175  0.00  0.00    +0.000 C 
ENDBRANCH  19  20
ENDBRANCH  18  19
ENDBRANCH  17  18
ENDBRANCH   3  15
BRANCH  14  26
ATOM     26  C   UNL     1      -1.570   3.165  -0.378  0.00  0.00    +0.000 C 
BRANCH  26  27
ATOM     27  C   UNL     1      -2.763   3.469   0.420  0.00  0.00    +0.000 A 
ATOM     28  C   UNL     1      -2.790   4.213   1.578  0.00  0.00    +0.000 A 
ATOM     29  C   UNL     1      -3.994   4.433   2.250  0.00  0.00    +0.000 A 
ATOM     30  C   UNL     1      -5.173   3.910   1.765  0.00  0.00    +0.000 A 
ATOM     31  C   UNL     1      -5.156   3.173   0.621  0.00  0.00    +0.000 A 
ATOM     32  C   UNL     1      -3.963   2.963  -0.032  0.00  0.00    +0.000 A 
ENDBRANCH  26  27
ENDBRANCH  14  26
TORSDOF 6
