REMARK  Name = 
REMARK  6 active torsions:
REMARK  status: ('A' for Active; 'I' for Inactive)
REMARK    1  A    between atoms: C_2  and  C_3
REMARK    2  A    between atoms: C_3  and  O_4
REMARK    3  A    between atoms: O_4  and  C_5
REMARK    4  A    between atoms: N_11  and  C_12
REMARK    5  A    between atoms: C_16  and  C_17
REMARK    6  A    between atoms: N_19  and  C_20
REMARK                            x       y       z     vdW  Elec       q    Type
REMARK                         _______ _______ _______ _____ _____    ______ ____
ROOT
ATOM      1  C   UNL     1      -0.201  -1.758  -0.305  0.00  0.00    +0.000 A 
ATOM      2  S   UNL     1      -0.680  -3.394  -0.320  0.00  0.00    +0.000 S 
ATOM      3  C   UNL     1      -2.363  -3.183  -0.424  0.00  0.00    +0.000 A 
ATOM      4  C   UNL     1      -2.513  -1.826  -0.445  0.00  0.00    +0.000 A 
ATOM      5  C   UNL     1      -1.385  -1.083  -0.382  0.00  0.00    +0.000 A 
ATOM      6  C   UNL     1      -3.902  -1.198  -0.534  0.00  0.00    +0.000 C 
ATOM      7  C   UNL     1      -4.683  -1.487   0.712  0.00  0.00    +0.000 C 
ATOM      8  C   UNL     1      -4.105  -2.734   1.344  0.00  0.00    +0.000 C 
ATOM      9  C   UNL     1      -4.421  -3.969   0.556  0.00  0.00    +0.000 C 
ATOM     10  C   UNL     1      -3.374  -4.300  -0.476  0.00  0.00    +0.000 C 
ENDROOT
BRANCH   1  13
ATOM     11  O   UNL     1       2.003  -3.312  -0.158  0.00  0.00    +0.000 OA
ATOM     12  C   UNL     1       2.249  -2.092  -0.153  0.00  0.00    +0.000 C 
ATOM     13  N   UNL     1       1.134  -1.192  -0.228  0.00  0.00    +0.000 NA
BRANCH  12  14
ATOM     14  C   UNL     1       3.648  -1.601  -0.072  0.00  0.00    +0.000 C 
BRANCH  14  15
ATOM     15  O   UNL     1       3.627  -0.196  -0.085  0.00  0.00    +0.000 OA
BRANCH  15  16
ATOM     16  C   UNL     1       4.814   0.497  -0.019  0.00  0.00    +0.000 A 
ATOM     17  C   UNL     1       5.997  -0.188   0.058  0.00  0.00    +0.000 A 
ATOM     18  C   UNL     1       7.216   0.457   0.127  0.00  0.00    +0.000 A 
ATOM     19  C   UNL     1       7.281   1.831   0.119  0.00  0.00    +0.000 A 
ATOM     20  C   UNL     1       6.095   2.526   0.041  0.00  0.00    +0.000 A 
ATOM     21  C   UNL     1       4.865   1.879  -0.028  0.00  0.00    +0.000 A 
ENDBRANCH  15  16
ENDBRANCH  14  15
ENDBRANCH  12  14
ENDBRANCH   1  13
BRANCH   5  22
ATOM     22  C   UNL     1      -1.411   0.401  -0.396  0.00  0.00    +0.000 C 
ATOM     23  O   UNL     1      -0.362   1.077  -0.338  0.00  0.00    +0.000 OA
ATOM     24  N   UNL     1      -2.625   1.142  -0.476  0.00  0.00    +0.000 NA
BRANCH  24  25
ATOM     25  C   UNL     1      -2.668   2.550  -0.490  0.00  0.00    +0.000 A 
ATOM     26  C   UNL     1      -1.567   3.369  -0.430  0.00  0.00    +0.000 A 
ATOM     27  C   UNL     1      -1.726   4.757  -0.452  0.00  0.00    +0.000 A 
ATOM     28  C   UNL     1      -2.965   5.344  -0.531  0.00  0.00    +0.000 A 
ATOM     29  C   UNL     1      -4.073   4.523  -0.592  0.00  0.00    +0.000 A 
ATOM     30  C   UNL     1      -3.905   3.159  -0.570  0.00  0.00    +0.000 A 
ENDBRANCH  24  25
ENDBRANCH   5  22
TORSDOF 6
