REMARK  Name = 
REMARK  7 active torsions:
REMARK  status: ('A' for Active; 'I' for Inactive)
REMARK    1  A    between atoms: C_3  and  C_4
REMARK    2  A    between atoms: C_10  and  C_11
REMARK    3  A    between atoms: C_15  and  O_16
REMARK    4  A    between atoms: O_16  and  C_17
REMARK    5  A    between atoms: C_17  and  C_18
REMARK    6  A    between atoms: N_27  and  C_28
REMARK    7  A    between atoms: C_28  and  C_29
REMARK                            x       y       z     vdW  Elec       q    Type
REMARK                         _______ _______ _______ _____ _____    ______ ____
ROOT
ATOM      1  C   UNL     1      -2.851   2.179  -1.961  0.00  0.00    +0.000 C 
ATOM      2  C   UNL     1      -1.927   1.589  -0.938  0.00  0.00    +0.000 A 
ATOM      3  C   UNL     1      -1.059   0.557  -1.217  0.00  0.00    +0.000 A 
ATOM      4  C   UNL     1      -0.375   0.287  -0.026  0.00  0.00    +0.000 A 
ATOM      5  C   UNL     1       0.606  -0.636   0.289  0.00  0.00    +0.000 A 
ATOM      6  C   UNL     1       1.126  -0.702   1.556  0.00  0.00    +0.000 A 
ATOM      7  C   UNL     1       0.627   0.185   2.482  0.00  0.00    +0.000 A 
ATOM      8  C   UNL     1      -0.347   1.115   2.205  0.00  0.00    +0.000 A 
ATOM      9  C   UNL     1      -0.854   1.155   0.904  0.00  0.00    +0.000 A 
ATOM     10  N   UNL     1      -1.804   1.951   0.347  0.00  0.00    +0.000 N 
ENDROOT
BRANCH   3  11
ATOM     11  C   UNL     1      -0.831  -0.159  -2.447  0.00  0.00    +0.000 C 
ATOM     12  O   UNL     1       0.034   0.277  -3.224  0.00  0.00    +0.000 OA
ATOM     13  N   UNL     1      -1.510  -1.318  -2.843  0.00  0.00    +0.000 N 
ATOM     14  C   UNL     1      -1.357  -2.102  -4.045  0.00  0.00    +0.000 C 
ATOM     15  C   UNL     1      -2.817  -1.982  -4.485  0.00  0.00    +0.000 C 
ATOM     16  C   UNL     1      -3.536  -2.497  -3.296  0.00  0.00    +0.000 C 
ATOM     17  C   UNL     1      -2.619  -2.037  -2.044  0.00  0.00    +0.000 C 
BRANCH  17  18
ATOM     18  C   UNL     1      -1.882  -3.456  -1.856  0.00  0.00    +0.000 C 
ATOM     19  O   UNL     1      -1.619  -4.030  -3.054  0.00  0.00    +0.000 OA
ENDBRANCH  17  18
ENDBRANCH   3  11
BRANCH   6  20
ATOM     20  O   UNL     1       2.109  -1.630   1.862  0.00  0.00    +0.000 OA
BRANCH  20  21
ATOM     21  C   UNL     1       2.673  -1.733   3.157  0.00  0.00    +0.000 C 
BRANCH  21  22
ATOM     22  C   UNL     1       3.679  -2.826   3.098  0.00  0.00    +0.000 A 
ATOM     23  C   UNL     1       4.369  -3.116   4.252  0.00  0.00    +0.000 A 
ATOM     24  C   UNL     1       5.333  -4.128   4.289  0.00  0.00    +0.000 A 
ATOM     25  C   UNL     1       5.613  -4.859   3.163  0.00  0.00    +0.000 A 
ATOM     26  C   UNL     1       4.912  -4.554   2.016  0.00  0.00    +0.000 A 
ATOM     27  C   UNL     1       3.959  -3.556   1.974  0.00  0.00    +0.000 A 
ENDBRANCH  21  22
ENDBRANCH  20  21
ENDBRANCH   6  20
BRANCH  10  28
ATOM     28  C   UNL     1      -2.558   2.992   0.966  0.00  0.00    +0.000 C 
BRANCH  28  29
ATOM     29  C   UNL     1      -1.877   4.302   0.854  0.00  0.00    +0.000 A 
ATOM     30  C   UNL     1      -1.002   4.635   1.885  0.00  0.00    +0.000 A 
ATOM     31  C   UNL     1      -0.315   5.836   1.879  0.00  0.00    +0.000 A 
ATOM     32  C   UNL     1      -0.487   6.720   0.849  0.00  0.00    +0.000 A 
ATOM     33  C   UNL     1      -1.358   6.366  -0.159  0.00  0.00    +0.000 A 
ATOM     34  C   UNL     1      -2.056   5.176  -0.177  0.00  0.00    +0.000 A 
ENDBRANCH  28  29
ENDBRANCH  10  28
TORSDOF 7
