REMARK  Name = 
REMARK  8 active torsions:
REMARK  status: ('A' for Active; 'I' for Inactive)
REMARK    1  A    between atoms: C_2  and  O_3
REMARK    2  A    between atoms: O_3  and  C_4
REMARK    3  A    between atoms: C_9  and  C_10
REMARK    4  A    between atoms: C_11  and  C_12
REMARK    5  A    between atoms: N_14  and  C_15
REMARK    6  A    between atoms: C_15  and  C_16
REMARK    7  A    between atoms: C_16  and  C_17
REMARK    8  A    between atoms: C_24  and  C_25
REMARK                            x       y       z     vdW  Elec       q    Type
REMARK                         _______ _______ _______ _____ _____    ______ ____
ROOT
ATOM      1  C   UNL     1      -2.439  -0.415  -0.087  0.00  0.00    +0.000 C 
ATOM      2  C   UNL     1      -1.517   0.488   0.073  0.00  0.00    +0.000 C 
ATOM      3  C   UNL     1      -2.324   1.870  -0.119  0.00  0.00    +0.000 C 
ATOM      4  O   UNL     1      -3.197   1.286  -1.212  0.00  0.00    +0.000 OA
ATOM      5  N   UNL     1      -3.674   0.283  -0.420  0.00  0.00    +0.000 NA
ENDROOT
BRANCH   1  11
ATOM      6  C   UNL     1      -3.215  -2.599   0.718  0.00  0.00    +0.000 A 
ATOM      7  C   UNL     1      -3.114  -3.994   0.810  0.00  0.00    +0.000 A 
ATOM      8  C   UNL     1      -2.086  -4.675   0.200  0.00  0.00    +0.000 A 
ATOM      9  C   UNL     1      -1.160  -3.944  -0.505  0.00  0.00    +0.000 A 
ATOM     10  C   UNL     1      -1.271  -2.573  -0.587  0.00  0.00    +0.000 A 
ATOM     11  C   UNL     1      -2.287  -1.861   0.011  0.00  0.00    +0.000 A 
BRANCH   6  12
ATOM     12  O   UNL     1      -4.229  -1.896   1.318  0.00  0.00    +0.000 OA
BRANCH  12  14
ATOM     13  C   UNL     1      -6.122  -1.228   2.518  0.00  0.00    +0.000 C 
ATOM     14  C   UNL     1      -5.273  -2.426   2.079  0.00  0.00    +0.000 C 
ENDBRANCH  12  14
ENDBRANCH   6  12
ENDBRANCH   1  11
BRANCH   3  15
ATOM     15  C   UNL     1      -1.278   2.656  -0.988  0.00  0.00    +0.000 A 
ATOM     16  C   UNL     1      -0.616   2.303  -2.055  0.00  0.00    +0.000 A 
ATOM     17  C   UNL     1       0.277   3.124  -2.716  0.00  0.00    +0.000 A 
ATOM     18  C   UNL     1       0.493   4.388  -2.235  0.00  0.00    +0.000 A 
ATOM     19  C   UNL     1      -0.180   4.806  -1.116  0.00  0.00    +0.000 A 
ATOM     20  C   UNL     1      -1.079   3.925  -0.482  0.00  0.00    +0.000 A 
ENDBRANCH   3  15
BRANCH   2  21
ATOM     21  C   UNL     1      -0.154   0.341   0.378  0.00  0.00    +0.000 C 
ATOM     22  O   UNL     1       0.349  -0.796   0.548  0.00  0.00    +0.000 OA
ATOM     23  N   UNL     1       0.816   1.406   0.532  0.00  0.00    +0.000 NA
BRANCH  23  24
ATOM     24  C   UNL     1       2.199   1.099   0.861  0.00  0.00    +0.000 C 
BRANCH  24  25
ATOM     25  C   UNL     1       2.843   0.207  -0.168  0.00  0.00    +0.000 C 
BRANCH  25  26
ATOM     26  C   UNL     1       4.232  -0.141   0.156  0.00  0.00    +0.000 A 
ATOM     27  C   UNL     1       4.425  -1.425   0.673  0.00  0.00    +0.000 A 
ATOM     28  C   UNL     1       5.680  -1.865   1.023  0.00  0.00    +0.000 A 
ATOM     29  C   UNL     1       6.794  -1.065   0.880  0.00  0.00    +0.000 A 
ATOM     30  C   UNL     1       6.612   0.197   0.375  0.00  0.00    +0.000 A 
ATOM     31  C   UNL     1       5.338   0.637   0.021  0.00  0.00    +0.000 A 
ATOM     32  F   UNL     1       5.156   1.886  -0.482  0.00  0.00    +0.000 F 
ENDBRANCH  25  26
ENDBRANCH  24  25
ENDBRANCH  23  24
ENDBRANCH   2  21
TORSDOF 8
