REMARK  Name = 
REMARK  10 active torsions:
REMARK  status: ('A' for Active; 'I' for Inactive)
REMARK    1  A    between atoms: C_2  and  O_3
REMARK    2  A    between atoms: O_3  and  C_4
REMARK    3  A    between atoms: C_4  and  C_6
REMARK    4  A    between atoms: C_7  and  C_8
REMARK    5  A    between atoms: C_16  and  N_17
REMARK    6  A    between atoms: C_18  and  C_20
REMARK    7  A    between atoms: C_20  and  N_21
REMARK    8  A    between atoms: N_21  and  C_22
REMARK    9  A    between atoms: C_22  and  C_23
REMARK   10  A    between atoms: C_23  and  C_24
REMARK                            x       y       z     vdW  Elec       q    Type
REMARK                         _______ _______ _______ _____ _____    ______ ____
ROOT
ATOM      1  C   UNL     1      -2.138  -0.004   0.058  0.00  0.00    +0.000 A 
ATOM      2  C   UNL     1      -3.106  -0.286   0.962  0.00  0.00    +0.000 A 
ATOM      3  C   UNL     1      -2.716  -0.312   2.284  0.00  0.00    +0.000 A 
ATOM      4  S   UNL     1      -1.070   0.045   2.237  0.00  0.00    +0.000 S 
ATOM      5  C   UNL     1      -0.876   0.225   0.560  0.00  0.00    +0.000 A 
ENDROOT
BRANCH   2   6
ATOM      6  C   UNL     1      -4.556  -0.534   0.659  0.00  0.00    +0.000 A 
ATOM      7  C   UNL     1      -5.304   0.338  -0.070  0.00  0.00    +0.000 A 
ATOM      8  C   UNL     1      -6.657   0.100  -0.342  0.00  0.00    +0.000 A 
ATOM      9  C   UNL     1      -7.252  -1.051   0.141  0.00  0.00    +0.000 A 
ATOM     10  C   UNL     1      -6.494  -1.931   0.879  0.00  0.00    +0.000 A 
ATOM     11  C   UNL     1      -5.169  -1.673   1.131  0.00  0.00    +0.000 A 
ENDBRANCH   2   6
BRANCH   5  12
ATOM     12  N   UNL     1       0.322   0.545  -0.199  0.00  0.00    +0.000 NA
ATOM     13  C   UNL     1       1.520   0.747   0.546  0.00  0.00    +0.000 C 
ATOM     14  O   UNL     1       1.444   0.633   1.794  0.00  0.00    +0.000 OA
BRANCH  13  15
ATOM     15  C   UNL     1       2.811   1.075  -0.070  0.00  0.00    +0.000 C 
BRANCH  15  16
ATOM     16  N   UNL     1       3.806   1.214   0.972  0.00  0.00    +0.000 NA
BRANCH  16  17
ATOM     17  C   UNL     1       4.030  -0.094   1.558  0.00  0.00    +0.000 C 
BRANCH  17  18
ATOM     18  C   UNL     1       4.716  -0.951   0.513  0.00  0.00    +0.000 C 
BRANCH  18  19
ATOM     19  C   UNL     1       6.006  -0.266   0.186  0.00  0.00    +0.000 A 
ATOM     20  C   UNL     1       7.159  -0.562   0.900  0.00  0.00    +0.000 A 
ATOM     21  C   UNL     1       8.310   0.084   0.573  0.00  0.00    +0.000 A 
ATOM     22  C   UNL     1       8.327   1.008  -0.442  0.00  0.00    +0.000 A 
ATOM     23  C   UNL     1       7.175   1.306  -1.158  0.00  0.00    +0.000 A 
ATOM     24  C   UNL     1       6.025   0.657  -0.827  0.00  0.00    +0.000 A 
ENDBRANCH  18  19
ENDBRANCH  17  18
ENDBRANCH  16  17
ENDBRANCH  15  16
ENDBRANCH  13  15
ENDBRANCH   5  12
BRANCH   1  25
ATOM     25  C   UNL     1      -2.372   0.053  -1.422  0.00  0.00    +0.000 C 
ATOM     26  O   UNL     1      -1.434   0.317  -2.217  0.00  0.00    +0.000 OA
BRANCH  25  27
ATOM     27  O   UNL     1      -3.603  -0.177  -1.996  0.00  0.00    +0.000 OA
BRANCH  27  29
ATOM     28  C   UNL     1      -5.179  -0.400  -3.728  0.00  0.00    +0.000 C 
ATOM     29  C   UNL     1      -3.728  -0.103  -3.413  0.00  0.00    +0.000 C 
ENDBRANCH  27  29
ENDBRANCH  25  27
ENDBRANCH   1  25
TORSDOF 10
