REMARK  Name = 
REMARK  8 active torsions:
REMARK  status: ('A' for Active; 'I' for Inactive)
REMARK    1  A    between atoms: O_2  and  C_3
REMARK    2  A    between atoms: C_7  and  C_8
REMARK    3  A    between atoms: N_9  and  N_10
REMARK    4  A    between atoms: C_11  and  C_13
REMARK    5  A    between atoms: C_13  and  S_14
REMARK    6  A    between atoms: S_14  and  C_15
REMARK    7  A    between atoms: N_23  and  C_24
REMARK    8  A    between atoms: C_24  and  C_25
REMARK                            x       y       z     vdW  Elec       q    Type
REMARK                         _______ _______ _______ _____ _____    ______ ____
ROOT
ATOM      1  C   UNL     1      -2.118  -0.384  -0.091  0.00  0.00    +0.000 A 
ATOM      2  N   UNL     1      -1.900   0.686  -0.899  0.00  0.00    +0.000 NA
ATOM      3  C   UNL     1      -2.747   1.692  -0.601  0.00  0.00    +0.000 A 
ATOM      4  C   UNL     1      -2.953   2.964  -1.093  0.00  0.00    +0.000 A 
ATOM      5  C   UNL     1      -3.929   3.764  -0.552  0.00  0.00    +0.000 A 
ATOM      6  C   UNL     1      -4.700   3.296   0.481  0.00  0.00    +0.000 A 
ATOM      7  C   UNL     1      -4.482   2.025   0.962  0.00  0.00    +0.000 A 
ATOM      8  C   UNL     1      -3.521   1.191   0.453  0.00  0.00    +0.000 A 
ATOM      9  N   UNL     1      -3.119  -0.057   0.736  0.00  0.00    +0.000 N 
ENDROOT
BRANCH   1  10
ATOM     10  S   UNL     1      -1.223  -1.940  -0.134  0.00  0.00    +0.000 S 
BRANCH  10  11
ATOM     11  C   UNL     1       0.030  -1.870  -1.430  0.00  0.00    +0.000 C 
BRANCH  11  13
ATOM     12  N   UNL     1       2.223  -1.143  -0.331  0.00  0.00    +0.000 NA
ATOM     13  C   UNL     1       1.059  -0.864  -1.070  0.00  0.00    +0.000 C 
ATOM     14  O   UNL     1       0.880   0.331  -1.453  0.00  0.00    +0.000 OA
BRANCH  12  16
ATOM     15  C   UNL     1       4.404  -0.543  -0.004  0.00  0.00    +0.000 C 
ATOM     16  N   UNL     1       3.179  -0.146  -0.011  0.00  0.00    +0.000 NA
BRANCH  15  21
ATOM     17  C   UNL     1       7.881   0.763   0.602  0.00  0.00    +0.000 A 
ATOM     18  C   UNL     1       7.650   2.087   0.901  0.00  0.00    +0.000 A 
ATOM     19  C   UNL     1       6.346   2.534   0.900  0.00  0.00    +0.000 A 
ATOM     20  C   UNL     1       5.289   1.696   0.609  0.00  0.00    +0.000 A 
ATOM     21  C   UNL     1       5.515   0.369   0.309  0.00  0.00    +0.000 A 
ATOM     22  C   UNL     1       6.813  -0.060   0.314  0.00  0.00    +0.000 A 
BRANCH  17  24
ATOM     23  C   UNL     1       9.420  -1.096   0.284  0.00  0.00    +0.000 C 
ATOM     24  O   UNL     1       9.196   0.263   0.592  0.00  0.00    +0.000 OA
ENDBRANCH  17  24
ENDBRANCH  15  21
ENDBRANCH  12  16
ENDBRANCH  11  13
ENDBRANCH  10  11
ENDBRANCH   1  10
BRANCH   9  25
ATOM     25  C   UNL     1      -3.700  -0.878   1.771  0.00  0.00    +0.000 C 
BRANCH  25  26
ATOM     26  C   UNL     1      -4.832  -1.686   1.254  0.00  0.00    +0.000 A 
ATOM     27  C   UNL     1      -6.123  -1.202   1.284  0.00  0.00    +0.000 A 
ATOM     28  C   UNL     1      -7.194  -1.945   0.803  0.00  0.00    +0.000 A 
ATOM     29  C   UNL     1      -6.997  -3.202   0.278  0.00  0.00    +0.000 A 
ATOM     30  C   UNL     1      -5.711  -3.699   0.242  0.00  0.00    +0.000 A 
ATOM     31  C   UNL     1      -4.641  -2.944   0.727  0.00  0.00    +0.000 A 
ENDBRANCH  25  26
ENDBRANCH   9  25
TORSDOF 8
