REMARK  Name = 
REMARK  8 active torsions:
REMARK  status: ('A' for Active; 'I' for Inactive)
REMARK    1  A    between atoms: C_4  and  C_5
REMARK    2  A    between atoms: C_5  and  O_6
REMARK    3  A    between atoms: O_6  and  C_7
REMARK    4  A    between atoms: C_11  and  O_12
REMARK    5  A    between atoms: O_12  and  C_13
REMARK    6  A    between atoms: C_13  and  C_14
REMARK    7  A    between atoms: C_14  and  O_15
REMARK    8  A    between atoms: O_15  and  C_16
REMARK                            x       y       z     vdW  Elec       q    Type
REMARK                         _______ _______ _______ _____ _____    ______ ____
ROOT
ATOM      1  O   UNL     1       0.326  -1.083   0.592  0.00  0.00    +0.000 OA
ENDROOT
BRANCH   1   6
ATOM      2  C   UNL     1       3.308   1.035   0.318  0.00  0.00    +0.000 A 
ATOM      3  C   UNL     1       2.764   2.319   0.342  0.00  0.00    +0.000 A 
ATOM      4  C   UNL     1       1.395   2.454   0.450  0.00  0.00    +0.000 A 
ATOM      5  C   UNL     1       0.557   1.342   0.535  0.00  0.00    +0.000 A 
ATOM      6  C   UNL     1       1.103   0.077   0.511  0.00  0.00    +0.000 A 
ATOM      7  C   UNL     1       2.472  -0.053   0.403  0.00  0.00    +0.000 A 
BRANCH   2   8
ATOM      8  O   UNL     1       4.662   0.834   0.212  0.00  0.00    +0.000 OA
BRANCH   8   9
ATOM      9  C   UNL     1       5.184  -0.477   0.191  0.00  0.00    +0.000 C 
BRANCH   9  13
ATOM     10  C   UNL     1       9.370  -0.529  -0.145  0.00  0.00    +0.000 A 
ATOM     11  C   UNL     1       8.727   0.672  -0.112  0.00  0.00    +0.000 A 
ATOM     12  C   UNL     1       7.357   0.695  -0.002  0.00  0.00    +0.000 A 
ATOM     13  C   UNL     1       6.658  -0.490   0.073  0.00  0.00    +0.000 A 
ATOM     14  C   UNL     1       7.311  -1.695   0.039  0.00  0.00    +0.000 A 
ATOM     15  C   UNL     1       8.672  -1.708  -0.071  0.00  0.00    +0.000 A 
ENDBRANCH   9  13
ENDBRANCH   8   9
ENDBRANCH   2   8
ENDBRANCH   1   6
BRANCH   1  16
ATOM     16  C   UNL     1      -1.064  -1.068   0.704  0.00  0.00    +0.000 C 
BRANCH  16  17
ATOM     17  C   UNL     1      -1.728  -0.377  -0.476  0.00  0.00    +0.000 C 
BRANCH  17  18
ATOM     18  O   UNL     1      -3.125  -0.422  -0.256  0.00  0.00    +0.000 OA
BRANCH  18  19
ATOM     19  C   UNL     1      -4.031   0.134  -1.168  0.00  0.00    +0.000 A 
ATOM     20  N   UNL     1      -3.533   0.718  -2.273  0.00  0.00    +0.000 NA
ATOM     21  C   UNL     1      -4.369   1.252  -3.154  0.00  0.00    +0.000 A 
ATOM     22  C   UNL     1      -5.731   1.210  -2.943  0.00  0.00    +0.000 A 
ATOM     23  N   UNL     1      -6.193   0.629  -1.846  0.00  0.00    +0.000 NA
ATOM     24  C   UNL     1      -5.365   0.070  -0.921  0.00  0.00    +0.000 A 
ATOM     25  N   UNL     1      -5.896  -0.542   0.237  0.00  0.00    +0.000 N 
ATOM     26  C   UNL     1      -5.679  -1.931   0.554  0.00  0.00    +0.000 C 
ATOM     27  C   UNL     1      -5.216  -2.128   1.979  0.00  0.00    +0.000 C 
ATOM     28  N   UNL     1      -4.979  -0.792   2.536  0.00  0.00    +0.000 NA
ATOM     29  C   UNL     1      -6.269  -0.128   2.553  0.00  0.00    +0.000 C 
ATOM     30  C   UNL     1      -6.688   0.260   1.137  0.00  0.00    +0.000 C 
ENDBRANCH  18  19
ENDBRANCH  17  18
ENDBRANCH  16  17
ENDBRANCH   1  16
TORSDOF 8
