REMARK  Name = 
REMARK  9 active torsions:
REMARK  status: ('A' for Active; 'I' for Inactive)
REMARK    1  A    between atoms: C_2  and  O_3
REMARK    2  A    between atoms: O_3  and  C_4
REMARK    3  A    between atoms: C_4  and  C_6
REMARK    4  A    between atoms: C_6  and  C_8
REMARK    5  A    between atoms: C_8  and  C_9
REMARK    6  A    between atoms: C_12  and  O_13
REMARK    7  A    between atoms: O_13  and  C_14
REMARK    8  A    between atoms: C_14  and  C_15
REMARK    9  A    between atoms: C_15  and  C_16
REMARK                            x       y       z     vdW  Elec       q    Type
REMARK                         _______ _______ _______ _____ _____    ______ ____
ROOT
ATOM      1  C   UNL     1      -1.043   1.367  -1.199  0.00  0.00    +0.000 C 
ENDROOT
BRANCH   1   2
ATOM      2  O   UNL     1       0.197   1.948  -1.187  0.00  0.00    +0.000 OA
BRANCH   2   6
ATOM      3  C   UNL     1       3.608  -0.206  -0.208  0.00  0.00    +0.000 A 
ATOM      4  C   UNL     1       2.369  -0.813  -0.214  0.00  0.00    +0.000 A 
ATOM      5  C   UNL     1       1.235  -0.105  -0.537  0.00  0.00    +0.000 A 
ATOM      6  C   UNL     1       1.309   1.224  -0.862  0.00  0.00    +0.000 A 
ATOM      7  C   UNL     1       2.535   1.835  -0.859  0.00  0.00    +0.000 A 
ATOM      8  C   UNL     1       3.665   1.125  -0.536  0.00  0.00    +0.000 A 
BRANCH   3   9
ATOM      9  C   UNL     1       4.811  -1.014   0.149  0.00  0.00    +0.000 C 
BRANCH   9  10
ATOM     10  C   UNL     1       4.801  -0.741   1.816  0.00  0.00    +0.000 C 
ATOM     11  O   UNL     1       5.533   0.592   1.677  0.00  0.00    +0.000 OA
BRANCH  10  12
ATOM     12  C   UNL     1       6.105  -1.637   2.087  0.00  0.00    +0.000 C 
ATOM     13  O   UNL     1       5.851  -2.850   2.254  0.00  0.00    +0.000 OA
BRANCH  12  14
ATOM     14  O   UNL     1       7.334  -1.149   2.130  0.00  0.00    +0.000 OA
BRANCH  14  16
ATOM     15  C   UNL     1       9.669  -1.167   2.362  0.00  0.00    +0.000 C 
ATOM     16  C   UNL     1       8.424  -2.038   2.378  0.00  0.00    +0.000 C 
ENDBRANCH  14  16
ENDBRANCH  12  14
ENDBRANCH  10  12
ENDBRANCH   9  10
ENDBRANCH   3   9
ENDBRANCH   2   6
ENDBRANCH   1   2
BRANCH   1  17
ATOM     17  C   UNL     1      -1.171   0.213  -2.170  0.00  0.00    +0.000 C 
BRANCH  17  18
ATOM     18  C   UNL     1      -2.654  -0.322  -2.043  0.00  0.00    +0.000 C 
ATOM     19  S   UNL     1      -2.495  -0.752  -0.191  0.00  0.00    +0.000 S 
ATOM     20  C   UNL     1      -4.162  -1.253   0.248  0.00  0.00    +0.000 A 
ATOM     21  C   UNL     1      -4.227  -2.523   0.780  0.00  0.00    +0.000 A 
ATOM     22  C   UNL     1      -5.490  -2.991   1.146  0.00  0.00    +0.000 A 
ATOM     23  C   UNL     1      -6.588  -2.174   0.960  0.00  0.00    +0.000 A 
ATOM     24  C   UNL     1      -6.498  -0.908   0.427  0.00  0.00    +0.000 A 
ATOM     25  C   UNL     1      -5.254  -0.438   0.063  0.00  0.00    +0.000 A 
ATOM     26  O   UNL     1      -5.237   0.821  -0.457  0.00  0.00    +0.000 OA
ATOM     27  C   UNL     1      -4.452   1.489  -1.366  0.00  0.00    +0.000 A 
ATOM     28  C   UNL     1      -4.848   2.789  -1.614  0.00  0.00    +0.000 A 
ATOM     29  C   UNL     1      -4.187   3.616  -2.496  0.00  0.00    +0.000 A 
ATOM     30  C   UNL     1      -3.079   3.158  -3.176  0.00  0.00    +0.000 A 
ATOM     31  C   UNL     1      -2.686   1.864  -2.928  0.00  0.00    +0.000 A 
ATOM     32  C   UNL     1      -3.374   1.040  -2.026  0.00  0.00    +0.000 A 
ENDBRANCH  17  18
ENDBRANCH   1  17
TORSDOF 9
