REMARK  Name = 
REMARK  7 active torsions:
REMARK  status: ('A' for Active; 'I' for Inactive)
REMARK    1  A    between atoms: C_6  and  C_8
REMARK    2  A    between atoms: C_11  and  C_12
REMARK    3  A    between atoms: C_12  and  O_13
REMARK    4  A    between atoms: O_13  and  C_14
REMARK    5  A    between atoms: C_17  and  C_18
REMARK    6  A    between atoms: N_26  and  C_27
REMARK    7  A    between atoms: C_27  and  C_28
REMARK                            x       y       z     vdW  Elec       q    Type
REMARK                         _______ _______ _______ _____ _____    ______ ____
ROOT
ATOM      1  C   UNL     1       0.617  -1.125   0.841  0.00  0.00    +0.000 A 
ATOM      2  C   UNL     1       1.786  -1.101   1.612  0.00  0.00    +0.000 A 
ATOM      3  C   UNL     1       2.829  -1.361   0.769  0.00  0.00    +0.000 A 
ATOM      4  C   UNL     1       2.306  -1.535  -0.484  0.00  0.00    +0.000 A 
ATOM      5  O   UNL     1       0.991  -1.383  -0.368  0.00  0.00    +0.000 OA
ENDROOT
BRANCH   1  11
ATOM      6  C   UNL     1      -6.185  -0.104   2.878  0.00  0.00    +0.000 C 
ATOM      7  C   UNL     1      -5.151  -0.476   1.878  0.00  0.00    +0.000 A 
ATOM      8  C   UNL     1      -3.770  -0.477   2.003  0.00  0.00    +0.000 A 
ATOM      9  C   UNL     1      -3.203  -0.887   0.806  0.00  0.00    +0.000 A 
ATOM     10  N   UNL     1      -1.828  -1.066   0.471  0.00  0.00    +0.000 NA
ATOM     11  C   UNL     1      -0.744  -0.904   1.318  0.00  0.00    +0.000 C 
ATOM     12  O   UNL     1      -0.924  -0.567   2.504  0.00  0.00    +0.000 OA
ATOM     13  N   UNL     1      -4.234  -1.127  -0.025  0.00  0.00    +0.000 NA
ATOM     14  N   UNL     1      -5.391  -0.884   0.612  0.00  0.00    +0.000 N 
BRANCH  14  15
ATOM     15  C   UNL     1      -6.694  -1.069   0.013  0.00  0.00    +0.000 C 
BRANCH  15  16
ATOM     16  C   UNL     1      -7.147   0.174  -0.642  0.00  0.00    +0.000 A 
ATOM     17  C   UNL     1      -7.917   1.140  -0.060  0.00  0.00    +0.000 A 
ATOM     18  C   UNL     1      -8.355   2.286  -0.660  0.00  0.00    +0.000 A 
ATOM     19  C   UNL     1      -8.004   2.503  -1.973  0.00  0.00    +0.000 A 
ATOM     20  C   UNL     1      -7.234   1.567  -2.604  0.00  0.00    +0.000 A 
ATOM     21  C   UNL     1      -6.793   0.415  -1.990  0.00  0.00    +0.000 A 
ENDBRANCH  15  16
ENDBRANCH  14  15
ENDBRANCH   1  11
BRANCH   4  22
ATOM     22  C   UNL     1       2.994  -1.845  -1.789  0.00  0.00    +0.000 C 
BRANCH  22  23
ATOM     23  O   UNL     1       3.654  -0.724  -2.252  0.00  0.00    +0.000 OA
BRANCH  23  24
ATOM     24  C   UNL     1       4.716  -0.164  -1.600  0.00  0.00    +0.000 A 
ATOM     25  C   UNL     1       5.369   0.979  -2.058  0.00  0.00    +0.000 A 
ATOM     26  C   UNL     1       6.447   1.517  -1.383  0.00  0.00    +0.000 A 
ATOM     27  C   UNL     1       6.909   0.925  -0.219  0.00  0.00    +0.000 A 
ATOM     28  C   UNL     1       6.251  -0.215   0.238  0.00  0.00    +0.000 A 
ATOM     29  C   UNL     1       5.194  -0.724  -0.445  0.00  0.00    +0.000 A 
BRANCH  27  30
ATOM     30  C   UNL     1       8.065   1.438   0.563  0.00  0.00    +0.000 C 
ATOM     31  C   UNL     1       8.007   0.837   1.955  0.00  0.00    +0.000 C 
ATOM     32  C   UNL     1       9.372   1.008  -0.070  0.00  0.00    +0.000 C 
ATOM     33  C   UNL     1       8.070   2.947   0.616  0.00  0.00    +0.000 C 
ENDBRANCH  27  30
ENDBRANCH  23  24
ENDBRANCH  22  23
ENDBRANCH   4  22
TORSDOF 7
