REMARK  Name = 
REMARK  8 active torsions:
REMARK  status: ('A' for Active; 'I' for Inactive)
REMARK    1  A    between atoms: C_6  and  C_7
REMARK    2  A    between atoms: C_10  and  N_11
REMARK    3  A    between atoms: C_12  and  C_14
REMARK    4  A    between atoms: C_14  and  O_15
REMARK    5  A    between atoms: O_15  and  C_16
REMARK    6  A    between atoms: C_16  and  C_18
REMARK    7  A    between atoms: C_23  and  C_24
REMARK    8  A    between atoms: C_24  and  C_25
REMARK                            x       y       z     vdW  Elec       q    Type
REMARK                         _______ _______ _______ _____ _____    ______ ____
ROOT
ATOM      1  O   UNL     1       0.655   0.786   0.633  0.00  0.00    +0.000 OA
ENDROOT
BRANCH   1   2
ATOM      2  C   UNL     1       0.834  -0.532   0.327  0.00  0.00    +0.000 C 
ATOM      3  O   UNL     1       0.233  -1.371   1.088  0.00  0.00    +0.000 OA
BRANCH   2   4
ATOM      4  C   UNL     1       1.611  -1.091  -0.747  0.00  0.00    +0.000 A 
ATOM      5  C   UNL     1       1.481  -2.441  -1.101  0.00  0.00    +0.000 A 
ATOM      6  C   UNL     1       2.152  -2.980  -2.170  0.00  0.00    +0.000 A 
ATOM      7  C   UNL     1       2.981  -2.178  -2.922  0.00  0.00    +0.000 A 
ATOM      8  C   UNL     1       3.136  -0.854  -2.606  0.00  0.00    +0.000 A 
ATOM      9  C   UNL     1       2.436  -0.326  -1.503  0.00  0.00    +0.000 A 
BRANCH   9  10
ATOM     10  C   UNL     1       2.739   1.093  -1.189  0.00  0.00    +0.000 C 
BRANCH  10  11
ATOM     11  C   UNL     1       3.846   1.168  -0.213  0.00  0.00    +0.000 A 
ATOM     12  C   UNL     1       5.178   1.212  -0.663  0.00  0.00    +0.000 A 
ATOM     13  C   UNL     1       6.237   1.287   0.218  0.00  0.00    +0.000 A 
ATOM     14  C   UNL     1       5.999   1.320   1.584  0.00  0.00    +0.000 A 
ATOM     15  C   UNL     1       4.701   1.278   2.058  0.00  0.00    +0.000 A 
ATOM     16  C   UNL     1       3.689   1.204   1.138  0.00  0.00    +0.000 A 
ENDBRANCH  10  11
ENDBRANCH   9  10
ENDBRANCH   2   4
ENDBRANCH   1   2
BRANCH   1  17
ATOM     17  C   UNL     1      -0.126   1.271   1.696  0.00  0.00    +0.000 C 
BRANCH  17  19
ATOM     18  N   UNL     1      -1.996   0.108   0.496  0.00  0.00    +0.000 NA
ATOM     19  C   UNL     1      -1.543   0.877   1.581  0.00  0.00    +0.000 C 
ATOM     20  O   UNL     1      -2.351   1.234   2.463  0.00  0.00    +0.000 OA
BRANCH  18  27
ATOM     21  C   UNL     1      -2.809  -2.376   1.599  0.00  0.00    +0.000 C 
ATOM     22  C   UNL     1      -3.734  -1.506   0.829  0.00  0.00    +0.000 A 
ATOM     23  C   UNL     1      -5.036  -1.961   0.663  0.00  0.00    +0.000 A 
ATOM     24  C   UNL     1      -5.931  -1.175  -0.052  0.00  0.00    +0.000 A 
ATOM     25  C   UNL     1      -5.535   0.011  -0.575  0.00  0.00    +0.000 A 
ATOM     26  C   UNL     1      -4.236   0.450  -0.402  0.00  0.00    +0.000 A 
ATOM     27  C   UNL     1      -3.331  -0.311   0.303  0.00  0.00    +0.000 A 
BRANCH  26  28
ATOM     28  C   UNL     1      -3.805   1.737  -0.969  0.00  0.00    +0.000 C 
ATOM     29  C   UNL     1      -4.925   2.438  -1.709  0.00  0.00    +0.000 C 
ATOM     30  C   UNL     1      -2.552   1.631  -1.811  0.00  0.00    +0.000 C 
ENDBRANCH  26  28
ENDBRANCH  18  27
ENDBRANCH  17  19
ENDBRANCH   1  17
TORSDOF 8
