REMARK  Name = 
REMARK  8 active torsions:
REMARK  status: ('A' for Active; 'I' for Inactive)
REMARK    1  A    between atoms: C_2  and  C_4
REMARK    2  A    between atoms: C_4  and  N_5
REMARK    3  A    between atoms: C_6  and  S_7
REMARK    4  A    between atoms: S_7  and  C_8
REMARK    5  A    between atoms: C_8  and  C_9
REMARK    6  A    between atoms: N_11  and  C_12
REMARK    7  A    between atoms: C_17  and  C_18
REMARK    8  A    between atoms: N_20  and  C_21
REMARK                            x       y       z     vdW  Elec       q    Type
REMARK                         _______ _______ _______ _____ _____    ______ ____
ROOT
ATOM      1  C   UNL     1      -0.270  -0.122   2.713  0.00  0.00    +0.000 C 
ENDROOT
BRANCH   1   2
ATOM      2  C   UNL     1       0.242  -1.191   1.850  0.00  0.00    +0.000 C 
ATOM      3  O   UNL     1      -0.290  -2.301   1.639  0.00  0.00    +0.000 OA
ATOM      4  N   UNL     1       1.489  -0.978   1.155  0.00  0.00    +0.000 NA
BRANCH   4   5
ATOM      5  C   UNL     1       2.093  -1.891   0.303  0.00  0.00    +0.000 A 
ATOM      6  C   UNL     1       1.495  -3.087  -0.005  0.00  0.00    +0.000 A 
ATOM      7  C   UNL     1       2.116  -3.943  -0.853  0.00  0.00    +0.000 A 
ATOM      8  C   UNL     1       3.335  -3.671  -1.433  0.00  0.00    +0.000 A 
ATOM      9  C   UNL     1       3.951  -2.455  -1.127  0.00  0.00    +0.000 A 
ATOM     10  C   UNL     1       3.308  -1.598  -0.264  0.00  0.00    +0.000 A 
BRANCH  10  11
ATOM     11  C   UNL     1       3.969  -0.343   0.040  0.00  0.00    +0.000 C 
ATOM     12  O   UNL     1       3.405   0.461   0.827  0.00  0.00    +0.000 OA
ATOM     13  N   UNL     1       5.221   0.012  -0.512  0.00  0.00    +0.000 NA
BRANCH  13  14
ATOM     14  C   UNL     1       5.795   1.293  -0.141  0.00  0.00    +0.000 C 
ATOM     15  C   UNL     1       4.895   2.482  -0.022  0.00  0.00    +0.000 C 
ATOM     16  C   UNL     1       5.456   1.762   1.217  0.00  0.00    +0.000 C 
ENDBRANCH  13  14
ENDBRANCH  10  11
ENDBRANCH   4   5
ENDBRANCH   1   2
BRANCH   1  17
ATOM     17  S   UNL     1      -0.631   1.439   2.016  0.00  0.00    +0.000 S 
BRANCH  17  19
ATOM     18  N   UNL     1      -2.928   0.693   0.503  0.00  0.00    +0.000 N 
ATOM     19  C   UNL     1      -2.045   1.573   0.959  0.00  0.00    +0.000 A 
ATOM     20  N   UNL     1      -2.483   2.809   0.537  0.00  0.00    +0.000 NA
ATOM     21  C   UNL     1      -3.612   2.678  -0.157  0.00  0.00    +0.000 A 
ATOM     22  C   UNL     1      -4.403   3.659  -0.765  0.00  0.00    +0.000 A 
ATOM     23  C   UNL     1      -5.568   3.209  -1.440  0.00  0.00    +0.000 A 
ATOM     24  C   UNL     1      -5.855   1.880  -1.464  0.00  0.00    +0.000 A 
ATOM     25  C   UNL     1      -5.054   0.955  -0.858  0.00  0.00    +0.000 A 
ATOM     26  C   UNL     1      -3.905   1.351  -0.186  0.00  0.00    +0.000 A 
BRANCH  18  27
ATOM     27  C   UNL     1      -2.859  -0.731   0.591  0.00  0.00    +0.000 C 
BRANCH  27  29
ATOM     28  C   UNL     1      -1.052  -1.011  -1.181  0.00  0.00    +0.000 C 
ATOM     29  C   UNL     1      -2.380  -1.381  -0.662  0.00  0.00    +0.000 C 
ATOM     30  C   UNL     1      -3.436  -1.553  -1.706  0.00  0.00    +0.000 C 
ENDBRANCH  27  29
ENDBRANCH  18  27
ENDBRANCH  17  19
ENDBRANCH   1  17
TORSDOF 8
