REMARK  Name = 
REMARK  7 active torsions:
REMARK  status: ('A' for Active; 'I' for Inactive)
REMARK    1  A    between atoms: C_2  and  C_4
REMARK    2  A    between atoms: C_4  and  O_5
REMARK    3  A    between atoms: O_5  and  C_6
REMARK    4  A    between atoms: C_9  and  C_10
REMARK    5  A    between atoms: C_20  and  O_21
REMARK    6  A    between atoms: O_21  and  C_22
REMARK    7  A    between atoms: C_22  and  C_23
REMARK                            x       y       z     vdW  Elec       q    Type
REMARK                         _______ _______ _______ _____ _____    ______ ____
ROOT
ATOM      1  C   UNL     1      -2.160   1.708   1.922  0.00  0.00    +0.000 C 
ATOM      2  N   UNL     1      -2.322   2.969   0.994  0.00  0.00    +0.000 NA
ATOM      3  C   UNL     1      -1.980   2.660  -0.318  0.00  0.00    +0.000 C 
ATOM      4  C   UNL     1      -0.467   2.716  -0.404  0.00  0.00    +0.000 C 
ATOM      5  C   UNL     1      -0.058   1.564   0.423  0.00  0.00    +0.000 A 
ATOM      6  C   UNL     1      -0.806   1.134   1.435  0.00  0.00    +0.000 A 
ATOM      7  N   UNL     1      -0.172   0.092   1.978  0.00  0.00    +0.000 NA
ATOM      8  C   UNL     1       0.988  -0.149   1.312  0.00  0.00    +0.000 A 
ATOM      9  C   UNL     1       2.017  -1.062   1.416  0.00  0.00    +0.000 A 
ATOM     10  C   UNL     1       3.104  -1.064   0.568  0.00  0.00    +0.000 A 
ATOM     11  C   UNL     1       3.191  -0.126  -0.434  0.00  0.00    +0.000 A 
ATOM     12  C   UNL     1       2.168   0.809  -0.566  0.00  0.00    +0.000 A 
ATOM     13  C   UNL     1       1.094   0.791   0.291  0.00  0.00    +0.000 A 
ENDROOT
BRANCH   1  17
ATOM     14  C   UNL     1      -4.946  -0.965  -0.051  0.00  0.00    +0.000 A 
ATOM     15  C   UNL     1      -4.057  -0.234  -0.797  0.00  0.00    +0.000 A 
ATOM     16  C   UNL     1      -3.172   0.613  -0.177  0.00  0.00    +0.000 A 
ATOM     17  C   UNL     1      -3.164   0.737   1.127  0.00  0.00    +0.000 A 
ATOM     18  C   UNL     1      -4.042   0.021   1.917  0.00  0.00    +0.000 A 
ATOM     19  C   UNL     1      -4.955  -0.849   1.325  0.00  0.00    +0.000 A 
BRANCH  14  20
ATOM     20  O   UNL     1      -5.868  -1.845  -0.670  0.00  0.00    +0.000 OA
BRANCH  20  21
ATOM     21  C   UNL     1      -5.825  -1.933  -2.080  0.00  0.00    +0.000 C 
BRANCH  21  23
ATOM     22  C   UNL     1      -7.494  -0.078  -2.107  0.00  0.00    +0.000 C 
ATOM     23  C   UNL     1      -6.113  -0.518  -2.598  0.00  0.00    +0.000 C 
ATOM     24  C   UNL     1      -6.085  -0.501  -4.114  0.00  0.00    +0.000 C 
ENDBRANCH  21  23
ENDBRANCH  20  21
ENDBRANCH  14  20
ENDBRANCH   1  17
BRANCH  11  25
ATOM     25  O   UNL     1       4.245  -0.051  -1.333  0.00  0.00    +0.000 OA
BRANCH  25  26
ATOM     26  C   UNL     1       5.350  -0.898  -1.353  0.00  0.00    +0.000 C 
BRANCH  26  27
ATOM     27  C   UNL     1       6.159  -0.901  -0.133  0.00  0.00    +0.000 A 
ATOM     28  C   UNL     1       5.883  -1.789   0.879  0.00  0.00    +0.000 A 
ATOM     29  C   UNL     1       6.622  -1.818   2.036  0.00  0.00    +0.000 A 
ATOM     30  C   UNL     1       7.670  -0.950   2.216  0.00  0.00    +0.000 A 
ATOM     31  C   UNL     1       7.967  -0.051   1.218  0.00  0.00    +0.000 A 
ATOM     32  C   UNL     1       7.227  -0.033   0.076  0.00  0.00    +0.000 A 
ENDBRANCH  26  27
ENDBRANCH  25  26
ENDBRANCH  11  25
TORSDOF 7
