REMARK  Name = 
REMARK  8 active torsions:
REMARK  status: ('A' for Active; 'I' for Inactive)
REMARK    1  A    between atoms: C_2  and  C_3
REMARK    2  A    between atoms: C_3  and  C_5
REMARK    3  A    between atoms: C_5  and  O_6
REMARK    4  A    between atoms: O_6  and  C_7
REMARK    5  A    between atoms: C_7  and  C_9
REMARK    6  A    between atoms: N_12  and  C_13
REMARK    7  A    between atoms: C_13  and  C_14
REMARK    8  A    between atoms: C_19  and  O_20
REMARK                            x       y       z     vdW  Elec       q    Type
REMARK                         _______ _______ _______ _____ _____    ______ ____
ROOT
ATOM      1  C   UNL     1       1.193   0.255   0.111  0.00  0.00    +0.000 A 
ATOM      2  C   UNL     1       0.571  -0.794  -0.580  0.00  0.00    +0.000 A 
ATOM      3  N   UNL     1       1.233  -1.997  -0.888  0.00  0.00    +0.000 NA
ATOM      4  N   UNL     1      -0.682  -0.460  -0.895  0.00  0.00    +0.000 N 
ATOM      5  C   UNL     1      -0.904   0.813  -0.422  0.00  0.00    +0.000 A 
ATOM      6  N   UNL     1      -2.000   1.596  -0.491  0.00  0.00    +0.000 NA
ATOM      7  C   UNL     1      -1.984   2.828   0.047  0.00  0.00    +0.000 A 
ATOM      8  C   UNL     1      -3.113   3.619  -0.033  0.00  0.00    +0.000 A 
ATOM      9  C   UNL     1      -3.016   4.869   0.540  0.00  0.00    +0.000 A 
ATOM     10  C   UNL     1      -1.905   5.358   1.165  0.00  0.00    +0.000 A 
ATOM     11  C   UNL     1      -0.792   4.512   1.216  0.00  0.00    +0.000 A 
ATOM     12  C   UNL     1      -0.838   3.253   0.657  0.00  0.00    +0.000 A 
ATOM     13  N   UNL     1       0.271   2.501   0.745  0.00  0.00    +0.000 NA
ATOM     14  C   UNL     1       0.247   1.251   0.196  0.00  0.00    +0.000 A 
ENDROOT
BRANCH   1  15
ATOM     15  C   UNL     1       2.549   0.295   0.653  0.00  0.00    +0.000 C 
ATOM     16  O   UNL     1       2.940   1.328   1.243  0.00  0.00    +0.000 OA
BRANCH  15  17
ATOM     17  O   UNL     1       3.395  -0.737   0.545  0.00  0.00    +0.000 OA
BRANCH  17  18
ATOM     18  C   UNL     1       4.628  -1.083   0.870  0.00  0.00    +0.000 C 
BRANCH  18  19
ATOM     19  C   UNL     1       5.840  -0.345   0.194  0.00  0.00    +0.000 C 
ATOM     20  C   UNL     1       5.216   1.122   0.090  0.00  0.00    +0.000 C 
BRANCH  19  22
ATOM     21  C   UNL     1       6.005  -2.186  -1.465  0.00  0.00    +0.000 C 
ATOM     22  C   UNL     1       5.475  -0.764  -1.342  0.00  0.00    +0.000 C 
ENDBRANCH  19  22
ENDBRANCH  18  19
ENDBRANCH  17  18
ENDBRANCH  15  17
ENDBRANCH   1  15
BRANCH   4  23
ATOM     23  C   UNL     1      -1.753  -1.161  -1.573  0.00  0.00    +0.000 C 
BRANCH  23  24
ATOM     24  C   UNL     1      -2.632  -1.901  -0.640  0.00  0.00    +0.000 A 
ATOM     25  C   UNL     1      -3.773  -1.253  -0.161  0.00  0.00    +0.000 A 
ATOM     26  C   UNL     1      -4.556  -1.897   0.738  0.00  0.00    +0.000 A 
ATOM     27  C   UNL     1      -4.218  -3.166   1.160  0.00  0.00    +0.000 A 
ATOM     28  C   UNL     1      -3.101  -3.780   0.679  0.00  0.00    +0.000 A 
ATOM     29  C   UNL     1      -2.270  -3.164  -0.241  0.00  0.00    +0.000 A 
BRANCH  29  30
ATOM     30  O   UNL     1      -1.163  -3.797  -0.716  0.00  0.00    +0.000 OA
ATOM     31  C   UNL     1      -0.862  -5.117  -0.232  0.00  0.00    +0.000 C 
ENDBRANCH  29  30
ENDBRANCH  23  24
ENDBRANCH   4  23
TORSDOF 8
