REMARK  Name = 
REMARK  8 active torsions:
REMARK  status: ('A' for Active; 'I' for Inactive)
REMARK    1  A    between atoms: O_2  and  C_3
REMARK    2  A    between atoms: C_5  and  N_6
REMARK    3  A    between atoms: C_7  and  C_9
REMARK    4  A    between atoms: C_12  and  C_13
REMARK    5  A    between atoms: C_13  and  O_14
REMARK    6  A    between atoms: O_14  and  C_15
REMARK    7  A    between atoms: C_28  and  O_29
REMARK    8  A    between atoms: C_31  and  O_32
REMARK                            x       y       z     vdW  Elec       q    Type
REMARK                         _______ _______ _______ _____ _____    ______ ____
ROOT
ATOM      1  C   UNL     1       0.037  -1.725  -0.147  0.00  0.00    +0.000 A 
ATOM      2  C   UNL     1       0.577  -2.611  -1.051  0.00  0.00    +0.000 A 
ATOM      3  C   UNL     1       1.881  -3.085  -0.954  0.00  0.00    +0.000 A 
ATOM      4  C   UNL     1       2.672  -2.648   0.098  0.00  0.00    +0.000 A 
ATOM      5  C   UNL     1       2.145  -1.764   1.008  0.00  0.00    +0.000 A 
ATOM      6  C   UNL     1       0.841  -1.304   0.890  0.00  0.00    +0.000 A 
ENDROOT
BRANCH   1   8
ATOM      7  N   UNL     1      -1.927  -0.335   0.631  0.00  0.00    +0.000 NA
ATOM      8  C   UNL     1      -1.343  -1.243  -0.279  0.00  0.00    +0.000 C 
ATOM      9  O   UNL     1      -2.043  -1.652  -1.239  0.00  0.00    +0.000 OA
BRANCH   7  12
ATOM     10  C   UNL     1      -5.139   1.411   1.183  0.00  0.00    +0.000 A 
ATOM     11  C   UNL     1      -3.852   1.003   1.361  0.00  0.00    +0.000 A 
ATOM     12  C   UNL     1      -3.289   0.121   0.476  0.00  0.00    +0.000 A 
ATOM     13  C   UNL     1      -4.008  -0.362  -0.598  0.00  0.00    +0.000 A 
ATOM     14  C   UNL     1      -5.313   0.037  -0.800  0.00  0.00    +0.000 A 
ATOM     15  C   UNL     1      -5.853   0.929   0.113  0.00  0.00    +0.000 A 
BRANCH  10  17
ATOM     16  C   UNL     1      -5.109   2.850   3.172  0.00  0.00    +0.000 C 
ATOM     17  O   UNL     1      -5.779   2.311   2.049  0.00  0.00    +0.000 OA
ENDBRANCH  10  17
BRANCH  14  18
ATOM     18  O   UNL     1      -6.084  -0.419  -1.867  0.00  0.00    +0.000 OA
ATOM     19  C   UNL     1      -5.462  -1.335  -2.766  0.00  0.00    +0.000 C 
ENDBRANCH  14  18
BRANCH  15  20
ATOM     20  O   UNL     1      -7.176   1.323  -0.105  0.00  0.00    +0.000 OA
ATOM     21  C   UNL     1      -8.187   0.544   0.496  0.00  0.00    +0.000 C 
ENDBRANCH  15  20
ENDBRANCH   7  12
ENDBRANCH   1   8
BRANCH   4  22
ATOM     22  C   UNL     1       4.060  -3.161   0.196  0.00  0.00    +0.000 C 
BRANCH  22  23
ATOM     23  O   UNL     1       4.971  -2.405  -0.533  0.00  0.00    +0.000 OA
BRANCH  23  24
ATOM     24  C   UNL     1       5.243  -1.053  -0.342  0.00  0.00    +0.000 A 
ATOM     25  C   UNL     1       6.167  -0.398  -1.123  0.00  0.00    +0.000 A 
ATOM     26  C   UNL     1       6.452   0.938  -0.952  0.00  0.00    +0.000 A 
ATOM     27  C   UNL     1       5.807   1.692   0.033  0.00  0.00    +0.000 A 
ATOM     28  C   UNL     1       6.071   3.016   0.223  0.00  0.00    +0.000 A 
ATOM     29  C   UNL     1       5.426   3.740   1.197  0.00  0.00    +0.000 A 
ATOM     30  C   UNL     1       4.499   3.097   1.985  0.00  0.00    +0.000 A 
ATOM     31  C   UNL     1       4.230   1.762   1.797  0.00  0.00    +0.000 A 
ATOM     32  C   UNL     1       4.882   1.040   0.816  0.00  0.00    +0.000 A 
ATOM     33  C   UNL     1       4.606  -0.313   0.629  0.00  0.00    +0.000 A 
ENDBRANCH  23  24
ENDBRANCH  22  23
ENDBRANCH   4  22
TORSDOF 8
