REMARK  Name = 
REMARK  8 active torsions:
REMARK  status: ('A' for Active; 'I' for Inactive)
REMARK    1  A    between atoms: C_3  and  C_4
REMARK    2  A    between atoms: C_4  and  C_5
REMARK    3  A    between atoms: C_5  and  C_7
REMARK    4  A    between atoms: N_15  and  C_16
REMARK    5  A    between atoms: C_16  and  C_17
REMARK    6  A    between atoms: C_17  and  C_18
REMARK    7  A    between atoms: C_18  and  C_19
REMARK    8  A    between atoms: C_25  and  N_26
REMARK                            x       y       z     vdW  Elec       q    Type
REMARK                         _______ _______ _______ _____ _____    ______ ____
ROOT
ATOM      1  C   UNL     1      -0.969   0.184   0.326  0.00  0.00    +0.000 C 
ENDROOT
BRANCH   1   7
ATOM      2  C   UNL     1       3.197   0.013   1.902  0.00  0.00    +0.000 C 
ATOM      3  C   UNL     1       2.388  -0.097   0.633  0.00  0.00    +0.000 C 
ATOM      4  C   UNL     1       2.885   0.490  -0.438  0.00  0.00    +0.000 C 
ATOM      5  C   UNL     1       2.055   0.363  -1.690  0.00  0.00    +0.000 C 
ATOM      6  C   UNL     1       0.599   0.425  -1.383  0.00  0.00    +0.000 C 
ATOM      7  N   UNL     1       0.159  -0.431  -0.343  0.00  0.00    +0.000 NA
ATOM      8  C   UNL     1       1.104  -0.838   0.627  0.00  0.00    +0.000 C 
BRANCH   4   9
ATOM      9  C   UNL     1       4.138   1.239  -0.551  0.00  0.00    +0.000 C 
BRANCH   9  10
ATOM     10  C   UNL     1       5.031   0.959   0.772  0.00  0.00    +0.000 C 
ATOM     11  C   UNL     1       6.252   1.982   0.269  0.00  0.00    +0.000 C 
BRANCH  10  12
ATOM     12  C   UNL     1       5.775  -0.342   0.148  0.00  0.00    +0.000 A 
ATOM     13  C   UNL     1       6.131  -0.332  -1.155  0.00  0.00    +0.000 A 
ATOM     14  C   UNL     1       6.780  -1.479  -1.627  0.00  0.00    +0.000 A 
ATOM     15  C   UNL     1       7.040  -2.556  -0.811  0.00  0.00    +0.000 A 
ATOM     16  C   UNL     1       6.652  -2.508   0.514  0.00  0.00    +0.000 A 
ATOM     17  C   UNL     1       6.013  -1.381   0.981  0.00  0.00    +0.000 A 
ENDBRANCH  10  12
ENDBRANCH   9  10
ENDBRANCH   4   9
ENDBRANCH   1   7
BRANCH   1  18
ATOM     18  C   UNL     1      -0.509   1.406   1.058  0.00  0.00    +0.000 C 
BRANCH  18  19
ATOM     19  C   UNL     1      -1.658   2.078   1.772  0.00  0.00    +0.000 C 
BRANCH  19  20
ATOM     20  C   UNL     1      -2.668   2.457   0.773  0.00  0.00    +0.000 A 
ATOM     21  C   UNL     1      -2.928   3.693   0.218  0.00  0.00    +0.000 A 
ATOM     22  N   UNL     1      -3.931   3.600  -0.660  0.00  0.00    +0.000 NA
ATOM     23  C   UNL     1      -4.331   2.313  -0.684  0.00  0.00    +0.000 A 
ATOM     24  C   UNL     1      -5.335   1.703  -1.423  0.00  0.00    +0.000 A 
ATOM     25  C   UNL     1      -5.551   0.358  -1.260  0.00  0.00    +0.000 A 
ATOM     26  C   UNL     1      -4.812  -0.418  -0.391  0.00  0.00    +0.000 A 
ATOM     27  C   UNL     1      -3.826   0.244   0.316  0.00  0.00    +0.000 A 
ATOM     28  C   UNL     1      -3.571   1.573   0.192  0.00  0.00    +0.000 A 
BRANCH  26  29
ATOM     29  N   UNL     1      -5.041  -1.816  -0.224  0.00  0.00    +0.000 N 
ATOM     30  C   UNL     1      -5.140  -2.465   0.949  0.00  0.00    +0.000 A 
ATOM     31  N   UNL     1      -5.353  -3.771   0.668  0.00  0.00    +0.000 NA
ATOM     32  N   UNL     1      -5.387  -3.943  -0.647  0.00  0.00    +0.000 NA
ATOM     33  C   UNL     1      -5.190  -2.705  -1.197  0.00  0.00    +0.000 A 
ENDBRANCH  26  29
ENDBRANCH  19  20
ENDBRANCH  18  19
ENDBRANCH   1  18
TORSDOF 8
