REMARK  Name = 
REMARK  6 active torsions:
REMARK  status: ('A' for Active; 'I' for Inactive)
REMARK    1  A    between atoms: C_8  and  N_9
REMARK    2  A    between atoms: C_10  and  C_12
REMARK    3  A    between atoms: C_18  and  C_19
REMARK    4  A    between atoms: N_21  and  C_22
REMARK    5  A    between atoms: C_22  and  C_23
REMARK    6  A    between atoms: C_23  and  C_24
REMARK                            x       y       z     vdW  Elec       q    Type
REMARK                         _______ _______ _______ _____ _____    ______ ____
ROOT
ATOM      1  C   UNL     1       0.957   5.536   1.790  0.00  0.00    +0.000 C 
ATOM      2  C   UNL     1       0.182   4.073   1.824  0.00  0.00    +0.000 C 
ATOM      3  C   UNL     1       1.574   3.228   1.755  0.00  0.00    +0.000 C 
ATOM      4  C   UNL     1       1.548   2.186   0.761  0.00  0.00    +0.000 C 
ATOM      5  C   UNL     1       0.196   1.693   0.326  0.00  0.00    +0.000 A 
ATOM      6  C   UNL     1      -0.657   2.696   0.025  0.00  0.00    +0.000 A 
ATOM      7  S   UNL     1      -2.070   1.886  -0.426  0.00  0.00    +0.000 S 
ATOM      8  C   UNL     1      -1.541   0.273  -0.221  0.00  0.00    +0.000 A 
ATOM      9  C   UNL     1      -0.245   0.415   0.205  0.00  0.00    +0.000 A 
ATOM     10  C   UNL     1      -0.064   4.073   0.197  0.00  0.00    +0.000 C 
ENDROOT
BRANCH   8  11
ATOM     11  N   UNL     1      -2.288  -0.946  -0.445  0.00  0.00    +0.000 NA
ATOM     12  C   UNL     1      -3.637  -0.804  -0.893  0.00  0.00    +0.000 C 
ATOM     13  O   UNL     1      -4.108   0.348  -1.071  0.00  0.00    +0.000 OA
BRANCH  12  14
ATOM     14  C   UNL     1      -4.460  -1.982  -1.143  0.00  0.00    +0.000 A 
ATOM     15  C   UNL     1      -3.989  -3.265  -0.962  0.00  0.00    +0.000 A 
ATOM     16  C   UNL     1      -4.825  -4.341  -1.218  0.00  0.00    +0.000 A 
ATOM     17  C   UNL     1      -6.116  -4.183  -1.648  0.00  0.00    +0.000 A 
ATOM     18  C   UNL     1      -6.580  -2.898  -1.826  0.00  0.00    +0.000 A 
ATOM     19  C   UNL     1      -5.757  -1.823  -1.574  0.00  0.00    +0.000 A 
ENDBRANCH  12  14
ENDBRANCH   8  11
BRANCH   9  20
ATOM     20  C   UNL     1       0.564  -0.810   0.496  0.00  0.00    +0.000 C 
ATOM     21  O   UNL     1       0.097  -1.962   0.363  0.00  0.00    +0.000 OA
ATOM     22  N   UNL     1       1.892  -0.691   0.932  0.00  0.00    +0.000 NA
BRANCH  22  23
ATOM     23  C   UNL     1       2.723  -1.869   1.230  0.00  0.00    +0.000 C 
BRANCH  23  24
ATOM     24  C   UNL     1       4.104  -1.442   1.678  0.00  0.00    +0.000 C 
BRANCH  24  25
ATOM     25  C   UNL     1       4.775  -0.650   0.618  0.00  0.00    +0.000 A 
ATOM     26  C   UNL     1       5.554  -1.247  -0.351  0.00  0.00    +0.000 A 
ATOM     27  C   UNL     1       6.178  -0.529  -1.332  0.00  0.00    +0.000 A 
ATOM     28  C   UNL     1       6.054   0.848  -1.398  0.00  0.00    +0.000 A 
ATOM     29  C   UNL     1       5.285   1.461  -0.446  0.00  0.00    +0.000 A 
ATOM     30  C   UNL     1       4.653   0.727   0.549  0.00  0.00    +0.000 A 
ENDBRANCH  24  25
ENDBRANCH  23  24
ENDBRANCH  22  23
ENDBRANCH   9  20
TORSDOF 6
