REMARK  Name = 
REMARK  7 active torsions:
REMARK  status: ('A' for Active; 'I' for Inactive)
REMARK    1  A    between atoms: O_2  and  C_3
REMARK    2  A    between atoms: C_6  and  C_7
REMARK    3  A    between atoms: C_7  and  N_8
REMARK    4  A    between atoms: C_11  and  C_12
REMARK    5  A    between atoms: C_12  and  O_14
REMARK    6  A    between atoms: O_14  and  C_15
REMARK    7  A    between atoms: C_15  and  C_16
REMARK                            x       y       z     vdW  Elec       q    Type
REMARK                         _______ _______ _______ _____ _____    ______ ____
ROOT
ATOM      1  N   UNL     1       1.061   0.309   1.591  0.00  0.00    +0.000 N 
ATOM      2  C   UNL     1       0.171   1.160   1.053  0.00  0.00    +0.000 A 
ATOM      3  N   UNL     1       0.163   2.582   1.210  0.00  0.00    +0.000 NA
ATOM      4  C   UNL     1      -0.757   0.462   0.311  0.00  0.00    +0.000 A 
ATOM      5  C   UNL     1      -0.377  -0.858   0.431  0.00  0.00    +0.000 A 
ATOM      6  N   UNL     1      -0.952  -1.964  -0.106  0.00  0.00    +0.000 NA
ATOM      7  C   UNL     1      -0.411  -3.174   0.141  0.00  0.00    +0.000 A 
ATOM      8  C   UNL     1      -0.953  -4.342  -0.379  0.00  0.00    +0.000 A 
ATOM      9  C   UNL     1      -0.412  -5.586  -0.135  0.00  0.00    +0.000 A 
ATOM     10  C   UNL     1       0.724  -5.670   0.666  0.00  0.00    +0.000 A 
ATOM     11  C   UNL     1       1.266  -4.517   1.185  0.00  0.00    +0.000 A 
ATOM     12  C   UNL     1       0.714  -3.265   0.934  0.00  0.00    +0.000 A 
ATOM     13  N   UNL     1       1.287  -2.157   1.470  0.00  0.00    +0.000 NA
ATOM     14  C   UNL     1       0.746  -0.941   1.224  0.00  0.00    +0.000 A 
ENDROOT
BRANCH   4  15
ATOM     15  C   UNL     1      -1.891   0.991  -0.438  0.00  0.00    +0.000 C 
ATOM     16  O   UNL     1      -2.077   2.233  -0.429  0.00  0.00    +0.000 OA
BRANCH  15  17
ATOM     17  O   UNL     1      -2.761   0.204  -1.150  0.00  0.00    +0.000 OA
BRANCH  17  18
ATOM     18  C   UNL     1      -3.858   0.716  -1.874  0.00  0.00    +0.000 C 
BRANCH  18  19
ATOM     19  C   UNL     1      -4.807   1.443  -0.979  0.00  0.00    +0.000 A 
ATOM     20  C   UNL     1      -4.626   1.554   0.375  0.00  0.00    +0.000 A 
ATOM     21  C   UNL     1      -5.496   2.221   1.207  0.00  0.00    +0.000 A 
ATOM     22  C   UNL     1      -6.604   2.811   0.669  0.00  0.00    +0.000 A 
ATOM     23  C   UNL     1      -6.814   2.716  -0.694  0.00  0.00    +0.000 A 
ATOM     24  C   UNL     1      -5.928   2.039  -1.517  0.00  0.00    +0.000 A 
ENDBRANCH  18  19
ENDBRANCH  17  18
ENDBRANCH  15  17
ENDBRANCH   4  15
BRANCH   1  25
ATOM     25  C   UNL     1       2.199   0.623   2.440  0.00  0.00    +0.000 C 
BRANCH  25  29
ATOM     26  C   UNL     1       5.559   1.239  -0.135  0.00  0.00    +0.000 A 
ATOM     27  C   UNL     1       4.747   2.294   0.217  0.00  0.00    +0.000 A 
ATOM     28  C   UNL     1       3.656   2.088   1.053  0.00  0.00    +0.000 A 
ATOM     29  C   UNL     1       3.364   0.849   1.544  0.00  0.00    +0.000 A 
ATOM     30  C   UNL     1       4.189  -0.212   1.184  0.00  0.00    +0.000 A 
ATOM     31  C   UNL     1       5.263  -0.001   0.358  0.00  0.00    +0.000 A 
BRANCH  26  33
ATOM     32  C   UNL     1       6.968   2.710  -1.488  0.00  0.00    +0.000 C 
ATOM     33  O   UNL     1       6.648   1.441  -0.970  0.00  0.00    +0.000 OA
ENDBRANCH  26  33
ENDBRANCH  25  29
ENDBRANCH   1  25
TORSDOF 7
