REMARK  Name = 
REMARK  8 active torsions:
REMARK  status: ('A' for Active; 'I' for Inactive)
REMARK    1  A    between atoms: C_2  and  O_3
REMARK    2  A    between atoms: O_3  and  C_4
REMARK    3  A    between atoms: C_7  and  N_8
REMARK    4  A    between atoms: C_9  and  C_11
REMARK    5  A    between atoms: C_11  and  S_12
REMARK    6  A    between atoms: S_12  and  C_13
REMARK    7  A    between atoms: N_15  and  C_16
REMARK    8  A    between atoms: C_16  and  C_17
REMARK                            x       y       z     vdW  Elec       q    Type
REMARK                         _______ _______ _______ _____ _____    ______ ____
ROOT
ATOM      1  C   UNL     1      -1.202  -1.367  -0.634  0.00  0.00    +0.000 A 
ATOM      2  C   UNL     1      -1.937  -0.530  -1.464  0.00  0.00    +0.000 A 
ATOM      3  N   UNL     1      -2.300   0.573  -0.785  0.00  0.00    +0.000 N 
ATOM      4  C   UNL     1      -1.837   0.513   0.471  0.00  0.00    +0.000 A 
ATOM      5  C   UNL     1      -1.913   1.346   1.567  0.00  0.00    +0.000 A 
ATOM      6  C   UNL     1      -1.331   1.030   2.777  0.00  0.00    +0.000 A 
ATOM      7  C   UNL     1      -0.653  -0.172   2.866  0.00  0.00    +0.000 A 
ATOM      8  C   UNL     1      -0.569  -1.014   1.777  0.00  0.00    +0.000 A 
ATOM      9  C   UNL     1      -1.150  -0.696   0.574  0.00  0.00    +0.000 A 
ENDROOT
BRANCH   1  10
ATOM     10  S   UNL     1      -0.513  -2.952  -1.082  0.00  0.00    +0.000 S 
BRANCH  10  11
ATOM     11  C   UNL     1       0.397  -3.635   0.318  0.00  0.00    +0.000 C 
BRANCH  11  13
ATOM     12  N   UNL     1       1.979  -1.690  -0.172  0.00  0.00    +0.000 NA
ATOM     13  C   UNL     1       1.625  -2.822   0.612  0.00  0.00    +0.000 C 
ATOM     14  O   UNL     1       2.386  -3.115   1.567  0.00  0.00    +0.000 OA
BRANCH  12  18
ATOM     15  C   UNL     1       5.446   0.447   0.809  0.00  0.00    +0.000 A 
ATOM     16  C   UNL     1       4.683   0.866  -0.274  0.00  0.00    +0.000 A 
ATOM     17  C   UNL     1       3.546   0.153  -0.585  0.00  0.00    +0.000 A 
ATOM     18  C   UNL     1       3.171  -0.942   0.152  0.00  0.00    +0.000 A 
ATOM     19  C   UNL     1       3.938  -1.332   1.210  0.00  0.00    +0.000 A 
ATOM     20  C   UNL     1       5.069  -0.649   1.544  0.00  0.00    +0.000 A 
BRANCH  15  21
ATOM     21  O   UNL     1       6.615   1.110   1.196  0.00  0.00    +0.000 OA
BRANCH  21  23
ATOM     22  C   UNL     1       5.984   3.311   0.544  0.00  0.00    +0.000 C 
ATOM     23  C   UNL     1       7.060   2.250   0.477  0.00  0.00    +0.000 C 
ENDBRANCH  21  23
ENDBRANCH  15  21
ENDBRANCH  12  18
ENDBRANCH  11  13
ENDBRANCH  10  11
ENDBRANCH   1  10
BRANCH   3  24
ATOM     24  C   UNL     1      -3.077   1.697  -1.288  0.00  0.00    +0.000 C 
BRANCH  24  25
ATOM     25  C   UNL     1      -4.540   1.483  -1.074  0.00  0.00    +0.000 A 
ATOM     26  C   UNL     1      -5.178   1.896   0.076  0.00  0.00    +0.000 A 
ATOM     27  C   UNL     1      -6.529   1.681   0.236  0.00  0.00    +0.000 A 
ATOM     28  C   UNL     1      -7.272   1.055  -0.738  0.00  0.00    +0.000 A 
ATOM     29  C   UNL     1      -6.625   0.648  -1.882  0.00  0.00    +0.000 A 
ATOM     30  C   UNL     1      -5.276   0.856  -2.056  0.00  0.00    +0.000 A 
ENDBRANCH  24  25
ENDBRANCH   3  24
TORSDOF 8
