REMARK  Name = 
REMARK  10 active torsions:
REMARK  status: ('A' for Active; 'I' for Inactive)
REMARK    1  A    between atoms: C_2  and  O_3
REMARK    2  A    between atoms: O_3  and  C_4
REMARK    3  A    between atoms: C_4  and  C_6
REMARK    4  A    between atoms: C_9  and  C_10
REMARK    5  A    between atoms: C_10  and  O_11
REMARK    6  A    between atoms: O_11  and  C_12
REMARK    7  A    between atoms: C_12  and  C_14
REMARK    8  A    between atoms: C_17  and  C_18
REMARK    9  A    between atoms: C_18  and  N_19
REMARK   10  A    between atoms: N_19  and  C_20
REMARK                            x       y       z     vdW  Elec       q    Type
REMARK                         _______ _______ _______ _____ _____    ______ ____
ROOT
ATOM      1  C   UNL     1       0.253   0.758  -0.601  0.00  0.00    +0.000 C 
ATOM      2  O   UNL     1       0.987   0.422  -1.554  0.00  0.00    +0.000 OA
ENDROOT
BRANCH   1   3
ATOM      3  C   UNL     1      -0.839  -0.146  -0.209  0.00  0.00    +0.000 A 
ATOM      4  C   UNL     1      -1.681   0.178   0.839  0.00  0.00    +0.000 A 
ATOM      5  C   UNL     1      -2.698  -0.688   1.187  0.00  0.00    +0.000 A 
ATOM      6  C   UNL     1      -2.932  -1.883   0.539  0.00  0.00    +0.000 A 
ATOM      7  C   UNL     1      -2.069  -2.187  -0.513  0.00  0.00    +0.000 A 
ATOM      8  C   UNL     1      -1.052  -1.324  -0.864  0.00  0.00    +0.000 A 
BRANCH   6   9
ATOM      9  C   UNL     1      -4.024  -2.820   0.909  0.00  0.00    +0.000 C 
BRANCH   9  10
ATOM     10  N   UNL     1      -5.178  -2.506   0.121  0.00  0.00    +0.000 NA
BRANCH  10  11
ATOM     11  C   UNL     1      -5.887  -1.300   0.087  0.00  0.00    +0.000 A 
ATOM     12  C   UNL     1      -5.525  -0.224   0.863  0.00  0.00    +0.000 A 
ATOM     13  C   UNL     1      -6.230   0.938   0.814  0.00  0.00    +0.000 A 
ATOM     14  C   UNL     1      -7.320   1.030  -0.025  0.00  0.00    +0.000 A 
ATOM     15  C   UNL     1      -7.680  -0.037  -0.795  0.00  0.00    +0.000 A 
ATOM     16  C   UNL     1      -6.975  -1.220  -0.756  0.00  0.00    +0.000 A 
ATOM     17  C   UNL     1      -7.360  -2.383  -1.590  0.00  0.00    +0.000 C 
ENDBRANCH  10  11
ENDBRANCH   9  10
ENDBRANCH   6   9
ENDBRANCH   1   3
BRANCH   1  18
ATOM     18  O   UNL     1       0.489   1.948   0.040  0.00  0.00    +0.000 OA
BRANCH  18  19
ATOM     19  C   UNL     1       1.545   2.796  -0.356  0.00  0.00    +0.000 C 
BRANCH  19  23
ATOM     20  C   UNL     1       5.266   0.723   0.072  0.00  0.00    +0.000 A 
ATOM     21  C   UNL     1       4.086   0.155   0.507  0.00  0.00    +0.000 A 
ATOM     22  C   UNL     1       2.919   0.855   0.349  0.00  0.00    +0.000 A 
ATOM     23  C   UNL     1       2.846   2.108  -0.224  0.00  0.00    +0.000 A 
ATOM     24  C   UNL     1       4.033   2.659  -0.652  0.00  0.00    +0.000 A 
ATOM     25  C   UNL     1       5.221   1.974  -0.505  0.00  0.00    +0.000 A 
BRANCH  20  26
ATOM     26  C   UNL     1       6.540   0.005   0.222  0.00  0.00    +0.000 C 
ATOM     27  O   UNL     1       6.592  -1.125   0.740  0.00  0.00    +0.000 OA
BRANCH  26  28
ATOM     28  O   UNL     1       7.709   0.581  -0.216  0.00  0.00    +0.000 OA
BRANCH  28  30
ATOM     29  C   UNL     1      10.016   0.815  -0.658  0.00  0.00    +0.000 C 
ATOM     30  C   UNL     1       8.949  -0.101  -0.077  0.00  0.00    +0.000 C 
ENDBRANCH  28  30
ENDBRANCH  26  28
ENDBRANCH  20  26
ENDBRANCH  19  23
ENDBRANCH  18  19
ENDBRANCH   1  18
TORSDOF 10
