REMARK  Name = 
REMARK  9 active torsions:
REMARK  status: ('A' for Active; 'I' for Inactive)
REMARK    1  A    between atoms: O_2  and  C_3
REMARK    2  A    between atoms: C_6  and  C_7
REMARK    3  A    between atoms: C_12  and  N_13
REMARK    4  A    between atoms: C_14  and  C_16
REMARK    5  A    between atoms: C_16  and  O_17
REMARK    6  A    between atoms: O_17  and  C_18
REMARK    7  A    between atoms: C_18  and  C_20
REMARK    8  A    between atoms: C_20  and  C_21
REMARK    9  A    between atoms: C_20  and  C_27
REMARK                            x       y       z     vdW  Elec       q    Type
REMARK                         _______ _______ _______ _____ _____    ______ ____
ROOT
ATOM      1  C   UNL     1      -0.278  -1.768   0.586  0.00  0.00    +0.000 C 
ENDROOT
BRANCH   1   3
ATOM      2  N   UNL     1       2.178  -1.580   0.745  0.00  0.00    +0.000 NA
ATOM      3  C   UNL     1       0.982  -1.127   0.181  0.00  0.00    +0.000 C 
ATOM      4  O   UNL     1       1.000  -0.202  -0.641  0.00  0.00    +0.000 OA
BRANCH   2  10
ATOM      5  C   UNL     1       4.576  -1.649   1.135  0.00  0.00    +0.000 A 
ATOM      6  C   UNL     1       5.850  -1.186   0.886  0.00  0.00    +0.000 A 
ATOM      7  C   UNL     1       6.103  -0.168  -0.004  0.00  0.00    +0.000 A 
ATOM      8  C   UNL     1       5.007   0.400  -0.667  0.00  0.00    +0.000 A 
ATOM      9  C   UNL     1       3.750  -0.075  -0.405  0.00  0.00    +0.000 A 
ATOM     10  C   UNL     1       3.475  -1.084   0.474  0.00  0.00    +0.000 A 
BRANCH   8  11
ATOM     11  C   UNL     1       5.327   1.492  -1.614  0.00  0.00    +0.000 C 
ATOM     12  C   UNL     1       6.195   1.048  -2.769  0.00  0.00    +0.000 C 
ATOM     13  C   UNL     1       4.016   2.065  -2.086  0.00  0.00    +0.000 C 
ATOM     14  C   UNL     1       6.036   2.619  -0.854  0.00  0.00    +0.000 C 
ENDBRANCH   8  11
BRANCH   5  16
ATOM     15  C   UNL     1       5.399  -3.256   2.706  0.00  0.00    +0.000 C 
ATOM     16  O   UNL     1       4.295  -2.681   2.032  0.00  0.00    +0.000 OA
ENDBRANCH   5  16
ENDBRANCH   2  10
ENDBRANCH   1   3
BRANCH   1  17
ATOM     17  O   UNL     1      -1.438  -1.310   0.018  0.00  0.00    +0.000 OA
BRANCH  17  18
ATOM     18  C   UNL     1      -1.990  -0.050   0.051  0.00  0.00    +0.000 C 
ATOM     19  O   UNL     1      -1.384   0.828   0.666  0.00  0.00    +0.000 OA
BRANCH  18  20
ATOM     20  C   UNL     1      -3.284   0.108  -0.674  0.00  0.00    +0.000 C 
BRANCH  20  21
ATOM     21  C   UNL     1      -3.763   1.497  -0.636  0.00  0.00    +0.000 A 
ATOM     22  C   UNL     1      -4.864   1.903  -1.360  0.00  0.00    +0.000 A 
ATOM     23  C   UNL     1      -5.309   3.218  -1.332  0.00  0.00    +0.000 A 
ATOM     24  C   UNL     1      -4.640   4.156  -0.562  0.00  0.00    +0.000 A 
ATOM     25  C   UNL     1      -3.525   3.752   0.172  0.00  0.00    +0.000 A 
ATOM     26  C   UNL     1      -3.105   2.430   0.123  0.00  0.00    +0.000 A 
ENDBRANCH  20  21
BRANCH  20  27
ATOM     27  C   UNL     1      -4.248  -0.779   0.059  0.00  0.00    +0.000 A 
ATOM     28  C   UNL     1      -5.166  -1.557  -0.564  0.00  0.00    +0.000 A 
ATOM     29  C   UNL     1      -6.030  -2.349   0.148  0.00  0.00    +0.000 A 
ATOM     30  C   UNL     1      -5.946  -2.339   1.545  0.00  0.00    +0.000 A 
ATOM     31  C   UNL     1      -5.030  -1.565   2.205  0.00  0.00    +0.000 A 
ATOM     32  C   UNL     1      -4.190  -0.792   1.434  0.00  0.00    +0.000 A 
ENDBRANCH  20  27
ENDBRANCH  18  20
ENDBRANCH  17  18
ENDBRANCH   1  17
TORSDOF 9
