REMARK  Name = 
REMARK  8 active torsions:
REMARK  status: ('A' for Active; 'I' for Inactive)
REMARK    1  A    between atoms: O_2  and  C_3
REMARK    2  A    between atoms: C_6  and  C_7
REMARK    3  A    between atoms: C_7  and  C_8
REMARK    4  A    between atoms: C_8  and  N_9
REMARK    5  A    between atoms: C_10  and  C_12
REMARK    6  A    between atoms: N_19  and  C_20
REMARK    7  A    between atoms: C_20  and  C_21
REMARK    8  A    between atoms: C_29  and  O_30
REMARK                            x       y       z     vdW  Elec       q    Type
REMARK                         _______ _______ _______ _____ _____    ______ ____
ROOT
ATOM      1  C   UNL     1      -1.869  -1.782   1.268  0.00  0.00    +0.000 A 
ATOM      2  C   UNL     1      -2.148  -3.111   1.503  0.00  0.00    +0.000 A 
ATOM      3  C   UNL     1      -3.517  -3.315   1.334  0.00  0.00    +0.000 A 
ATOM      4  C   UNL     1      -4.566  -4.207   1.358  0.00  0.00    +0.000 A 
ATOM      5  C   UNL     1      -5.679  -3.486   1.036  0.00  0.00    +0.000 A 
ATOM      6  O   UNL     1      -5.327  -2.245   0.830  0.00  0.00    +0.000 OA
ATOM      7  C   UNL     1      -4.028  -2.081   0.997  0.00  0.00    +0.000 A 
ATOM      8  N   UNL     1      -3.023  -1.171   0.962  0.00  0.00    +0.000 N 
ENDROOT
BRANCH   1  10
ATOM      9  N   UNL     1      -0.439   0.224   1.069  0.00  0.00    +0.000 NA
ATOM     10  C   UNL     1      -0.559  -1.155   1.339  0.00  0.00    +0.000 C 
ATOM     11  O   UNL     1       0.484  -1.809   1.637  0.00  0.00    +0.000 OA
BRANCH   9  12
ATOM     12  C   UNL     1       0.889   0.836   1.146  0.00  0.00    +0.000 C 
BRANCH  12  13
ATOM     13  C   UNL     1       1.764   0.124   0.132  0.00  0.00    +0.000 C 
BRANCH  13  17
ATOM     14  C   UNL     1       5.740   1.690   0.208  0.00  0.00    +0.000 A 
ATOM     15  C   UNL     1       5.394   0.636   1.026  0.00  0.00    +0.000 A 
ATOM     16  C   UNL     1       4.088   0.148   0.978  0.00  0.00    +0.000 A 
ATOM     17  C   UNL     1       3.140   0.685   0.142  0.00  0.00    +0.000 A 
ATOM     18  C   UNL     1       3.480   1.741  -0.680  0.00  0.00    +0.000 A 
ATOM     19  C   UNL     1       4.789   2.230  -0.632  0.00  0.00    +0.000 A 
BRANCH  14  21
ATOM     20  C   UNL     1       7.995   1.639   1.096  0.00  0.00    +0.000 C 
ATOM     21  O   UNL     1       7.027   2.198   0.232  0.00  0.00    +0.000 OA
ENDBRANCH  14  21
BRANCH  19  22
ATOM     22  O   UNL     1       5.197   3.295  -1.436  0.00  0.00    +0.000 OA
ATOM     23  C   UNL     1       4.265   3.876  -2.306  0.00  0.00    +0.000 C 
ENDBRANCH  19  22
ENDBRANCH  13  17
ENDBRANCH  12  13
ENDBRANCH   9  12
ENDBRANCH   1  10
BRANCH   8  24
ATOM     24  C   UNL     1      -3.135   0.230   0.662  0.00  0.00    +0.000 C 
BRANCH  24  25
ATOM     25  C   UNL     1      -2.997   0.594  -0.745  0.00  0.00    +0.000 A 
ATOM     26  C   UNL     1      -3.091   1.942  -1.056  0.00  0.00    +0.000 A 
ATOM     27  C   UNL     1      -2.982   2.432  -2.317  0.00  0.00    +0.000 A 
ATOM     28  C   UNL     1      -2.769   1.575  -3.359  0.00  0.00    +0.000 A 
ATOM     29  C   UNL     1      -2.667   0.224  -3.105  0.00  0.00    +0.000 A 
ATOM     30  C   UNL     1      -2.782  -0.261  -1.797  0.00  0.00    +0.000 A 
ATOM     31  C   UNL     1      -2.675  -1.699  -1.524  0.00  0.00    +0.000 C 
ENDBRANCH  24  25
ENDBRANCH   8  24
TORSDOF 8
