REMARK  Name = 
REMARK  7 active torsions:
REMARK  status: ('A' for Active; 'I' for Inactive)
REMARK    1  A    between atoms: C_5  and  S_6
REMARK    2  A    between atoms: S_6  and  C_7
REMARK    3  A    between atoms: C_7  and  C_8
REMARK    4  A    between atoms: N_10  and  C_11
REMARK    5  A    between atoms: C_16  and  C_17
REMARK    6  A    between atoms: N_19  and  C_20
REMARK    7  A    between atoms: C_20  and  C_22
REMARK                            x       y       z     vdW  Elec       q    Type
REMARK                         _______ _______ _______ _____ _____    ______ ____
ROOT
ATOM      1  C   UNL     1       0.189  -0.503  -1.248  0.00  0.00    +0.000 A 
ATOM      2  C   UNL     1       1.154  -0.204  -2.215  0.00  0.00    +0.000 A 
ATOM      3  C   UNL     1       0.798   0.518  -3.338  0.00  0.00    +0.000 A 
ATOM      4  C   UNL     1      -0.511   0.936  -3.489  0.00  0.00    +0.000 A 
ATOM      5  C   UNL     1      -1.430   0.616  -2.507  0.00  0.00    +0.000 A 
ATOM      6  C   UNL     1      -1.120  -0.101  -1.373  0.00  0.00    +0.000 A 
ENDROOT
BRANCH   1   9
ATOM      7  C   UNL     1       1.851  -1.710   0.148  0.00  0.00    +0.000 C 
ATOM      8  O   UNL     1       2.706  -1.433  -0.727  0.00  0.00    +0.000 OA
ATOM      9  N   UNL     1       0.509  -1.248  -0.069  0.00  0.00    +0.000 NA
BRANCH   7  10
ATOM     10  C   UNL     1       2.255  -2.486   1.344  0.00  0.00    +0.000 C 
BRANCH  10  11
ATOM     11  S   UNL     1       4.026  -2.856   1.210  0.00  0.00    +0.000 S 
BRANCH  11  16
ATOM     12  C   UNL     1       7.533   2.043   1.813  0.00  0.00    +0.000 C 
ATOM     13  C   UNL     1       6.669   0.849   1.590  0.00  0.00    +0.000 A 
ATOM     14  C   UNL     1       6.238   0.454   0.354  0.00  0.00    +0.000 A 
ATOM     15  C   UNL     1       5.438  -0.662   0.198  0.00  0.00    +0.000 A 
ATOM     16  C   UNL     1       5.046  -1.416   1.298  0.00  0.00    +0.000 A 
ATOM     17  C   UNL     1       5.502  -0.982   2.526  0.00  0.00    +0.000 A 
ATOM     18  C   UNL     1       6.297   0.122   2.693  0.00  0.00    +0.000 A 
ENDBRANCH  11  16
ENDBRANCH  10  11
ENDBRANCH   7  10
ENDBRANCH   1   9
BRANCH   6  19
ATOM     19  C   UNL     1      -2.092  -0.438  -0.335  0.00  0.00    +0.000 C 
ATOM     20  O   UNL     1      -1.754  -1.097   0.684  0.00  0.00    +0.000 OA
ATOM     21  N   UNL     1      -3.454  -0.075  -0.365  0.00  0.00    +0.000 NA
BRANCH  21  22
ATOM     22  C   UNL     1      -4.364  -0.512   0.824  0.00  0.00    +0.000 C 
ATOM     23  C   UNL     1      -3.453   0.267   1.930  0.00  0.00    +0.000 C 
BRANCH  22  24
ATOM     24  C   UNL     1      -5.422   0.661   0.649  0.00  0.00    +0.000 A 
ATOM     25  C   UNL     1      -5.872   0.941  -0.625  0.00  0.00    +0.000 A 
ATOM     26  C   UNL     1      -6.797   1.942  -0.840  0.00  0.00    +0.000 A 
ATOM     27  C   UNL     1      -7.271   2.664   0.224  0.00  0.00    +0.000 A 
ATOM     28  C   UNL     1      -6.802   2.359   1.472  0.00  0.00    +0.000 A 
ATOM     29  C   UNL     1      -5.870   1.351   1.704  0.00  0.00    +0.000 A 
ENDBRANCH  22  24
ENDBRANCH  21  22
ENDBRANCH   6  19
TORSDOF 7
