REMARK  Name = 
REMARK  8 active torsions:
REMARK  status: ('A' for Active; 'I' for Inactive)
REMARK    1  A    between atoms: C_2  and  O_3
REMARK    2  A    between atoms: O_3  and  C_4
REMARK    3  A    between atoms: C_9  and  C_10
REMARK    4  A    between atoms: C_13  and  C_14
REMARK    5  A    between atoms: C_20  and  C_21
REMARK    6  A    between atoms: N_23  and  C_24
REMARK    7  A    between atoms: C_24  and  C_25
REMARK    8  A    between atoms: C_28  and  C_29
REMARK                            x       y       z     vdW  Elec       q    Type
REMARK                         _______ _______ _______ _____ _____    ______ ____
ROOT
ATOM      1  C   UNL     1      -2.615   1.099  -0.189  0.00  0.00    +0.000 C 
ATOM      2  O   UNL     1      -3.989   0.491  -0.201  0.00  0.00    +0.000 OA
ATOM      3  N   UNL     1      -3.816  -0.265  -1.361  0.00  0.00    +0.000 NA
ATOM      4  C   UNL     1      -2.613  -0.982  -1.023  0.00  0.00    +0.000 C 
ATOM      5  C   UNL     1      -1.817  -0.263  -0.312  0.00  0.00    +0.000 C 
ENDROOT
BRANCH   1  11
ATOM      6  C   UNL     1      -2.206   2.618   1.761  0.00  0.00    +0.000 A 
ATOM      7  C   UNL     1      -2.108   2.800   3.124  0.00  0.00    +0.000 A 
ATOM      8  C   UNL     1      -2.318   1.799   4.027  0.00  0.00    +0.000 A 
ATOM      9  C   UNL     1      -2.658   0.519   3.588  0.00  0.00    +0.000 A 
ATOM     10  C   UNL     1      -2.756   0.325   2.237  0.00  0.00    +0.000 A 
ATOM     11  C   UNL     1      -2.544   1.307   1.401  0.00  0.00    +0.000 A 
BRANCH   6  12
ATOM     12  O   UNL     1      -2.017   3.565   0.805  0.00  0.00    +0.000 OA
BRANCH  12  14
ATOM     13  C   UNL     1      -0.386   5.259   1.430  0.00  0.00    +0.000 C 
ATOM     14  C   UNL     1      -1.685   4.874   0.828  0.00  0.00    +0.000 C 
ENDBRANCH  12  14
ENDBRANCH   6  12
ENDBRANCH   1  11
BRANCH   4  15
ATOM     15  C   UNL     1      -2.405  -2.359  -1.493  0.00  0.00    +0.000 A 
ATOM     16  C   UNL     1      -2.859  -2.793  -2.704  0.00  0.00    +0.000 A 
ATOM     17  C   UNL     1      -2.680  -4.078  -3.145  0.00  0.00    +0.000 A 
ATOM     18  C   UNL     1      -2.014  -5.011  -2.363  0.00  0.00    +0.000 A 
ATOM     19  C   UNL     1      -1.546  -4.575  -1.131  0.00  0.00    +0.000 A 
ATOM     20  C   UNL     1      -1.749  -3.282  -0.720  0.00  0.00    +0.000 A 
ENDBRANCH   4  15
BRANCH   5  21
ATOM     21  C   UNL     1      -0.557  -0.530   0.284  0.00  0.00    +0.000 C 
ATOM     22  O   UNL     1      -0.026   0.431   0.959  0.00  0.00    +0.000 OA
ATOM     23  N   UNL     1       0.207  -1.695   0.243  0.00  0.00    +0.000 NA
BRANCH  23  24
ATOM     24  C   UNL     1       1.441  -1.939   0.868  0.00  0.00    +0.000 C 
BRANCH  24  25
ATOM     25  C   UNL     1       2.540  -1.175   0.234  0.00  0.00    +0.000 A 
ATOM     26  C   UNL     1       2.698  -1.057  -1.089  0.00  0.00    +0.000 A 
ATOM     27  C   UNL     1       3.740  -0.324  -1.642  0.00  0.00    +0.000 A 
ATOM     28  C   UNL     1       4.615   0.285  -0.763  0.00  0.00    +0.000 A 
ATOM     29  C   UNL     1       4.463   0.171   0.584  0.00  0.00    +0.000 A 
ATOM     30  C   UNL     1       3.440  -0.551   1.121  0.00  0.00    +0.000 A 
BRANCH  28  31
ATOM     31  C   UNL     1       5.793   1.109  -1.244  0.00  0.00    +0.000 C 
ATOM     32  C   UNL     1       6.771   1.278  -0.080  0.00  0.00    +0.000 C 
ATOM     33  C   UNL     1       6.433   0.469  -2.438  0.00  0.00    +0.000 C 
ATOM     34  C   UNL     1       5.221   2.480  -1.595  0.00  0.00    +0.000 C 
ENDBRANCH  28  31
ENDBRANCH  24  25
ENDBRANCH  23  24
ENDBRANCH   5  21
TORSDOF 8
