REMARK  Name = 
REMARK  6 active torsions:
REMARK  status: ('A' for Active; 'I' for Inactive)
REMARK    1  A    between atoms: C_3  and  C_4
REMARK    2  A    between atoms: N_6  and  C_7
REMARK    3  A    between atoms: C_7  and  C_8
REMARK    4  A    between atoms: N_24  and  C_25
REMARK    5  A    between atoms: C_25  and  C_26
REMARK    6  A    between atoms: C_26  and  C_27
REMARK                            x       y       z     vdW  Elec       q    Type
REMARK                         _______ _______ _______ _____ _____    ______ ____
ROOT
ATOM      1  N   UNL     1       0.014   2.454  -0.122  0.00  0.00    +0.000 NA
ATOM      2  C   UNL     1       0.095   1.023  -0.174  0.00  0.00    +0.000 A 
ATOM      3  C   UNL     1      -0.994   0.169  -0.060  0.00  0.00    +0.000 A 
ATOM      4  C   UNL     1      -0.502  -1.122  -0.159  0.00  0.00    +0.000 A 
ATOM      5  N   UNL     1      -1.055  -2.345  -0.124  0.00  0.00    +0.000 NA
ATOM      6  C   UNL     1      -0.271  -3.454  -0.255  0.00  0.00    +0.000 A 
ATOM      7  C   UNL     1      -0.818  -4.721  -0.222  0.00  0.00    +0.000 A 
ATOM      8  C   UNL     1      -0.056  -5.864  -0.352  0.00  0.00    +0.000 A 
ATOM      9  C   UNL     1       1.310  -5.761  -0.522  0.00  0.00    +0.000 A 
ATOM     10  C   UNL     1       1.876  -4.504  -0.558  0.00  0.00    +0.000 A 
ATOM     11  C   UNL     1       1.095  -3.354  -0.426  0.00  0.00    +0.000 A 
ATOM     12  N   UNL     1       1.643  -2.126  -0.461  0.00  0.00    +0.000 NA
ATOM     13  C   UNL     1       0.861  -1.033  -0.330  0.00  0.00    +0.000 A 
ATOM     14  N   UNL     1       1.185   0.273  -0.334  0.00  0.00    +0.000 N 
ENDROOT
BRANCH   3  15
ATOM     15  C   UNL     1      -2.387   0.515   0.128  0.00  0.00    +0.000 C 
ATOM     16  O   UNL     1      -2.714   1.715   0.203  0.00  0.00    +0.000 OA
ATOM     17  N   UNL     1      -3.369  -0.486   0.224  0.00  0.00    +0.000 NA
BRANCH  17  18
ATOM     18  C   UNL     1      -4.771  -0.289   0.408  0.00  0.00    +0.000 C 
BRANCH  18  19
ATOM     19  C   UNL     1      -5.045   1.184   0.487  0.00  0.00    +0.000 A 
ATOM     20  C   UNL     1      -5.038   1.866   1.663  0.00  0.00    +0.000 A 
ATOM     21  C   UNL     1      -5.291   3.198   1.722  0.00  0.00    +0.000 A 
ATOM     22  C   UNL     1      -5.561   3.876   0.562  0.00  0.00    +0.000 A 
ATOM     23  C   UNL     1      -5.572   3.195  -0.653  0.00  0.00    +0.000 A 
ATOM     24  C   UNL     1      -5.313   1.847  -0.686  0.00  0.00    +0.000 A 
ENDBRANCH  18  19
ENDBRANCH  17  18
ENDBRANCH   3  15
BRANCH  14  25
ATOM     25  C   UNL     1       2.516   0.799  -0.488  0.00  0.00    +0.000 C 
BRANCH  25  26
ATOM     26  C   UNL     1       3.208   0.962   0.854  0.00  0.00    +0.000 C 
BRANCH  26  27
ATOM     27  C   UNL     1       4.588   1.517   0.559  0.00  0.00    +0.000 C 
ATOM     28  C   UNL     1       4.972   2.661   1.040  0.00  0.00    +0.000 C 
ATOM     29  C   UNL     1       6.289   3.248   0.791  0.00  0.00    +0.000 C 
ATOM     30  C   UNL     1       6.858   2.711  -0.501  0.00  0.00    +0.000 C 
ATOM     31  C   UNL     1       6.816   1.178  -0.427  0.00  0.00    +0.000 C 
ATOM     32  C   UNL     1       5.431   0.670  -0.299  0.00  0.00    +0.000 C 
ENDBRANCH  26  27
ENDBRANCH  25  26
ENDBRANCH  14  25
TORSDOF 6
