REMARK  Name = 
REMARK  9 active torsions:
REMARK  status: ('A' for Active; 'I' for Inactive)
REMARK    1  A    between atoms: C_6  and  N_7
REMARK    2  A    between atoms: C_8  and  C_10
REMARK    3  A    between atoms: C_10  and  O_12
REMARK    4  A    between atoms: O_12  and  C_13
REMARK    5  A    between atoms: C_13  and  C_15
REMARK    6  A    between atoms: C_15  and  C_16
REMARK    7  A    between atoms: C_16  and  C_17
REMARK    8  A    between atoms: C_17  and  O_18
REMARK    9  A    between atoms: O_18  and  C_19
REMARK                            x       y       z     vdW  Elec       q    Type
REMARK                         _______ _______ _______ _____ _____    ______ ____
ROOT
ATOM      1  C   UNL     1       0.861   0.513   1.172  0.00  0.00    +0.000 C 
ATOM      2  O   UNL     1       1.265   0.305   0.003  0.00  0.00    +0.000 OA
ENDROOT
BRANCH   1   3
ATOM      3  O   UNL     1      -0.552   0.597   1.237  0.00  0.00    +0.000 OA
BRANCH   3   4
ATOM      4  C   UNL     1      -1.283   0.425  -0.079  0.00  0.00    +0.000 C 
ATOM      5  C   UNL     1      -1.149   1.999  -0.535  0.00  0.00    +0.000 C 
BRANCH   4   7
ATOM      6  N   UNL     1      -3.826   0.501  -0.400  0.00  0.00    +0.000 NA
ATOM      7  C   UNL     1      -2.749   0.596   0.509  0.00  0.00    +0.000 C 
ATOM      8  O   UNL     1      -2.998   0.799   1.673  0.00  0.00    +0.000 OA
BRANCH   6  14
ATOM      9  C   UNL     1      -8.637   0.603  -1.219  0.00  0.00    +0.000 C 
ATOM     10  C   UNL     1      -7.458   0.699  -0.288  0.00  0.00    +0.000 A 
ATOM     11  C   UNL     1      -7.727   0.932   1.031  0.00  0.00    +0.000 A 
ATOM     12  C   UNL     1      -6.676   1.030   1.927  0.00  0.00    +0.000 A 
ATOM     13  C   UNL     1      -5.381   0.890   1.474  0.00  0.00    +0.000 A 
ATOM     14  C   UNL     1      -5.119   0.656   0.150  0.00  0.00    +0.000 A 
ATOM     15  C   UNL     1      -6.181   0.561  -0.738  0.00  0.00    +0.000 A 
ATOM     16  C   UNL     1      -5.968   0.309  -2.188  0.00  0.00    +0.000 C 
ENDBRANCH   6  14
ENDBRANCH   4   7
ENDBRANCH   3   4
ENDBRANCH   1   3
BRANCH   1  17
ATOM     17  C   UNL     1       1.622   0.665   2.379  0.00  0.00    +0.000 C 
BRANCH  17  18
ATOM     18  C   UNL     1       3.051   0.626   2.423  0.00  0.00    +0.000 C 
BRANCH  18  19
ATOM     19  C   UNL     1       3.908   1.565   1.711  0.00  0.00    +0.000 C 
BRANCH  19  20
ATOM     20  O   UNL     1       3.926   1.634   0.346  0.00  0.00    +0.000 OA
BRANCH  20  21
ATOM     21  C   UNL     1       4.319   0.583  -0.499  0.00  0.00    +0.000 A 
ATOM     22  C   UNL     1       4.314   0.723  -1.864  0.00  0.00    +0.000 A 
ATOM     23  C   UNL     1       4.705  -0.322  -2.704  0.00  0.00    +0.000 A 
ATOM     24  C   UNL     1       5.104  -1.518  -2.181  0.00  0.00    +0.000 A 
ATOM     25  C   UNL     1       5.493  -2.560  -2.998  0.00  0.00    +0.000 A 
ATOM     26  C   UNL     1       5.887  -3.743  -2.447  0.00  0.00    +0.000 A 
ATOM     27  C   UNL     1       5.903  -3.913  -1.098  0.00  0.00    +0.000 A 
ATOM     28  C   UNL     1       5.513  -2.865  -0.291  0.00  0.00    +0.000 A 
ATOM     29  C   UNL     1       5.112  -1.667  -0.810  0.00  0.00    +0.000 A 
ATOM     30  C   UNL     1       4.722  -0.622   0.030  0.00  0.00    +0.000 A 
ENDBRANCH  20  21
ENDBRANCH  19  20
ENDBRANCH  18  19
ENDBRANCH  17  18
ENDBRANCH   1  17
TORSDOF 9
