REMARK  Name = 
REMARK  7 active torsions:
REMARK  status: ('A' for Active; 'I' for Inactive)
REMARK    1  A    between atoms: C_2  and  C_22
REMARK    2  A    between atoms: N_3  and  C_4
REMARK    3  A    between atoms: C_4  and  C_5
REMARK    4  A    between atoms: C_5  and  C_6
REMARK    5  A    between atoms: C_6  and  C_7
REMARK    6  A    between atoms: C_7  and  N_8
REMARK    7  A    between atoms: C_25  and  C_26
REMARK                            x       y       z     vdW  Elec       q    Type
REMARK                         _______ _______ _______ _____ _____    ______ ____
ROOT
ATOM      1  C   UNL     1      -0.971   3.397  -0.693  0.00  0.00    +0.000 C 
ENDROOT
BRANCH   1   2
ATOM      2  C   UNL     1      -0.036   3.429   0.427  0.00  0.00    +0.000 C 
BRANCH   2   5
ATOM      3  O   UNL     1       0.806   0.622  -0.227  0.00  0.00    +0.000 OA
ATOM      4  C   UNL     1       1.641   1.536  -0.076  0.00  0.00    +0.000 C 
ATOM      5  N   UNL     1       1.181   2.799   0.223  0.00  0.00    +0.000 NA
BRANCH   4   6
ATOM      6  C   UNL     1       3.052   1.157  -0.235  0.00  0.00    +0.000 A 
ATOM      7  C   UNL     1       3.454  -0.142  -0.429  0.00  0.00    +0.000 A 
ATOM      8  C   UNL     1       4.782  -0.496  -0.576  0.00  0.00    +0.000 A 
ATOM      9  C   UNL     1       5.799   0.432  -0.539  0.00  0.00    +0.000 A 
ATOM     10  C   UNL     1       5.389   1.733  -0.346  0.00  0.00    +0.000 A 
ATOM     11  C   UNL     1       4.065   2.087  -0.198  0.00  0.00    +0.000 A 
BRANCH   9  12
ATOM     12  C   UNL     1       7.206   0.069  -0.691  0.00  0.00    +0.000 A 
ATOM     13  C   UNL     1       7.737  -1.128  -0.267  0.00  0.00    +0.000 A 
ATOM     14  C   UNL     1       9.066  -1.459  -0.418  0.00  0.00    +0.000 A 
ATOM     15  C   UNL     1       9.912  -0.553  -1.023  0.00  0.00    +0.000 A 
ATOM     16  C   UNL     1       9.417   0.676  -1.470  0.00  0.00    +0.000 A 
ATOM     17  C   UNL     1       8.078   0.948  -1.290  0.00  0.00    +0.000 A 
ENDBRANCH   9  12
ENDBRANCH   4   6
ENDBRANCH   2   5
ENDBRANCH   1   2
BRANCH   1  18
ATOM     18  C   UNL     1      -1.418   2.027  -1.024  0.00  0.00    +0.000 C 
BRANCH  18  19
ATOM     19  C   UNL     1      -2.189   1.375   0.145  0.00  0.00    +0.000 C 
BRANCH  19  20
ATOM     20  N   UNL     1      -2.550   0.084  -0.317  0.00  0.00    +0.000 NA
ATOM     21  C   UNL     1      -3.524   0.188  -1.357  0.00  0.00    +0.000 C 
ATOM     22  C   UNL     1      -4.835   0.495  -0.677  0.00  0.00    +0.000 C 
ATOM     23  N   UNL     1      -5.051  -0.511   0.330  0.00  0.00    +0.000 N 
ATOM     24  C   UNL     1      -6.186  -1.312   0.219  0.00  0.00    +0.000 A 
ATOM     25  C   UNL     1      -7.011  -1.216  -0.919  0.00  0.00    +0.000 A 
ATOM     26  C   UNL     1      -8.135  -1.966  -1.069  0.00  0.00    +0.000 A 
ATOM     27  C   UNL     1      -8.493  -2.853  -0.086  0.00  0.00    +0.000 A 
ATOM     28  C   UNL     1      -7.725  -2.983   1.038  0.00  0.00    +0.000 A 
ATOM     29  C   UNL     1      -6.605  -2.217   1.158  0.00  0.00    +0.000 A 
ATOM     30  C   UNL     1      -5.729  -2.341   2.365  0.00  0.00    +0.000 C 
ATOM     31  C   UNL     1      -4.316  -2.258   1.782  0.00  0.00    +0.000 C 
ATOM     32  C   UNL     1      -4.081  -0.658   1.494  0.00  0.00    +0.000 C 
ATOM     33  C   UNL     1      -2.729  -0.957   0.595  0.00  0.00    +0.000 C 
ENDBRANCH  19  20
ENDBRANCH  18  19
ENDBRANCH   1  18
TORSDOF 7
