REMARK  Name = 
REMARK  8 active torsions:
REMARK  status: ('A' for Active; 'I' for Inactive)
REMARK    1  A    between atoms: C_2  and  C_3
REMARK    2  A    between atoms: C_7  and  C_8
REMARK    3  A    between atoms: C_10  and  N_11
REMARK    4  A    between atoms: C_12  and  C_14
REMARK    5  A    between atoms: C_14  and  O_16
REMARK    6  A    between atoms: O_16  and  C_17
REMARK    7  A    between atoms: C_17  and  C_19
REMARK    8  A    between atoms: C_22  and  C_23
REMARK                            x       y       z     vdW  Elec       q    Type
REMARK                         _______ _______ _______ _____ _____    ______ ____
ROOT
ATOM      1  C   UNL     1      -1.953   0.004  -2.635  0.00  0.00    +0.000 C 
ATOM      2  C   UNL     1      -1.593  -1.568  -3.067  0.00  0.00    +0.000 C 
ENDROOT
BRANCH   1   4
ATOM      3  N   UNL     1      -2.824  -0.558  -0.247  0.00  0.00    +0.000 NA
ATOM      4  C   UNL     1      -3.074  -0.386  -1.599  0.00  0.00    +0.000 C 
ATOM      5  O   UNL     1      -4.208  -0.532  -2.071  0.00  0.00    +0.000 OA
BRANCH   3  11
ATOM      6  C   UNL     1      -4.025  -2.231   0.981  0.00  0.00    +0.000 A 
ATOM      7  C   UNL     1      -4.987  -2.605   1.934  0.00  0.00    +0.000 A 
ATOM      8  C   UNL     1      -5.701  -1.637   2.604  0.00  0.00    +0.000 A 
ATOM      9  C   UNL     1      -5.470  -0.325   2.339  0.00  0.00    +0.000 A 
ATOM     10  C   UNL     1      -4.513   0.031   1.392  0.00  0.00    +0.000 A 
ATOM     11  C   UNL     1      -3.787  -0.904   0.708  0.00  0.00    +0.000 A 
BRANCH   6  13
ATOM     12  C   UNL     1      -3.724  -3.638  -1.056  0.00  0.00    +0.000 C 
ATOM     13  C   UNL     1      -3.321  -3.322   0.325  0.00  0.00    +0.000 C 
ENDBRANCH   6  13
BRANCH  10  14
ATOM     14  C   UNL     1      -4.313   1.466   1.153  0.00  0.00    +0.000 C 
ATOM     15  C   UNL     1      -3.072   2.020   1.775  0.00  0.00    +0.000 C 
ENDBRANCH  10  14
ENDBRANCH   3  11
ENDBRANCH   1   4
BRANCH   1  16
ATOM     16  O   UNL     1      -0.778   0.075  -1.648  0.00  0.00    +0.000 OA
BRANCH  16  17
ATOM     17  C   UNL     1       0.449   0.409  -2.211  0.00  0.00    +0.000 C 
ATOM     18  O   UNL     1       0.483   0.616  -3.438  0.00  0.00    +0.000 OA
BRANCH  17  19
ATOM     19  C   UNL     1       1.666   0.520  -1.427  0.00  0.00    +0.000 A 
ATOM     20  C   UNL     1       1.706   0.306  -0.069  0.00  0.00    +0.000 A 
ATOM     21  C   UNL     1       2.906   0.429   0.619  0.00  0.00    +0.000 A 
ATOM     22  C   UNL     1       4.091   0.766  -0.010  0.00  0.00    +0.000 A 
ATOM     23  C   UNL     1       4.041   0.978  -1.360  0.00  0.00    +0.000 A 
ATOM     24  C   UNL     1       2.850   0.855  -2.043  0.00  0.00    +0.000 A 
BRANCH  22  25
ATOM     25  C   UNL     1       5.331   0.882   0.766  0.00  0.00    +0.000 A 
ATOM     26  C   UNL     1       6.328   1.754   0.420  0.00  0.00    +0.000 A 
ATOM     27  C   UNL     1       7.507   1.891   1.123  0.00  0.00    +0.000 A 
ATOM     28  C   UNL     1       7.720   1.117   2.244  0.00  0.00    +0.000 A 
ATOM     29  C   UNL     1       6.721   0.229   2.608  0.00  0.00    +0.000 A 
ATOM     30  C   UNL     1       5.544   0.103   1.892  0.00  0.00    +0.000 A 
ENDBRANCH  22  25
ENDBRANCH  17  19
ENDBRANCH  16  17
ENDBRANCH   1  16
TORSDOF 8
