REMARK  Name = 
REMARK  7 active torsions:
REMARK  status: ('A' for Active; 'I' for Inactive)
REMARK    1  A    between atoms: C_3  and  C_4
REMARK    2  A    between atoms: N_6  and  C_7
REMARK    3  A    between atoms: C_7  and  C_8
REMARK    4  A    between atoms: C_8  and  C_9
REMARK    5  A    between atoms: C_9  and  N_10
REMARK    6  A    between atoms: C_18  and  C_19
REMARK    7  A    between atoms: N_25  and  C_26
REMARK                            x       y       z     vdW  Elec       q    Type
REMARK                         _______ _______ _______ _____ _____    ______ ____
ROOT
ATOM      1  C   UNL     1       0.347  -0.038  -1.541  0.00  0.00    +0.000 C 
ATOM      2  C   UNL     1      -0.570  -0.350  -0.394  0.00  0.00    +0.000 A 
ATOM      3  C   UNL     1      -0.245  -1.025   0.767  0.00  0.00    +0.000 A 
ATOM      4  C   UNL     1      -1.425  -1.045   1.480  0.00  0.00    +0.000 A 
ATOM      5  C   UNL     1      -2.427  -0.415   0.794  0.00  0.00    +0.000 A 
ATOM      6  N   UNL     1      -1.888   0.010  -0.361  0.00  0.00    +0.000 N 
ENDROOT
BRANCH   5   7
ATOM      7  C   UNL     1      -3.821  -0.212   1.180  0.00  0.00    +0.000 A 
ATOM      8  C   UNL     1      -4.327  -0.681   2.377  0.00  0.00    +0.000 A 
ATOM      9  C   UNL     1      -5.652  -0.480   2.735  0.00  0.00    +0.000 A 
ATOM     10  C   UNL     1      -6.517   0.198   1.907  0.00  0.00    +0.000 A 
ATOM     11  C   UNL     1      -6.027   0.670   0.712  0.00  0.00    +0.000 A 
ATOM     12  C   UNL     1      -4.708   0.462   0.373  0.00  0.00    +0.000 A 
ENDBRANCH   5   7
BRANCH   6  13
ATOM     13  C   UNL     1      -2.591   0.726  -1.387  0.00  0.00    +0.000 A 
ATOM     14  C   UNL     1      -3.008   0.169  -2.553  0.00  0.00    +0.000 A 
ATOM     15  C   UNL     1      -3.677   0.936  -3.477  0.00  0.00    +0.000 A 
ATOM     16  C   UNL     1      -3.929   2.292  -3.218  0.00  0.00    +0.000 A 
ATOM     17  C   UNL     1      -3.505   2.851  -2.038  0.00  0.00    +0.000 A 
ATOM     18  C   UNL     1      -2.847   2.059  -1.149  0.00  0.00    +0.000 A 
ENDBRANCH   6  13
BRANCH   3  19
ATOM     19  C   UNL     1       1.071  -1.564   1.089  0.00  0.00    +0.000 C 
ATOM     20  O   UNL     1       1.315  -2.152   2.171  0.00  0.00    +0.000 OA
ATOM     21  N   UNL     1       2.146  -1.435   0.163  0.00  0.00    +0.000 NA
BRANCH  21  22
ATOM     22  C   UNL     1       3.470  -1.927   0.383  0.00  0.00    +0.000 C 
BRANCH  22  23
ATOM     23  C   UNL     1       3.998  -1.219   1.639  0.00  0.00    +0.000 C 
BRANCH  23  24
ATOM     24  C   UNL     1       3.963   0.267   1.284  0.00  0.00    +0.000 C 
BRANCH  24  25
ATOM     25  N   UNL     1       4.723   0.566   0.213  0.00  0.00    +0.000 NA
ATOM     26  C   UNL     1       4.569   0.239  -1.078  0.00  0.00    +0.000 C 
ATOM     27  C   UNL     1       5.478  -0.935  -1.440  0.00  0.00    +0.000 C 
ATOM     28  C   UNL     1       6.728  -0.689  -0.573  0.00  0.00    +0.000 C 
ATOM     29  C   UNL     1       6.917   0.794  -0.601  0.00  0.00    +0.000 C 
ATOM     30  C   UNL     1       5.947   1.453   0.530  0.00  0.00    +0.000 C 
ATOM     31  C   UNL     1       6.491   0.477   1.722  0.00  0.00    +0.000 C 
ENDBRANCH  24  25
ENDBRANCH  23  24
ENDBRANCH  22  23
ENDBRANCH  21  22
ENDBRANCH   3  19
TORSDOF 7
