REMARK  Name = 
REMARK  6 active torsions:
REMARK  status: ('A' for Active; 'I' for Inactive)
REMARK    1  A    between atoms: C_2  and  C_5
REMARK    2  A    between atoms: C_11  and  N_12
REMARK    3  A    between atoms: C_13  and  C_15
REMARK    4  A    between atoms: C_21  and  C_22
REMARK    5  A    between atoms: N_24  and  C_25
REMARK    6  A    between atoms: C_25  and  C_26
REMARK                            x       y       z     vdW  Elec       q    Type
REMARK                         _______ _______ _______ _____ _____    ______ ____
ROOT
ATOM      1  C   UNL     1      -3.866  -2.298   0.970  0.00  0.00    +0.000 C 
ATOM      2  C   UNL     1      -2.495  -3.017   1.478  0.00  0.00    +0.000 C 
ATOM      3  C   UNL     1      -1.362  -2.771   0.624  0.00  0.00    +0.000 C 
ATOM      4  C   UNL     1      -1.275  -1.339   0.098  0.00  0.00    +0.000 A 
ATOM      5  C   UNL     1      -2.421  -1.011  -0.565  0.00  0.00    +0.000 A 
ATOM      6  S   UNL     1      -2.113   0.586  -1.054  0.00  0.00    +0.000 S 
ATOM      7  C   UNL     1      -0.544   0.802  -0.409  0.00  0.00    +0.000 A 
ATOM      8  C   UNL     1      -0.305  -0.406   0.180  0.00  0.00    +0.000 A 
ATOM      9  C   UNL     1      -3.432  -2.109  -0.598  0.00  0.00    +0.000 C 
ENDROOT
BRANCH   1  11
ATOM     10  C   UNL     1      -4.608  -4.279   2.132  0.00  0.00    +0.000 C 
ATOM     11  C   UNL     1      -4.650  -3.716   0.725  0.00  0.00    +0.000 C 
ATOM     12  C   UNL     1      -3.833  -4.531  -0.233  0.00  0.00    +0.000 C 
ATOM     13  C   UNL     1      -6.018  -3.383   0.251  0.00  0.00    +0.000 C 
ENDBRANCH   1  11
BRANCH   7  14
ATOM     14  N   UNL     1       0.323   1.957  -0.464  0.00  0.00    +0.000 NA
ATOM     15  C   UNL     1      -0.113   3.133  -1.132  0.00  0.00    +0.000 C 
ATOM     16  O   UNL     1      -1.250   3.111  -1.653  0.00  0.00    +0.000 OA
BRANCH  15  17
ATOM     17  C   UNL     1       0.684   4.339  -1.239  0.00  0.00    +0.000 A 
ATOM     18  C   UNL     1       1.926   4.418  -0.692  0.00  0.00    +0.000 A 
ATOM     19  C   UNL     1       2.662   5.557  -0.801  0.00  0.00    +0.000 A 
ATOM     20  C   UNL     1       2.173   6.654  -1.463  0.00  0.00    +0.000 A 
ATOM     21  C   UNL     1       0.917   6.565  -2.013  0.00  0.00    +0.000 A 
ATOM     22  C   UNL     1       0.180   5.429  -1.905  0.00  0.00    +0.000 A 
ENDBRANCH  15  17
ENDBRANCH   7  14
BRANCH   8  23
ATOM     23  C   UNL     1       0.991  -0.661   0.884  0.00  0.00    +0.000 C 
ATOM     24  O   UNL     1       1.885   0.217   0.953  0.00  0.00    +0.000 OA
ATOM     25  N   UNL     1       1.272  -1.901   1.506  0.00  0.00    +0.000 NA
BRANCH  25  26
ATOM     26  C   UNL     1       2.531  -2.125   2.181  0.00  0.00    +0.000 C 
BRANCH  26  27
ATOM     27  C   UNL     1       3.664  -1.963   1.215  0.00  0.00    +0.000 A 
ATOM     28  C   UNL     1       4.996  -2.110   1.539  0.00  0.00    +0.000 A 
ATOM     29  C   UNL     1       5.720  -1.879   0.368  0.00  0.00    +0.000 A 
ATOM     30  C   UNL     1       4.782  -1.607  -0.589  0.00  0.00    +0.000 A 
ATOM     31  O   UNL     1       3.580  -1.664  -0.061  0.00  0.00    +0.000 OA
ENDBRANCH  26  27
ENDBRANCH  25  26
ENDBRANCH   8  23
TORSDOF 6
