REMARK  Name = 
REMARK  7 active torsions:
REMARK  status: ('A' for Active; 'I' for Inactive)
REMARK    1  A    between atoms: C_2  and  N_3
REMARK    2  A    between atoms: C_2  and  C_26
REMARK    3  A    between atoms: C_4  and  C_6
REMARK    4  A    between atoms: C_11  and  O_12
REMARK    5  A    between atoms: O_12  and  C_13
REMARK    6  A    between atoms: C_13  and  C_14
REMARK    7  A    between atoms: C_14  and  C_16
REMARK                            x       y       z     vdW  Elec       q    Type
REMARK                         _______ _______ _______ _____ _____    ______ ____
ROOT
ATOM      1  C   UNL     1       2.390  -1.814   0.946  0.00  0.00    +0.000 A 
ATOM      2  C   UNL     1       3.152  -2.733   1.629  0.00  0.00    +0.000 A 
ATOM      3  C   UNL     1       2.560  -3.602   2.516  0.00  0.00    +0.000 A 
ATOM      4  C   UNL     1       1.207  -3.577   2.743  0.00  0.00    +0.000 A 
ATOM      5  C   UNL     1       0.464  -2.632   2.031  0.00  0.00    +0.000 A 
ATOM      6  C   UNL     1       1.035  -1.770   1.154  0.00  0.00    +0.000 A 
ENDROOT
BRANCH   1   8
ATOM      7  N   UNL     1       2.357   0.102  -0.677  0.00  0.00    +0.000 NA
ATOM      8  C   UNL     1       3.053  -0.891   0.028  0.00  0.00    +0.000 C 
ATOM      9  O   UNL     1       4.272  -0.950  -0.170  0.00  0.00    +0.000 OA
BRANCH   7  11
ATOM     10  C   UNL     1       2.282   2.388  -1.185  0.00  0.00    +0.000 C 
ATOM     11  C   UNL     1       3.190   1.024  -1.628  0.00  0.00    +0.000 C 
BRANCH  11  12
ATOM     12  C   UNL     1       4.413   1.305  -0.670  0.00  0.00    +0.000 A 
ATOM     13  C   UNL     1       4.384   1.642   0.594  0.00  0.00    +0.000 A 
ATOM     14  C   UNL     1       5.566   1.865   1.290  0.00  0.00    +0.000 A 
ATOM     15  C   UNL     1       6.788   1.733   0.659  0.00  0.00    +0.000 A 
ATOM     16  C   UNL     1       6.783   1.373  -0.684  0.00  0.00    +0.000 A 
ATOM     17  C   UNL     1       5.592   1.167  -1.322  0.00  0.00    +0.000 A 
ENDBRANCH  11  12
ENDBRANCH   7  11
ENDBRANCH   1   8
BRANCH   6  18
ATOM     18  O   UNL     1       0.308  -0.830   0.438  0.00  0.00    +0.000 OA
BRANCH  18  19
ATOM     19  C   UNL     1      -1.091  -0.775   0.631  0.00  0.00    +0.000 C 
BRANCH  19  20
ATOM     20  C   UNL     1      -1.647   0.266  -0.243  0.00  0.00    +0.000 C 
ATOM     21  O   UNL     1      -0.874   0.986  -0.923  0.00  0.00    +0.000 OA
BRANCH  20  22
ATOM     22  C   UNL     1      -3.106   0.480  -0.348  0.00  0.00    +0.000 A 
ATOM     23  C   UNL     1      -3.606   1.441  -1.215  0.00  0.00    +0.000 A 
ATOM     24  C   UNL     1      -4.961   1.651  -1.361  0.00  0.00    +0.000 A 
ATOM     25  C   UNL     1      -5.884   0.925  -0.658  0.00  0.00    +0.000 A 
ATOM     26  C   UNL     1      -5.387  -0.043   0.219  0.00  0.00    +0.000 A 
ATOM     27  C   UNL     1      -4.025  -0.250   0.361  0.00  0.00    +0.000 A 
ATOM     28  C   UNL     1      -6.404  -0.807   0.976  0.00  0.00    +0.000 C 
ATOM     29  C   UNL     1      -7.617  -0.039   1.369  0.00  0.00    +0.000 C 
ATOM     30  C   UNL     1      -7.832   1.271   0.668  0.00  0.00    +0.000 C 
ATOM     31  C   UNL     1      -7.363   1.094  -0.776  0.00  0.00    +0.000 C 
ENDBRANCH  20  22
ENDBRANCH  19  20
ENDBRANCH  18  19
ENDBRANCH   6  18
TORSDOF 7
