REMARK  Name = 
REMARK  6 active torsions:
REMARK  status: ('A' for Active; 'I' for Inactive)
REMARK    1  A    between atoms: O_2  and  C_3
REMARK    2  A    between atoms: C_6  and  C_7
REMARK    3  A    between atoms: C_12  and  N_13
REMARK    4  A    between atoms: C_14  and  C_16
REMARK    5  A    between atoms: N_18  and  C_19
REMARK    6  A    between atoms: C_19  and  C_20
REMARK                            x       y       z     vdW  Elec       q    Type
REMARK                         _______ _______ _______ _____ _____    ______ ____
ROOT
ATOM      1  C   UNL     1      -0.726   0.125  -0.842  0.00  0.00    +0.000 A 
ATOM      2  N   UNL     1      -1.611  -0.777  -0.346  0.00  0.00    +0.000 NA
ATOM      3  N   UNL     1      -2.895  -0.800  -0.658  0.00  0.00    +0.000 N 
ATOM      4  C   UNL     1      -3.356   0.124  -1.512  0.00  0.00    +0.000 A 
ATOM      5  O   UNL     1      -4.567   0.108  -1.812  0.00  0.00    +0.000 OA
ATOM      6  C   UNL     1      -2.517   1.075  -2.058  0.00  0.00    +0.000 A 
ATOM      7  C   UNL     1      -2.928   2.039  -2.943  0.00  0.00    +0.000 A 
ATOM      8  C   UNL     1      -2.114   3.005  -3.513  0.00  0.00    +0.000 A 
ATOM      9  C   UNL     1      -0.775   2.976  -3.144  0.00  0.00    +0.000 A 
ATOM     10  C   UNL     1      -0.313   2.029  -2.257  0.00  0.00    +0.000 A 
ATOM     11  C   UNL     1      -1.183   1.075  -1.717  0.00  0.00    +0.000 A 
ENDROOT
BRANCH   1  13
ATOM     12  N   UNL     1       1.243  -0.682   0.559  0.00  0.00    +0.000 NA
ATOM     13  C   UNL     1       0.659   0.069  -0.472  0.00  0.00    +0.000 C 
ATOM     14  O   UNL     1       1.481   0.786  -1.161  0.00  0.00    +0.000 OA
BRANCH  12  20
ATOM     15  C   UNL     1       3.154  -1.255   1.914  0.00  0.00    +0.000 A 
ATOM     16  C   UNL     1       4.537  -1.315   2.131  0.00  0.00    +0.000 A 
ATOM     17  C   UNL     1       5.391  -0.769   1.199  0.00  0.00    +0.000 A 
ATOM     18  C   UNL     1       4.912  -0.166   0.053  0.00  0.00    +0.000 A 
ATOM     19  C   UNL     1       3.541  -0.119  -0.145  0.00  0.00    +0.000 A 
ATOM     20  C   UNL     1       2.664  -0.662   0.783  0.00  0.00    +0.000 A 
BRANCH  18  21
ATOM     21  C   UNL     1       5.869   0.416  -0.929  0.00  0.00    +0.000 C 
ATOM     22  C   UNL     1       5.219   1.272  -1.963  0.00  0.00    +0.000 C 
ATOM     23  C   UNL     1       6.943   1.175  -0.193  0.00  0.00    +0.000 C 
ATOM     24  C   UNL     1       6.607  -0.757  -1.614  0.00  0.00    +0.000 C 
ENDBRANCH  18  21
BRANCH  15  26
ATOM     25  C   UNL     1       2.836  -2.400   4.028  0.00  0.00    +0.000 C 
ATOM     26  O   UNL     1       2.291  -1.789   2.848  0.00  0.00    +0.000 OA
ENDBRANCH  15  26
ENDBRANCH  12  20
ENDBRANCH   1  13
BRANCH   3  27
ATOM     27  C   UNL     1      -3.773  -1.807  -0.120  0.00  0.00    +0.000 C 
BRANCH  27  28
ATOM     28  C   UNL     1      -4.449  -1.403   1.132  0.00  0.00    +0.000 A 
ATOM     29  C   UNL     1      -3.881  -1.554   2.354  0.00  0.00    +0.000 A 
ATOM     30  C   UNL     1      -4.465  -1.189   3.570  0.00  0.00    +0.000 A 
ATOM     31  C   UNL     1      -5.717  -0.635   3.468  0.00  0.00    +0.000 A 
ATOM     32  C   UNL     1      -6.335  -0.463   2.295  0.00  0.00    +0.000 A 
ATOM     33  C   UNL     1      -5.744  -0.832   1.066  0.00  0.00    +0.000 A 
ENDBRANCH  27  28
ENDBRANCH   3  27
TORSDOF 6
