REMARK  Name = 
REMARK  8 active torsions:
REMARK  status: ('A' for Active; 'I' for Inactive)
REMARK    1  A    between atoms: C_2  and  O_3
REMARK    2  A    between atoms: O_3  and  C_4
REMARK    3  A    between atoms: C_7  and  N_8
REMARK    4  A    between atoms: C_11  and  N_12
REMARK    5  A    between atoms: N_12  and  C_13
REMARK    6  A    between atoms: C_18  and  O_19
REMARK    7  A    between atoms: C_21  and  S_22
REMARK    8  A    between atoms: S_22  and  C_23
REMARK                            x       y       z     vdW  Elec       q    Type
REMARK                         _______ _______ _______ _____ _____    ______ ____
ROOT
ATOM      1  N   UNL     1       1.201  -0.482   0.115  0.00  0.00    +0.000 N 
ATOM      2  C   UNL     1       1.005   0.838   0.593  0.00  0.00    +0.000 C 
ATOM      3  O   UNL     1       1.931   1.650   0.817  0.00  0.00    +0.000 OA
ATOM      4  C   UNL     1      -0.393   1.090   0.775  0.00  0.00    +0.000 C 
ATOM      5  C   UNL     1      -1.087  -0.025   0.426  0.00  0.00    +0.000 C 
ATOM      6  C   UNL     1      -0.121  -1.032   0.007  0.00  0.00    +0.000 C 
ATOM      7  O   UNL     1      -0.327  -2.186  -0.387  0.00  0.00    +0.000 OA
ENDROOT
BRANCH   1  11
ATOM      8  C   UNL     1       4.971  -2.111  -0.849  0.00  0.00    +0.000 A 
ATOM      9  C   UNL     1       4.616  -0.867  -1.247  0.00  0.00    +0.000 A 
ATOM     10  C   UNL     1       3.390  -0.366  -0.922  0.00  0.00    +0.000 A 
ATOM     11  C   UNL     1       2.451  -1.085  -0.178  0.00  0.00    +0.000 A 
ATOM     12  C   UNL     1       2.813  -2.349   0.224  0.00  0.00    +0.000 A 
ATOM     13  C   UNL     1       4.071  -2.862  -0.111  0.00  0.00    +0.000 A 
BRANCH   8  14
ATOM     14  O   UNL     1       6.209  -2.665  -1.157  0.00  0.00    +0.000 OA
BRANCH  14  16
ATOM     15  C   UNL     1       6.788  -1.622  -3.268  0.00  0.00    +0.000 C 
ATOM     16  C   UNL     1       7.194  -2.013  -1.891  0.00  0.00    +0.000 C 
ENDBRANCH  14  16
ENDBRANCH   8  14
ENDBRANCH   1  11
BRANCH   4  17
ATOM     17  N   UNL     1      -0.966   2.292   1.248  0.00  0.00    +0.000 NA
BRANCH  17  18
ATOM     18  C   UNL     1      -1.051   3.444   0.424  0.00  0.00    +0.000 A 
ATOM     19  C   UNL     1      -0.574   3.416  -0.855  0.00  0.00    +0.000 A 
ATOM     20  C   UNL     1      -0.631   4.507  -1.699  0.00  0.00    +0.000 A 
ATOM     21  C   UNL     1      -1.200   5.677  -1.221  0.00  0.00    +0.000 A 
ATOM     22  C   UNL     1      -1.681   5.701   0.072  0.00  0.00    +0.000 A 
ATOM     23  C   UNL     1      -1.618   4.610   0.901  0.00  0.00    +0.000 A 
BRANCH  23  24
ATOM     24  O   UNL     1      -2.105   4.645   2.202  0.00  0.00    +0.000 OA
ATOM     25  C   UNL     1      -2.679   5.841   2.665  0.00  0.00    +0.000 C 
ENDBRANCH  23  24
ENDBRANCH  17  18
ENDBRANCH   4  17
BRANCH   5  26
ATOM     26  S   UNL     1      -2.856  -0.061   0.536  0.00  0.00    +0.000 S 
BRANCH  26  27
ATOM     27  C   UNL     1      -3.469  -1.718   0.443  0.00  0.00    +0.000 A 
ATOM     28  C   UNL     1      -4.853  -1.965   0.402  0.00  0.00    +0.000 A 
ATOM     29  C   UNL     1      -5.384  -3.233   0.367  0.00  0.00    +0.000 A 
ATOM     30  C   UNL     1      -4.576  -4.351   0.371  0.00  0.00    +0.000 A 
ATOM     31  C   UNL     1      -5.148  -5.729   0.338  0.00  0.00    +0.000 C 
ATOM     32  C   UNL     1      -3.217  -4.133   0.412  0.00  0.00    +0.000 A 
ATOM     33  C   UNL     1      -2.703  -2.855   0.446  0.00  0.00    +0.000 A 
ENDBRANCH  26  27
ENDBRANCH   5  26
TORSDOF 8
