REMARK  Name = 
REMARK  8 active torsions:
REMARK  status: ('A' for Active; 'I' for Inactive)
REMARK    1  A    between atoms: C_6  and  N_7
REMARK    2  A    between atoms: N_7  and  C_8
REMARK    3  A    between atoms: C_8  and  C_11
REMARK    4  A    between atoms: C_11  and  C_12
REMARK    5  A    between atoms: C_16  and  C_17
REMARK    6  A    between atoms: C_22  and  O_23
REMARK    7  A    between atoms: O_23  and  C_24
REMARK    8  A    between atoms: C_24  and  C_26
REMARK                            x       y       z     vdW  Elec       q    Type
REMARK                         _______ _______ _______ _____ _____    ______ ____
ROOT
ATOM      1  C   UNL     1      -0.491  -3.914  -3.427  0.00  0.00    +0.000 C 
ATOM      2  C   UNL     1      -0.796  -2.944  -2.341  0.00  0.00    +0.000 A 
ATOM      3  C   UNL     1      -2.024  -2.899  -1.727  0.00  0.00    +0.000 A 
ATOM      4  C   UNL     1      -2.229  -1.972  -0.731  0.00  0.00    +0.000 A 
ATOM      5  N   UNL     1      -1.298  -1.097  -0.311  0.00  0.00    +0.000 N 
ATOM      6  C   UNL     1      -1.276  -0.120   0.629  0.00  0.00    +0.000 A 
ATOM      7  C   UNL     1      -0.026   0.459   0.613  0.00  0.00    +0.000 A 
ATOM      8  N   UNL     1       0.684  -0.174  -0.333  0.00  0.00    +0.000 NA
ATOM      9  C   UNL     1      -0.094  -1.132  -0.904  0.00  0.00    +0.000 A 
ATOM     10  C   UNL     1       0.147  -2.045  -1.905  0.00  0.00    +0.000 A 
ENDROOT
BRANCH   7  11
ATOM     11  C   UNL     1       0.455   1.558   1.459  0.00  0.00    +0.000 A 
ATOM     12  C   UNL     1      -0.420   2.097   2.389  0.00  0.00    +0.000 A 
ATOM     13  C   UNL     1       0.038   3.117   3.169  0.00  0.00    +0.000 A 
ATOM     14  C   UNL     1       1.303   3.607   3.058  0.00  0.00    +0.000 A 
ATOM     15  C   UNL     1       2.147   3.047   2.122  0.00  0.00    +0.000 A 
ATOM     16  C   UNL     1       1.746   2.019   1.308  0.00  0.00    +0.000 A 
BRANCH  16  17
ATOM     17  O   UNL     1       2.530   1.413   0.354  0.00  0.00    +0.000 OA
BRANCH  17  18
ATOM     18  C   UNL     1       3.334   0.320   0.574  0.00  0.00    +0.000 C 
ATOM     19  O   UNL     1       3.330  -0.143   1.766  0.00  0.00    +0.000 OA
BRANCH  18  20
ATOM     20  C   UNL     1       4.153  -0.309  -0.431  0.00  0.00    +0.000 A 
ATOM     21  C   UNL     1       4.935  -1.400  -0.144  0.00  0.00    +0.000 A 
ATOM     22  C   UNL     1       5.721  -1.992  -1.138  0.00  0.00    +0.000 A 
ATOM     23  C   UNL     1       5.727  -1.496  -2.420  0.00  0.00    +0.000 A 
ATOM     24  C   UNL     1       4.946  -0.406  -2.711  0.00  0.00    +0.000 A 
ATOM     25  C   UNL     1       4.176   0.167  -1.716  0.00  0.00    +0.000 A 
ENDBRANCH  18  20
ENDBRANCH  17  18
ENDBRANCH  16  17
ENDBRANCH   7  11
BRANCH   6  26
ATOM     26  N   UNL     1      -2.313   0.262   1.482  0.00  0.00    +0.000 NA
BRANCH  26  27
ATOM     27  C   UNL     1      -3.627  -0.324   1.521  0.00  0.00    +0.000 C 
ATOM     28  C   UNL     1      -4.513   0.321   2.562  0.00  0.00    +0.000 C 
ATOM     29  C   UNL     1      -3.476  -1.785   1.888  0.00  0.00    +0.000 C 
BRANCH  27  30
ATOM     30  C   UNL     1      -4.353  -0.251   0.203  0.00  0.00    +0.000 C 
BRANCH  30  31
ATOM     31  C   UNL     1      -4.553   1.154  -0.275  0.00  0.00    +0.000 C 
ATOM     32  C   UNL     1      -5.294   1.072  -1.608  0.00  0.00    +0.000 C 
ATOM     33  C   UNL     1      -3.215   1.808  -0.557  0.00  0.00    +0.000 C 
ATOM     34  C   UNL     1      -5.376   1.980   0.681  0.00  0.00    +0.000 C 
ENDBRANCH  30  31
ENDBRANCH  27  30
ENDBRANCH  26  27
ENDBRANCH   6  26
TORSDOF 8
