REMARK  Name = 
REMARK  7 active torsions:
REMARK  status: ('A' for Active; 'I' for Inactive)
REMARK    1  A    between atoms: C_2  and  C_3
REMARK    2  A    between atoms: C_6  and  C_7
REMARK    3  A    between atoms: C_9  and  C_10
REMARK    4  A    between atoms: N_12  and  C_13
REMARK    5  A    between atoms: C_13  and  C_14
REMARK    6  A    between atoms: C_14  and  C_15
REMARK    7  A    between atoms: C_18  and  O_19
REMARK                            x       y       z     vdW  Elec       q    Type
REMARK                         _______ _______ _______ _____ _____    ______ ____
ROOT
ATOM      1  C   UNL     1      -3.079   0.099   0.570  0.00  0.00    +0.000 A 
ATOM      2  C   UNL     1      -1.814  -0.157   0.054  0.00  0.00    +0.000 A 
ATOM      3  C   UNL     1      -0.744  -0.177   0.916  0.00  0.00    +0.000 A 
ATOM      4  C   UNL     1      -0.956   0.056   2.258  0.00  0.00    +0.000 A 
ATOM      5  C   UNL     1       0.070   0.052   3.189  0.00  0.00    +0.000 A 
ATOM      6  C   UNL     1      -0.200   0.293   4.523  0.00  0.00    +0.000 A 
ATOM      7  C   UNL     1      -1.480   0.540   4.969  0.00  0.00    +0.000 A 
ATOM      8  C   UNL     1      -2.498   0.546   4.060  0.00  0.00    +0.000 A 
ATOM      9  C   UNL     1      -2.237   0.309   2.739  0.00  0.00    +0.000 A 
ATOM     10  N   UNL     1      -3.249   0.323   1.884  0.00  0.00    +0.000 NA
ENDROOT
BRANCH   1  14
ATOM     11  C   UNL     1      -6.545   0.208  -1.940  0.00  0.00    +0.000 A 
ATOM     12  C   UNL     1      -5.292  -0.047  -2.455  0.00  0.00    +0.000 A 
ATOM     13  C   UNL     1      -4.145  -0.089  -1.662  0.00  0.00    +0.000 A 
ATOM     14  C   UNL     1      -4.254   0.132  -0.306  0.00  0.00    +0.000 A 
ATOM     15  C   UNL     1      -5.491   0.386   0.219  0.00  0.00    +0.000 A 
ATOM     16  C   UNL     1      -6.639   0.427  -0.582  0.00  0.00    +0.000 A 
BRANCH  11  18
ATOM     17  C   UNL     1      -7.994   1.652  -3.316  0.00  0.00    +0.000 C 
ATOM     18  C   UNL     1      -7.762   0.248  -2.803  0.00  0.00    +0.000 C 
ENDBRANCH  11  18
ENDBRANCH   1  14
BRANCH   3  19
ATOM     19  C   UNL     1       0.602  -0.440   0.431  0.00  0.00    +0.000 C 
ATOM     20  O   UNL     1       1.367  -1.117   1.160  0.00  0.00    +0.000 OA
ATOM     21  N   UNL     1       1.114   0.014  -0.812  0.00  0.00    +0.000 NA
BRANCH  21  22
ATOM     22  C   UNL     1       2.463  -0.265  -1.268  0.00  0.00    +0.000 C 
BRANCH  22  23
ATOM     23  C   UNL     1       3.429   0.337  -0.239  0.00  0.00    +0.000 C 
BRANCH  23  24
ATOM     24  C   UNL     1       4.832   0.098  -0.625  0.00  0.00    +0.000 A 
ATOM     25  C   UNL     1       5.453  -1.047  -0.185  0.00  0.00    +0.000 A 
ATOM     26  C   UNL     1       6.786  -1.287  -0.545  0.00  0.00    +0.000 A 
ATOM     27  C   UNL     1       7.487  -0.404  -1.327  0.00  0.00    +0.000 A 
ATOM     28  C   UNL     1       6.868   0.737  -1.766  0.00  0.00    +0.000 A 
ATOM     29  C   UNL     1       5.558   0.961  -1.407  0.00  0.00    +0.000 A 
BRANCH  27  30
ATOM     30  O   UNL     1       8.802  -0.631  -1.688  0.00  0.00    +0.000 OA
ATOM     31  C   UNL     1       9.549  -1.757  -1.306  0.00  0.00    +0.000 C 
ENDBRANCH  27  30
ENDBRANCH  23  24
ENDBRANCH  22  23
ENDBRANCH  21  22
ENDBRANCH   3  19
TORSDOF 7
