REMARK  Name = 
REMARK  7 active torsions:
REMARK  status: ('A' for Active; 'I' for Inactive)
REMARK    1  A    between atoms: O_2  and  C_3
REMARK    2  A    between atoms: C_9  and  C_10
REMARK    3  A    between atoms: N_13  and  C_14
REMARK    4  A    between atoms: C_14  and  C_15
REMARK    5  A    between atoms: C_15  and  C_17
REMARK    6  A    between atoms: C_17  and  O_18
REMARK    7  A    between atoms: O_18  and  C_19
REMARK                            x       y       z     vdW  Elec       q    Type
REMARK                         _______ _______ _______ _____ _____    ______ ____
ROOT
ATOM      1  C   UNL     1       1.764  -0.356  -0.660  0.00  0.00    +0.000 C 
ATOM      2  C   UNL     1       1.703  -0.336  -2.137  0.00  0.00    +0.000 C 
ATOM      3  C   UNL     1       0.575   0.533  -2.615  0.00  0.00    +0.000 C 
ATOM      4  N   UNL     1      -0.641   0.010  -1.956  0.00  0.00    +0.000 NA
ATOM      5  C   UNL     1      -0.568   0.640  -0.621  0.00  0.00    +0.000 C 
ATOM      6  C   UNL     1       0.551  -0.049   0.106  0.00  0.00    +0.000 C 
ENDROOT
BRANCH   1  13
ATOM      7  C   UNL     1       6.480  -0.336   0.839  0.00  0.00    +0.000 A 
ATOM      8  C   UNL     1       7.508   0.436   1.236  0.00  0.00    +0.000 A 
ATOM      9  C   UNL     1       7.445   1.795   1.348  0.00  0.00    +0.000 A 
ATOM     10  C   UNL     1       6.224   2.375   1.020  0.00  0.00    +0.000 A 
ATOM     11  C   UNL     1       5.151   1.577   0.606  0.00  0.00    +0.000 A 
ATOM     12  S   UNL     1       3.520   1.864   0.119  0.00  0.00    +0.000 S 
ATOM     13  C   UNL     1       3.026   0.265  -0.192  0.00  0.00    +0.000 A 
ATOM     14  C   UNL     1       4.147  -0.442   0.094  0.00  0.00    +0.000 A 
ATOM     15  C   UNL     1       5.240   0.219   0.503  0.00  0.00    +0.000 A 
BRANCH   7  17
ATOM     16  C   UNL     1       7.889  -2.335   1.089  0.00  0.00    +0.000 C 
ATOM     17  O   UNL     1       6.659  -1.725   0.761  0.00  0.00    +0.000 OA
ENDBRANCH   7  17
ENDBRANCH   1  13
BRANCH   4  18
ATOM     18  C   UNL     1      -0.452  -1.381  -1.802  0.00  0.00    +0.000 C 
BRANCH  18  19
ATOM     19  C   UNL     1      -1.860  -2.069  -1.288  0.00  0.00    +0.000 C 
ATOM     20  O   UNL     1      -2.659  -1.615  -2.555  0.00  0.00    +0.000 OA
BRANCH  19  21
ATOM     21  C   UNL     1      -2.378  -0.757  -0.416  0.00  0.00    +0.000 C 
BRANCH  21  22
ATOM     22  O   UNL     1      -3.776  -0.988  -0.469  0.00  0.00    +0.000 OA
BRANCH  22  23
ATOM     23  C   UNL     1      -4.614  -0.093   0.144  0.00  0.00    +0.000 A 
ATOM     24  C   UNL     1      -4.071   0.991   0.782  0.00  0.00    +0.000 A 
ATOM     25  C   UNL     1      -4.905   1.910   1.408  0.00  0.00    +0.000 A 
ATOM     26  C   UNL     1      -6.272   1.696   1.365  0.00  0.00    +0.000 A 
ATOM     27  C   UNL     1      -6.830   0.610   0.727  0.00  0.00    +0.000 A 
ATOM     28  N   UNL     1      -8.081   0.138   0.516  0.00  0.00    +0.000 NA
ATOM     29  C   UNL     1      -8.065  -0.994  -0.189  0.00  0.00    +0.000 A 
ATOM     30  C   UNL     1      -6.743  -1.296  -0.463  0.00  0.00    +0.000 A 
ATOM     31  C   UNL     1      -5.966  -0.286   0.113  0.00  0.00    +0.000 A 
ENDBRANCH  22  23
ENDBRANCH  21  22
ENDBRANCH  19  21
ENDBRANCH  18  19
ENDBRANCH   4  18
TORSDOF 7
