REMARK  Name = 
REMARK  7 active torsions:
REMARK  status: ('A' for Active; 'I' for Inactive)
REMARK    1  A    between atoms: C_2  and  N_3
REMARK    2  A    between atoms: C_2  and  C_26
REMARK    3  A    between atoms: C_4  and  C_6
REMARK    4  A    between atoms: C_11  and  O_12
REMARK    5  A    between atoms: O_12  and  C_13
REMARK    6  A    between atoms: C_13  and  C_14
REMARK    7  A    between atoms: C_14  and  C_16
REMARK                            x       y       z     vdW  Elec       q    Type
REMARK                         _______ _______ _______ _____ _____    ______ ____
ROOT
ATOM      1  C   UNL     1      -1.999  -1.836  -0.284  0.00  0.00    +0.000 A 
ATOM      2  C   UNL     1      -2.245  -3.198  -0.141  0.00  0.00    +0.000 A 
ATOM      3  C   UNL     1      -1.283  -3.972   0.477  0.00  0.00    +0.000 A 
ATOM      4  C   UNL     1      -0.101  -3.446   0.951  0.00  0.00    +0.000 A 
ATOM      5  C   UNL     1       0.116  -2.094   0.796  0.00  0.00    +0.000 A 
ATOM      6  C   UNL     1      -0.830  -1.279   0.178  0.00  0.00    +0.000 A 
ENDROOT
BRANCH   1   8
ATOM      7  N   UNL     1      -2.749   0.442  -1.083  0.00  0.00    +0.000 NA
ATOM      8  C   UNL     1      -2.979  -0.953  -0.929  0.00  0.00    +0.000 C 
ATOM      9  O   UNL     1      -4.063  -1.435  -1.366  0.00  0.00    +0.000 OA
BRANCH   7  11
ATOM     10  C   UNL     1      -3.491   2.682  -1.145  0.00  0.00    +0.000 C 
ATOM     11  C   UNL     1      -3.931   1.222  -1.809  0.00  0.00    +0.000 C 
BRANCH  11  12
ATOM     12  C   UNL     1      -5.024   0.903  -0.694  0.00  0.00    +0.000 A 
ATOM     13  C   UNL     1      -4.725   1.043   0.608  0.00  0.00    +0.000 A 
ATOM     14  C   UNL     1      -5.681   0.760   1.560  0.00  0.00    +0.000 A 
ATOM     15  C   UNL     1      -6.943   0.336   1.203  0.00  0.00    +0.000 A 
ATOM     16  C   UNL     1      -7.210   0.206  -0.141  0.00  0.00    +0.000 A 
ATOM     17  C   UNL     1      -6.246   0.491  -1.085  0.00  0.00    +0.000 A 
ENDBRANCH  11  12
ENDBRANCH   7  11
ENDBRANCH   1   8
BRANCH   6  18
ATOM     18  O   UNL     1      -0.659   0.084  -0.001  0.00  0.00    +0.000 OA
BRANCH  18  19
ATOM     19  C   UNL     1       0.540   0.659   0.467  0.00  0.00    +0.000 C 
BRANCH  19  20
ATOM     20  C   UNL     1       1.736   0.107  -0.181  0.00  0.00    +0.000 C 
ATOM     21  O   UNL     1       1.574  -0.760  -1.078  0.00  0.00    +0.000 OA
BRANCH  20  22
ATOM     22  C   UNL     1       3.091   0.518   0.168  0.00  0.00    +0.000 A 
ATOM     23  C   UNL     1       3.337   1.460   1.138  0.00  0.00    +0.000 A 
ATOM     24  C   UNL     1       4.625   1.839   1.460  0.00  0.00    +0.000 A 
ATOM     25  C   UNL     1       5.723   1.291   0.824  0.00  0.00    +0.000 A 
ATOM     26  C   UNL     1       5.499   0.346  -0.151  0.00  0.00    +0.000 A 
ATOM     27  C   UNL     1       4.183  -0.023  -0.460  0.00  0.00    +0.000 A 
ATOM     28  C   UNL     1       6.606  -0.310  -0.898  0.00  0.00    +0.000 C 
ATOM     29  C   UNL     1       7.952   0.224  -0.526  0.00  0.00    +0.000 C 
ATOM     30  C   UNL     1       8.058   0.562   0.950  0.00  0.00    +0.000 C 
ATOM     31  C   UNL     1       7.118   1.721   1.193  0.00  0.00    +0.000 C 
ENDBRANCH  20  22
ENDBRANCH  19  20
ENDBRANCH  18  19
ENDBRANCH   6  18
TORSDOF 7
