REMARK  Name = 
REMARK  6 active torsions:
REMARK  status: ('A' for Active; 'I' for Inactive)
REMARK    1  A    between atoms: C_2  and  O_3
REMARK    2  A    between atoms: O_3  and  C_4
REMARK    3  A    between atoms: C_8  and  C_9
REMARK    4  A    between atoms: C_19  and  O_20
REMARK    5  A    between atoms: O_20  and  C_21
REMARK    6  A    between atoms: C_21  and  C_22
REMARK                            x       y       z     vdW  Elec       q    Type
REMARK                         _______ _______ _______ _____ _____    ______ ____
ROOT
ATOM      1  C   UNL     1       2.889   1.484  -1.656  0.00  0.00    +0.000 C 
ATOM      2  N   UNL     1       3.166   2.594  -0.540  0.00  0.00    +0.000 NA
ATOM      3  C   UNL     1       3.100   2.015   0.715  0.00  0.00    +0.000 C 
ATOM      4  C   UNL     1       1.660   1.897   1.146  0.00  0.00    +0.000 C 
ATOM      5  C   UNL     1       0.885   1.538  -0.071  0.00  0.00    +0.000 A 
ATOM      6  C   UNL     1       1.319   1.344  -1.294  0.00  0.00    +0.000 A 
ATOM      7  N   UNL     1       0.337   1.036  -2.134  0.00  0.00    +0.000 NA
ATOM      8  C   UNL     1      -0.801   1.030  -1.415  0.00  0.00    +0.000 A 
ATOM      9  C   UNL     1      -2.122   0.784  -1.727  0.00  0.00    +0.000 A 
ATOM     10  C   UNL     1      -3.108   0.846  -0.778  0.00  0.00    +0.000 A 
ATOM     11  C   UNL     1      -2.827   1.158   0.539  0.00  0.00    +0.000 A 
ATOM     12  C   UNL     1      -1.494   1.404   0.849  0.00  0.00    +0.000 A 
ATOM     13  C   UNL     1      -0.494   1.342  -0.111  0.00  0.00    +0.000 A 
ENDROOT
BRANCH   1  18
ATOM     14  C   UNL     1       4.966  -0.891   0.543  0.00  0.00    +0.000 A 
ATOM     15  C   UNL     1       4.196  -2.021   0.484  0.00  0.00    +0.000 A 
ATOM     16  C   UNL     1       3.021  -2.093  -0.227  0.00  0.00    +0.000 A 
ATOM     17  C   UNL     1       2.629  -0.927  -0.913  0.00  0.00    +0.000 A 
ATOM     18  C   UNL     1       3.386   0.202  -0.861  0.00  0.00    +0.000 A 
ATOM     19  C   UNL     1       4.535   0.242  -0.154  0.00  0.00    +0.000 A 
BRANCH  14  20
ATOM     20  O   UNL     1       6.166  -0.839   1.279  0.00  0.00    +0.000 OA
BRANCH  20  22
ATOM     21  C   UNL     1       5.570  -2.418   3.018  0.00  0.00    +0.000 C 
ATOM     22  C   UNL     1       6.591  -1.976   1.973  0.00  0.00    +0.000 C 
ENDBRANCH  20  22
ENDBRANCH  14  20
ENDBRANCH   1  18
BRANCH  11  23
ATOM     23  O   UNL     1      -3.817   1.221   1.494  0.00  0.00    +0.000 OA
BRANCH  23  24
ATOM     24  C   UNL     1      -5.178   0.990   1.282  0.00  0.00    +0.000 C 
BRANCH  24  25
ATOM     25  C   UNL     1      -5.476  -0.369   0.776  0.00  0.00    +0.000 A 
ATOM     26  C   UNL     1      -5.671  -1.445   1.637  0.00  0.00    +0.000 A 
ATOM     27  C   UNL     1      -5.950  -2.700   1.141  0.00  0.00    +0.000 A 
ATOM     28  C   UNL     1      -6.048  -2.944  -0.216  0.00  0.00    +0.000 A 
ATOM     29  C   UNL     1      -5.856  -1.883  -1.060  0.00  0.00    +0.000 A 
ATOM     30  C   UNL     1      -5.576  -0.624  -0.562  0.00  0.00    +0.000 A 
ENDBRANCH  24  25
ENDBRANCH  23  24
ENDBRANCH  11  23
TORSDOF 6
