REMARK  Name = 
REMARK  6 active torsions:
REMARK  status: ('A' for Active; 'I' for Inactive)
REMARK    1  A    between atoms: O_2  and  C_3
REMARK    2  A    between atoms: C_6  and  C_7
REMARK    3  A    between atoms: C_7  and  N_8
REMARK    4  A    between atoms: C_11  and  C_12
REMARK    5  A    between atoms: C_12  and  O_14
REMARK    6  A    between atoms: O_14  and  C_15
REMARK                            x       y       z     vdW  Elec       q    Type
REMARK                         _______ _______ _______ _____ _____    ______ ____
ROOT
ATOM      1  N   UNL     1       0.748  -0.035   1.453  0.00  0.00    +0.000 N 
ATOM      2  C   UNL     1      -0.466  -0.538   1.271  0.00  0.00    +0.000 A 
ATOM      3  N   UNL     1      -0.889  -1.812   1.736  0.00  0.00    +0.000 NA
ATOM      4  C   UNL     1      -1.268   0.338   0.570  0.00  0.00    +0.000 A 
ATOM      5  C   UNL     1      -0.482   1.439   0.315  0.00  0.00    +0.000 A 
ATOM      6  N   UNL     1      -0.714   2.603  -0.326  0.00  0.00    +0.000 NA
ATOM      7  C   UNL     1       0.279   3.529  -0.424  0.00  0.00    +0.000 A 
ATOM      8  C   UNL     1       0.077   4.730  -1.072  0.00  0.00    +0.000 A 
ATOM      9  C   UNL     1       1.081   5.677  -1.177  0.00  0.00    +0.000 A 
ATOM     10  C   UNL     1       2.332   5.448  -0.630  0.00  0.00    +0.000 A 
ATOM     11  C   UNL     1       2.525   4.245   0.016  0.00  0.00    +0.000 A 
ATOM     12  C   UNL     1       1.525   3.302   0.120  0.00  0.00    +0.000 A 
ATOM     13  N   UNL     1       1.712   2.121   0.753  0.00  0.00    +0.000 NA
ATOM     14  C   UNL     1       0.766   1.188   0.871  0.00  0.00    +0.000 A 
ENDROOT
BRANCH   4  15
ATOM     15  C   UNL     1      -2.673   0.139   0.175  0.00  0.00    +0.000 C 
ATOM     16  O   UNL     1      -3.252   1.051  -0.466  0.00  0.00    +0.000 OA
BRANCH  15  17
ATOM     17  O   UNL     1      -3.372  -0.996   0.476  0.00  0.00    +0.000 OA
BRANCH  17  18
ATOM     18  C   UNL     1      -4.716  -1.230   0.120  0.00  0.00    +0.000 C 
ATOM     19  C   UNL     1      -5.224  -2.553   0.579  0.00  0.00    +0.000 C 
ATOM     20  C   UNL     1      -6.589  -2.779  -0.080  0.00  0.00    +0.000 C 
ATOM     21  C   UNL     1      -6.391  -3.004  -1.570  0.00  0.00    +0.000 C 
ATOM     22  C   UNL     1      -5.095  -2.326  -2.019  0.00  0.00    +0.000 C 
ATOM     23  C   UNL     1      -5.001  -0.974  -1.331  0.00  0.00    +0.000 C 
ENDBRANCH  17  18
ENDBRANCH  15  17
ENDBRANCH   4  15
BRANCH   1  24
ATOM     24  C   UNL     1       1.875  -0.635   2.135  0.00  0.00    +0.000 C 
BRANCH  24  28
ATOM     25  C   UNL     1       4.442  -2.812  -0.503  0.00  0.00    +0.000 A 
ATOM     26  C   UNL     1       4.623  -1.467  -0.256  0.00  0.00    +0.000 A 
ATOM     27  C   UNL     1       3.774  -0.793   0.604  0.00  0.00    +0.000 A 
ATOM     28  C   UNL     1       2.725  -1.430   1.241  0.00  0.00    +0.000 A 
ATOM     29  C   UNL     1       2.556  -2.766   0.987  0.00  0.00    +0.000 A 
ATOM     30  C   UNL     1       3.408  -3.443   0.124  0.00  0.00    +0.000 A 
BRANCH  25  32
ATOM     31  C   UNL     1       6.369  -2.753  -1.994  0.00  0.00    +0.000 C 
ATOM     32  O   UNL     1       5.316  -3.463  -1.375  0.00  0.00    +0.000 OA
ENDBRANCH  25  32
ENDBRANCH  24  28
ENDBRANCH   1  24
TORSDOF 6
