REMARK  Name = 
REMARK  8 active torsions:
REMARK  status: ('A' for Active; 'I' for Inactive)
REMARK    1  A    between atoms: C_2  and  C_3
REMARK    2  A    between atoms: C_6  and  N_7
REMARK    3  A    between atoms: N_7  and  C_8
REMARK    4  A    between atoms: C_9  and  S_10
REMARK    5  A    between atoms: S_10  and  C_11
REMARK    6  A    between atoms: N_19  and  C_20
REMARK    7  A    between atoms: C_20  and  C_21
REMARK    8  A    between atoms: C_21  and  C_22
REMARK                            x       y       z     vdW  Elec       q    Type
REMARK                         _______ _______ _______ _____ _____    ______ ____
ROOT
ATOM      1  C   UNL     1      -1.069   0.274   0.743  0.00  0.00    +0.000 C 
ATOM      2  C   UNL     1      -0.368   1.372   0.406  0.00  0.00    +0.000 C 
ATOM      3  C   UNL     1       0.892   0.969  -0.201  0.00  0.00    +0.000 C 
ATOM      4  O   UNL     1       1.820   1.721  -0.647  0.00  0.00    +0.000 OA
ATOM      5  N   UNL     1       0.948  -0.452  -0.228  0.00  0.00    +0.000 N 
ATOM      6  C   UNL     1      -0.273  -0.885   0.360  0.00  0.00    +0.000 C 
ATOM      7  O   UNL     1      -0.638  -2.070   0.535  0.00  0.00    +0.000 OA
ENDROOT
BRANCH   1   8
ATOM      8  N   UNL     1      -2.342   0.313   1.356  0.00  0.00    +0.000 NA
BRANCH   8  12
ATOM      9  C   UNL     1      -5.697  -1.960   0.238  0.00  0.00    +0.000 A 
ATOM     10  C   UNL     1      -4.508  -2.086  -0.436  0.00  0.00    +0.000 A 
ATOM     11  C   UNL     1      -3.381  -1.363  -0.108  0.00  0.00    +0.000 A 
ATOM     12  C   UNL     1      -3.438  -0.481   0.931  0.00  0.00    +0.000 A 
ATOM     13  C   UNL     1      -4.623  -0.337   1.624  0.00  0.00    +0.000 A 
ATOM     14  C   UNL     1      -5.737  -1.064   1.285  0.00  0.00    +0.000 A 
BRANCH   9  16
ATOM     15  C   UNL     1      -7.730  -2.050  -1.192  0.00  0.00    +0.000 C 
ATOM     16  C   UNL     1      -6.889  -2.766  -0.158  0.00  0.00    +0.000 C 
ENDBRANCH   9  16
ENDBRANCH   8  12
ENDBRANCH   1   8
BRANCH   2  17
ATOM     17  S   UNL     1      -0.878   3.064   0.651  0.00  0.00    +0.000 S 
BRANCH  17  18
ATOM     18  C   UNL     1       0.384   4.140   0.044  0.00  0.00    +0.000 A 
ATOM     19  C   UNL     1       1.406   4.580   0.846  0.00  0.00    +0.000 A 
ATOM     20  C   UNL     1       2.390   5.426   0.352  0.00  0.00    +0.000 A 
ATOM     21  C   UNL     1       2.359   5.840  -0.957  0.00  0.00    +0.000 A 
ATOM     22  C   UNL     1       1.340   5.407  -1.771  0.00  0.00    +0.000 A 
ATOM     23  C   UNL     1       0.352   4.554  -1.266  0.00  0.00    +0.000 A 
ENDBRANCH  17  18
ENDBRANCH   2  17
BRANCH   5  24
ATOM     24  C   UNL     1       2.018  -1.290  -0.743  0.00  0.00    +0.000 C 
BRANCH  24  25
ATOM     25  C   UNL     1       2.991  -1.568   0.373  0.00  0.00    +0.000 C 
BRANCH  25  26
ATOM     26  C   UNL     1       4.107  -2.422  -0.100  0.00  0.00    +0.000 A 
ATOM     27  C   UNL     1       3.962  -3.791  -0.002  0.00  0.00    +0.000 A 
ATOM     28  C   UNL     1       4.991  -4.595  -0.439  0.00  0.00    +0.000 A 
ATOM     29  C   UNL     1       6.125  -4.008  -0.955  0.00  0.00    +0.000 A 
ATOM     30  C   UNL     1       6.256  -2.640  -1.046  0.00  0.00    +0.000 A 
ATOM     31  C   UNL     1       5.231  -1.829  -0.612  0.00  0.00    +0.000 A 
ENDBRANCH  25  26
ENDBRANCH  24  25
ENDBRANCH   5  24
TORSDOF 8
