REMARK  Name = 
REMARK  5 active torsions:
REMARK  status: ('A' for Active; 'I' for Inactive)
REMARK    1  A    between atoms: O_2  and  C_3
REMARK    2  A    between atoms: C_6  and  C_7
REMARK    3  A    between atoms: C_11  and  C_12
REMARK    4  A    between atoms: N_15  and  C_16
REMARK    5  A    between atoms: C_16  and  C_18
REMARK                            x       y       z     vdW  Elec       q    Type
REMARK                         _______ _______ _______ _____ _____    ______ ____
ROOT
ATOM      1  C   UNL     1       0.210   0.245   0.113  0.00  0.00    +0.000 A 
ATOM      2  C   UNL     1       1.551   0.192  -0.212  0.00  0.00    +0.000 A 
ATOM      3  C   UNL     1       2.543   0.480   0.702  0.00  0.00    +0.000 A 
ATOM      4  N   UNL     1       3.873   0.382   0.221  0.00  0.00    +0.000 NA
ATOM      5  N   UNL     1       2.185   0.821   1.938  0.00  0.00    +0.000 NA
ATOM      6  C   UNL     1       0.872   0.878   2.271  0.00  0.00    +0.000 A 
ATOM      7  C   UNL     1       0.559   1.266   3.668  0.00  0.00    +0.000 C 
ATOM      8  N   UNL     1      -0.108   0.593   1.369  0.00  0.00    +0.000 NA
ENDROOT
BRANCH   1  13
ATOM      9  C   UNL     1      -3.131  -0.298  -1.471  0.00  0.00    +0.000 A 
ATOM     10  C   UNL     1      -2.767  -0.652  -2.747  0.00  0.00    +0.000 A 
ATOM     11  N   UNL     1      -1.474  -0.708  -3.066  0.00  0.00    +0.000 NA
ATOM     12  C   UNL     1      -0.513  -0.426  -2.167  0.00  0.00    +0.000 A 
ATOM     13  C   UNL     1      -0.837  -0.066  -0.876  0.00  0.00    +0.000 A 
ATOM     14  C   UNL     1      -2.164  -0.009  -0.550  0.00  0.00    +0.000 A 
BRANCH   9  18
ATOM     15  C   UNL     1      -7.269  -0.040  -0.335  0.00  0.00    +0.000 A 
ATOM     16  C   UNL     1      -6.299  -0.396   0.580  0.00  0.00    +0.000 A 
ATOM     17  C   UNL     1      -4.968  -0.482   0.226  0.00  0.00    +0.000 A 
ATOM     18  C   UNL     1      -4.539  -0.217  -1.058  0.00  0.00    +0.000 A 
ATOM     19  C   UNL     1      -5.512   0.139  -1.974  0.00  0.00    +0.000 A 
ATOM     20  C   UNL     1      -6.843   0.225  -1.618  0.00  0.00    +0.000 A 
BRANCH  15  22
ATOM     21  C   UNL     1      -9.025  -0.230   1.346  0.00  0.00    +0.000 C 
ATOM     22  O   UNL     1      -8.613   0.047   0.021  0.00  0.00    +0.000 OA
ENDBRANCH  15  22
ENDBRANCH   9  18
ENDBRANCH   1  13
BRANCH   4  23
ATOM     23  C   UNL     1       4.987   0.722   1.306  0.00  0.00    +0.000 C 
ATOM     24  C   UNL     1       4.514  -0.494   2.348  0.00  0.00    +0.000 C 
BRANCH  23  25
ATOM     25  C   UNL     1       6.135  -0.151   0.587  0.00  0.00    +0.000 A 
ATOM     26  C   UNL     1       5.886  -1.373   0.134  0.00  0.00    +0.000 A 
ATOM     27  C   UNL     1       6.872  -2.108  -0.477  0.00  0.00    +0.000 A 
ATOM     28  C   UNL     1       8.120  -1.556  -0.611  0.00  0.00    +0.000 A 
ATOM     29  C   UNL     1       8.392  -0.283  -0.141  0.00  0.00    +0.000 A 
ATOM     30  C   UNL     1       7.361   0.436   0.476  0.00  0.00    +0.000 A 
ENDBRANCH  23  25
ENDBRANCH   4  23
TORSDOF 5
