REMARK  Name = 
REMARK  8 active torsions:
REMARK  status: ('A' for Active; 'I' for Inactive)
REMARK    1  A    between atoms: O_2  and  C_3
REMARK    2  A    between atoms: C_3  and  C_4
REMARK    3  A    between atoms: C_4  and  C_5
REMARK    4  A    between atoms: C_5  and  N_6
REMARK    5  A    between atoms: N_6  and  C_7
REMARK    6  A    between atoms: C_9  and  C_10
REMARK    7  A    between atoms: C_14  and  C_15
REMARK    8  A    between atoms: C_24  and  C_25
REMARK                            x       y       z     vdW  Elec       q    Type
REMARK                         _______ _______ _______ _____ _____    ______ ____
ROOT
ATOM      1  C   UNL     1       2.862   0.513  -0.113  0.00  0.00    +0.000 A 
ATOM      2  C   UNL     1       1.696   1.223   0.093  0.00  0.00    +0.000 A 
ATOM      3  C   UNL     1       0.482   0.577  -0.001  0.00  0.00    +0.000 A 
ATOM      4  N   UNL     1       0.447  -0.734  -0.292  0.00  0.00    +0.000 NA
ATOM      5  C   UNL     1       1.572  -1.413  -0.489  0.00  0.00    +0.000 A 
ATOM      6  N   UNL     1       2.761  -0.779  -0.396  0.00  0.00    +0.000 NA
ENDROOT
BRANCH   3   7
ATOM      7  C   UNL     1      -0.777   1.268   0.204  0.00  0.00    +0.000 A 
ATOM      8  C   UNL     1      -0.734   2.624   0.500  0.00  0.00    +0.000 A 
ATOM      9  N   UNL     1      -1.880   3.300   0.698  0.00  0.00    +0.000 NA
ATOM     10  C   UNL     1      -3.054   2.658   0.608  0.00  0.00    +0.000 A 
ATOM     11  C   UNL     1      -3.140   1.305   0.315  0.00  0.00    +0.000 A 
ATOM     12  C   UNL     1      -1.984   0.611   0.113  0.00  0.00    +0.000 A 
BRANCH  11  13
ATOM     13  C   UNL     1      -4.467   0.705   0.242  0.00  0.00    +0.000 A 
ATOM     14  C   UNL     1      -5.527   1.139   1.011  0.00  0.00    +0.000 A 
ATOM     15  C   UNL     1      -6.779   0.566   0.937  0.00  0.00    +0.000 A 
ATOM     16  C   UNL     1      -7.031  -0.484   0.076  0.00  0.00    +0.000 A 
ATOM     17  C   UNL     1      -8.379  -1.119  -0.019  0.00  0.00    +0.000 C 
ATOM     18  C   UNL     1      -5.980  -0.929  -0.699  0.00  0.00    +0.000 A 
ATOM     19  C   UNL     1      -4.727  -0.350  -0.620  0.00  0.00    +0.000 A 
ENDBRANCH  11  13
ENDBRANCH   3   7
BRANCH   5  20
ATOM     20  C   UNL     1       1.516  -2.851  -0.807  0.00  0.00    +0.000 A 
ATOM     21  C   UNL     1       2.678  -3.564  -1.012  0.00  0.00    +0.000 A 
ATOM     22  C   UNL     1       2.597  -4.904  -1.308  0.00  0.00    +0.000 A 
ATOM     23  C   UNL     1       1.387  -5.535  -1.401  0.00  0.00    +0.000 A 
ATOM     24  C   UNL     1       0.246  -4.816  -1.195  0.00  0.00    +0.000 A 
ATOM     25  C   UNL     1       0.313  -3.482  -0.900  0.00  0.00    +0.000 A 
ENDBRANCH   5  20
BRANCH   1  26
ATOM     26  N   UNL     1       4.097   1.198  -0.010  0.00  0.00    +0.000 NA
BRANCH  26  27
ATOM     27  C   UNL     1       5.384   0.590  -0.200  0.00  0.00    +0.000 C 
BRANCH  27  28
ATOM     28  C   UNL     1       6.421   1.703   0.012  0.00  0.00    +0.000 C 
BRANCH  28  29
ATOM     29  C   UNL     1       6.103   2.761  -1.042  0.00  0.00    +0.000 C 
BRANCH  29  31
ATOM     30  C   UNL     1       6.903   4.402   0.336  0.00  0.00    +0.000 C 
ATOM     31  O   UNL     1       6.996   3.819  -0.930  0.00  0.00    +0.000 OA
ENDBRANCH  29  31
ENDBRANCH  28  29
ENDBRANCH  27  28
ENDBRANCH  26  27
ENDBRANCH   1  26
TORSDOF 8
