REMARK  Name = 
REMARK  11 active torsions:
REMARK  status: ('A' for Active; 'I' for Inactive)
REMARK    1  A    between atoms: C_2  and  C_3
REMARK    2  A    between atoms: C_3  and  C_4
REMARK    3  A    between atoms: C_4  and  C_5
REMARK    4  A    between atoms: C_5  and  C_6
REMARK    5  A    between atoms: C_6  and  C_7
REMARK    6  A    between atoms: C_8  and  C_9
REMARK    7  A    between atoms: N_11  and  C_12
REMARK    8  A    between atoms: C_12  and  C_13
REMARK    9  A    between atoms: C_18  and  O_19
REMARK   10  A    between atoms: C_21  and  C_22
REMARK   11  A    between atoms: C_25  and  C_26
REMARK                            x       y       z     vdW  Elec       q    Type
REMARK                         _______ _______ _______ _____ _____    ______ ____
ROOT
ATOM      1  C   UNL     1       0.452   2.866   0.557  0.00  0.00    +0.000 C 
ATOM      2  C   UNL     1       0.459   1.611   0.868  0.00  0.00    +0.000 C 
ATOM      3  C   UNL     1      -0.530   1.491   2.139  0.00  0.00    +0.000 C 
ATOM      4  O   UNL     1      -1.445   2.645   1.717  0.00  0.00    +0.000 OA
ATOM      5  N   UNL     1      -0.468   3.531   1.427  0.00  0.00    +0.000 NA
ENDROOT
BRANCH   3   6
ATOM      6  C   UNL     1      -1.422   0.289   1.581  0.00  0.00    +0.000 A 
ATOM      7  C   UNL     1      -2.011   0.256   0.402  0.00  0.00    +0.000 A 
ATOM      8  C   UNL     1      -2.771  -0.825  -0.008  0.00  0.00    +0.000 A 
ATOM      9  C   UNL     1      -2.942  -1.917   0.807  0.00  0.00    +0.000 A 
ATOM     10  C   UNL     1      -2.329  -1.890   2.042  0.00  0.00    +0.000 A 
ATOM     11  C   UNL     1      -1.558  -0.774   2.436  0.00  0.00    +0.000 A 
BRANCH   9  12
ATOM     12  C   UNL     1      -3.748  -3.067   0.380  0.00  0.00    +0.000 A 
ATOM     13  C   UNL     1      -3.767  -3.365  -0.960  0.00  0.00    +0.000 A 
ATOM     14  C   UNL     1      -4.511  -4.444  -1.455  0.00  0.00    +0.000 A 
ATOM     15  C   UNL     1      -5.220  -5.196  -0.568  0.00  0.00    +0.000 A 
ATOM     16  C   UNL     1      -5.232  -4.938   0.776  0.00  0.00    +0.000 A 
ATOM     17  C   UNL     1      -4.482  -3.859   1.224  0.00  0.00    +0.000 A 
ENDBRANCH   9  12
ENDBRANCH   3   6
BRANCH   2  18
ATOM     18  C   UNL     1       1.153   0.462   0.354  0.00  0.00    +0.000 C 
ATOM     19  O   UNL     1       1.024  -0.699   0.800  0.00  0.00    +0.000 OA
ATOM     20  N   UNL     1       2.044   0.670  -0.734  0.00  0.00    +0.000 NA
BRANCH  20  21
ATOM     21  C   UNL     1       2.824  -0.340  -1.379  0.00  0.00    +0.000 C 
BRANCH  21  22
ATOM     22  C   UNL     1       3.745  -0.947  -0.406  0.00  0.00    +0.000 A 
ATOM     23  C   UNL     1       3.761  -0.510   0.902  0.00  0.00    +0.000 A 
ATOM     24  C   UNL     1       4.631  -1.086   1.797  0.00  0.00    +0.000 A 
ATOM     25  C   UNL     1       5.479  -2.091   1.387  0.00  0.00    +0.000 A 
ATOM     26  C   UNL     1       5.444  -2.507   0.085  0.00  0.00    +0.000 A 
ATOM     27  C   UNL     1       4.587  -1.953  -0.837  0.00  0.00    +0.000 A 
BRANCH  27  28
ATOM     28  O   UNL     1       4.518  -2.340  -2.154  0.00  0.00    +0.000 OA
ATOM     29  C   UNL     1       5.374  -3.368  -2.605  0.00  0.00    +0.000 C 
ENDBRANCH  27  28
ENDBRANCH  21  22
ENDBRANCH  20  21
ENDBRANCH   2  18
BRANCH   1  30
ATOM     30  C   UNL     1       1.254   3.462  -0.518  0.00  0.00    +0.000 C 
BRANCH  30  31
ATOM     31  C   UNL     1       0.340   4.085  -1.542  0.00  0.00    +0.000 C 
BRANCH  31  32
ATOM     32  C   UNL     1      -0.479   5.148  -0.860  0.00  0.00    +0.000 C 
BRANCH  32  33
ATOM     33  C   UNL     1      -1.434   5.846  -1.767  0.00  0.00    +0.000 C 
BRANCH  33  35
ATOM     34  C   UNL     1      -1.929   7.198  -3.725  0.00  0.00    +0.000 C 
ATOM     35  C   UNL     1      -0.810   6.553  -2.919  0.00  0.00    +0.000 C 
ENDBRANCH  33  35
ENDBRANCH  32  33
ENDBRANCH  31  32
ENDBRANCH  30  31
ENDBRANCH   1  30
TORSDOF 11
