REMARK  Name = 
REMARK  8 active torsions:
REMARK  status: ('A' for Active; 'I' for Inactive)
REMARK    1  A    between atoms: C_2  and  O_3
REMARK    2  A    between atoms: C_2  and  C_12
REMARK    3  A    between atoms: O_3  and  C_4
REMARK    4  A    between atoms: C_4  and  C_5
REMARK    5  A    between atoms: C_5  and  N_6
REMARK    6  A    between atoms: C_16  and  C_17
REMARK    7  A    between atoms: C_17  and  O_18
REMARK    8  A    between atoms: O_18  and  C_19
REMARK                            x       y       z     vdW  Elec       q    Type
REMARK                         _______ _______ _______ _____ _____    ______ ____
ROOT
ATOM      1  C   UNL     1       0.991   1.479  -0.978  0.00  0.00    +0.000 A 
ATOM      2  C   UNL     1       1.002   0.244  -1.585  0.00  0.00    +0.000 A 
ATOM      3  C   UNL     1      -0.170  -0.244  -2.127  0.00  0.00    +0.000 A 
ATOM      4  C   UNL     1      -1.343   0.480  -2.072  0.00  0.00    +0.000 A 
ATOM      5  C   UNL     1      -1.376   1.707  -1.474  0.00  0.00    +0.000 A 
ATOM      6  C   UNL     1      -0.192   2.181  -0.935  0.00  0.00    +0.000 A 
ENDROOT
BRANCH   1   8
ATOM      7  O   UNL     1       2.151   3.176   0.158  0.00  0.00    +0.000 OA
ATOM      8  C   UNL     1       2.199   2.034  -0.393  0.00  0.00    +0.000 C 
BRANCH   8   9
ATOM      9  O   UNL     1       3.411   1.384  -0.402  0.00  0.00    +0.000 OA
BRANCH   9  10
ATOM     10  C   UNL     1       4.530   2.009   0.194  0.00  0.00    +0.000 C 
BRANCH  10  11
ATOM     11  C   UNL     1       5.709   1.072   0.035  0.00  0.00    +0.000 C 
BRANCH  11  12
ATOM     12  N   UNL     1       5.477  -0.200   0.672  0.00  0.00    +0.000 NA
ATOM     13  C   UNL     1       6.670  -1.007   0.452  0.00  0.00    +0.000 C 
ATOM     14  C   UNL     1       6.563  -2.373   1.045  0.00  0.00    +0.000 C 
ATOM     15  C   UNL     1       6.364  -2.220   2.537  0.00  0.00    +0.000 C 
ATOM     16  C   UNL     1       5.166  -1.357   2.809  0.00  0.00    +0.000 C 
ATOM     17  C   UNL     1       5.183  -0.047   2.090  0.00  0.00    +0.000 C 
ENDBRANCH  11  12
ENDBRANCH  10  11
ENDBRANCH   9  10
ENDBRANCH   8   9
ENDBRANCH   1   8
BRANCH   5  18
ATOM     18  C   UNL     1      -2.551   2.576  -1.347  0.00  0.00    +0.000 C 
BRANCH  18  19
ATOM     19  O   UNL     1      -3.742   2.009  -1.850  0.00  0.00    +0.000 OA
BRANCH  19  20
ATOM     20  C   UNL     1      -4.220   0.820  -1.295  0.00  0.00    +0.000 A 
ATOM     21  C   UNL     1      -5.383   0.226  -1.756  0.00  0.00    +0.000 A 
ATOM     22  C   UNL     1      -5.840  -0.946  -1.197  0.00  0.00    +0.000 A 
ATOM     23  C   UNL     1      -5.183  -1.587  -0.166  0.00  0.00    +0.000 A 
ATOM     24  C   UNL     1      -5.648  -2.762   0.390  0.00  0.00    +0.000 A 
ATOM     25  C   UNL     1      -4.989  -3.400   1.420  0.00  0.00    +0.000 A 
ATOM     26  C   UNL     1      -3.832  -2.807   1.879  0.00  0.00    +0.000 A 
ATOM     27  C   UNL     1      -3.361  -1.631   1.328  0.00  0.00    +0.000 A 
ATOM     28  C   UNL     1      -4.021  -0.996   0.298  0.00  0.00    +0.000 A 
ATOM     29  C   UNL     1      -3.565   0.179  -0.264  0.00  0.00    +0.000 A 
ENDBRANCH  19  20
ENDBRANCH  18  19
ENDBRANCH   5  18
TORSDOF 8
