REMARK  Name = 
REMARK  7 active torsions:
REMARK  status: ('A' for Active; 'I' for Inactive)
REMARK    1  A    between atoms: C_2  and  C_3
REMARK    2  A    between atoms: C_6  and  N_7
REMARK    3  A    between atoms: C_10  and  N_11
REMARK    4  A    between atoms: N_11  and  C_12
REMARK    5  A    between atoms: C_17  and  C_18
REMARK    6  A    between atoms: C_20  and  S_21
REMARK    7  A    between atoms: S_21  and  C_22
REMARK                            x       y       z     vdW  Elec       q    Type
REMARK                         _______ _______ _______ _____ _____    ______ ____
ROOT
ATOM      1  N   UNL     1       1.561  -0.599  -0.163  0.00  0.00    +0.000 N 
ATOM      2  C   UNL     1       0.572  -1.574  -0.218  0.00  0.00    +0.000 C 
ATOM      3  O   UNL     1       0.750  -2.824  -0.309  0.00  0.00    +0.000 OA
ATOM      4  C   UNL     1      -0.763  -0.914  -0.152  0.00  0.00    +0.000 C 
ATOM      5  C   UNL     1      -0.550   0.406  -0.059  0.00  0.00    +0.000 C 
ATOM      6  C   UNL     1       0.871   0.643  -0.063  0.00  0.00    +0.000 C 
ATOM      7  O   UNL     1       1.454   1.765   0.009  0.00  0.00    +0.000 OA
ENDROOT
BRANCH   1  11
ATOM      8  C   UNL     1       5.770  -1.058  -0.340  0.00  0.00    +0.000 A 
ATOM      9  C   UNL     1       5.159   0.092  -0.792  0.00  0.00    +0.000 A 
ATOM     10  C   UNL     1       3.789   0.216  -0.718  0.00  0.00    +0.000 A 
ATOM     11  C   UNL     1       2.975  -0.769  -0.206  0.00  0.00    +0.000 A 
ATOM     12  C   UNL     1       3.586  -1.921   0.246  0.00  0.00    +0.000 A 
ATOM     13  C   UNL     1       4.957  -2.047   0.174  0.00  0.00    +0.000 A 
BRANCH   8  15
ATOM     14  C   UNL     1       7.928  -0.711   0.843  0.00  0.00    +0.000 C 
ATOM     15  C   UNL     1       7.264  -1.223  -0.410  0.00  0.00    +0.000 C 
ENDBRANCH   8  15
ENDBRANCH   1  11
BRANCH   4  16
ATOM     16  N   UNL     1      -1.922  -1.653  -0.203  0.00  0.00    +0.000 NA
BRANCH  16  17
ATOM     17  C   UNL     1      -3.249  -1.530   0.063  0.00  0.00    +0.000 A 
ATOM     18  C   UNL     1      -3.835  -0.402   0.560  0.00  0.00    +0.000 A 
ATOM     19  C   UNL     1      -5.206  -0.341   0.804  0.00  0.00    +0.000 A 
ATOM     20  C   UNL     1      -6.026  -1.419   0.553  0.00  0.00    +0.000 A 
ATOM     21  C   UNL     1      -5.447  -2.550   0.057  0.00  0.00    +0.000 A 
ATOM     22  C   UNL     1      -4.106  -2.619  -0.186  0.00  0.00    +0.000 A 
BRANCH  22  23
ATOM     23  C   UNL     1      -3.481  -3.850  -0.718  0.00  0.00    +0.000 C 
ATOM     24  C   UNL     1      -2.749  -4.606   0.387  0.00  0.00    +0.000 C 
ENDBRANCH  22  23
ENDBRANCH  16  17
ENDBRANCH   4  16
BRANCH   5  25
ATOM     25  S   UNL     1      -1.869   1.561   0.041  0.00  0.00    +0.000 S 
BRANCH  25  26
ATOM     26  C   UNL     1      -1.411   3.251   0.108  0.00  0.00    +0.000 A 
ATOM     27  C   UNL     1      -2.486   4.161   0.221  0.00  0.00    +0.000 A 
ATOM     28  C   UNL     1      -2.317   5.501   0.281  0.00  0.00    +0.000 A 
ATOM     29  C   UNL     1      -1.056   6.041   0.234  0.00  0.00    +0.000 A 
ATOM     30  C   UNL     1       0.017   5.164   0.123  0.00  0.00    +0.000 A 
ATOM     31  C   UNL     1      -0.179   3.806   0.064  0.00  0.00    +0.000 A 
ENDBRANCH  25  26
ENDBRANCH   5  25
TORSDOF 7
