REMARK  Name = 
REMARK  7 active torsions:
REMARK  status: ('A' for Active; 'I' for Inactive)
REMARK    1  A    between atoms: C_2  and  C_3
REMARK    2  A    between atoms: C_3  and  C_4
REMARK    3  A    between atoms: C_4  and  O_5
REMARK    4  A    between atoms: O_5  and  C_6
REMARK    5  A    between atoms: C_9  and  N_10
REMARK    6  A    between atoms: C_13  and  C_14
REMARK    7  A    between atoms: C_17  and  N_18
REMARK                            x       y       z     vdW  Elec       q    Type
REMARK                         _______ _______ _______ _____ _____    ______ ____
ROOT
ATOM      1  N   UNL     1      -0.099  -0.401  -1.439  0.00  0.00    +0.000 NA
ATOM      2  C   UNL     1       0.212   0.494  -0.620  0.00  0.00    +0.000 A 
ATOM      3  N   UNL     1      -0.070   1.070   0.498  0.00  0.00    +0.000 NA
ATOM      4  C   UNL     1       0.450   2.054   1.214  0.00  0.00    +0.000 A 
ATOM      5  N   UNL     1       1.483   2.603   0.723  0.00  0.00    +0.000 NA
ATOM      6  C   UNL     1       2.067   2.238  -0.481  0.00  0.00    +0.000 A 
ATOM      7  C   UNL     1       3.157   2.788  -0.952  0.00  0.00    +0.000 A 
ATOM      8  C   UNL     1       3.821   2.420  -2.161  0.00  0.00    +0.000 A 
ATOM      9  C   UNL     1       3.168   1.335  -2.865  0.00  0.00    +0.000 A 
ATOM     10  C   UNL     1       2.061   0.831  -2.314  0.00  0.00    +0.000 A 
ATOM     11  C   UNL     1       1.468   1.221  -1.148  0.00  0.00    +0.000 A 
ENDROOT
BRANCH   1  15
ATOM     12  C   UNL     1      -0.597  -3.546  -4.043  0.00  0.00    +0.000 A 
ATOM     13  C   UNL     1      -0.887  -2.288  -4.562  0.00  0.00    +0.000 A 
ATOM     14  C   UNL     1      -0.778  -1.205  -3.572  0.00  0.00    +0.000 A 
ATOM     15  C   UNL     1      -0.448  -1.397  -2.348  0.00  0.00    +0.000 A 
ATOM     16  C   UNL     1      -0.149  -2.675  -1.772  0.00  0.00    +0.000 A 
ATOM     17  C   UNL     1      -0.253  -3.715  -2.728  0.00  0.00    +0.000 A 
BRANCH  12  18
ATOM     18  O   UNL     1      -0.628  -4.755  -4.730  0.00  0.00    +0.000 OA
BRANCH  18  19
ATOM     19  C   UNL     1      -0.093  -5.848  -3.848  0.00  0.00    +0.000 C 
BRANCH  19  20
ATOM     20  C   UNL     1      -1.090  -5.920  -2.609  0.00  0.00    +0.000 C 
BRANCH  20  22
ATOM     21  C   UNL     1       0.136  -7.790  -1.549  0.00  0.00    +0.000 C 
ATOM     22  C   UNL     1      -0.356  -6.408  -1.404  0.00  0.00    +0.000 C 
ENDBRANCH  20  22
ENDBRANCH  19  20
ENDBRANCH  18  19
ENDBRANCH  12  18
ENDBRANCH   1  15
BRANCH   4  23
ATOM     23  C   UNL     1      -0.221   2.306   2.539  0.00  0.00    +0.000 A 
ATOM     24  C   UNL     1       0.142   3.245   3.390  0.00  0.00    +0.000 A 
ATOM     25  C   UNL     1      -0.485   3.383   4.710  0.00  0.00    +0.000 A 
ATOM     26  C   UNL     1      -1.483   2.512   5.063  0.00  0.00    +0.000 A 
ATOM     27  C   UNL     1      -1.881   1.483   4.115  0.00  0.00    +0.000 A 
ATOM     28  C   UNL     1      -1.232   1.466   2.965  0.00  0.00    +0.000 A 
BRANCH  26  29
ATOM     29  N   UNL     1      -2.240   2.538   6.256  0.00  0.00    +0.000 N 
ATOM     30  O   UNL     1      -3.218   1.766   6.425  0.00  0.00    +0.000 OA
ATOM     31  O   UNL     1      -1.959   3.404   7.246  0.00  0.00    +0.000 OA
ENDBRANCH  26  29
ENDBRANCH   4  23
TORSDOF 7
