REMARK  Name = 
REMARK  10 active torsions:
REMARK  status: ('A' for Active; 'I' for Inactive)
REMARK    1  A    between atoms: C_2  and  O_3
REMARK    2  A    between atoms: O_3  and  C_4
REMARK    3  A    between atoms: C_4  and  C_6
REMARK    4  A    between atoms: C_9  and  C_10
REMARK    5  A    between atoms: C_10  and  N_11
REMARK    6  A    between atoms: N_11  and  C_12
REMARK    7  A    between atoms: C_12  and  C_13
REMARK    8  A    between atoms: C_17  and  O_18
REMARK    9  A    between atoms: O_18  and  C_19
REMARK   10  A    between atoms: C_19  and  C_20
REMARK                            x       y       z     vdW  Elec       q    Type
REMARK                         _______ _______ _______ _____ _____    ______ ____
ROOT
ATOM      1  C   UNL     1      -0.211  -0.131   2.094  0.00  0.00    +0.000 C 
ENDROOT
BRANCH   1   2
ATOM      2  C   UNL     1      -1.444   0.255   1.355  0.00  0.00    +0.000 A 
ATOM      3  C   UNL     1      -1.839   1.575   1.409  0.00  0.00    +0.000 A 
ATOM      4  C   UNL     1      -2.980   2.001   0.741  0.00  0.00    +0.000 A 
ATOM      5  C   UNL     1      -3.682   1.058   0.038  0.00  0.00    +0.000 A 
ATOM      6  C   UNL     1      -3.351  -0.257  -0.057  0.00  0.00    +0.000 A 
ATOM      7  C   UNL     1      -2.192  -0.642   0.632  0.00  0.00    +0.000 A 
BRANCH   6   8
ATOM      8  O   UNL     1      -4.041  -1.224  -0.758  0.00  0.00    +0.000 OA
BRANCH   8   9
ATOM      9  C   UNL     1      -5.209  -0.884  -1.461  0.00  0.00    +0.000 C 
BRANCH   9  10
ATOM     10  C   UNL     1      -6.209  -0.358  -0.508  0.00  0.00    +0.000 A 
ATOM     11  C   UNL     1      -6.908  -1.255   0.271  0.00  0.00    +0.000 A 
ATOM     12  C   UNL     1      -7.867  -0.892   1.188  0.00  0.00    +0.000 A 
ATOM     13  C   UNL     1      -8.168   0.439   1.361  0.00  0.00    +0.000 A 
ATOM     14  C   UNL     1      -7.486   1.360   0.597  0.00  0.00    +0.000 A 
ATOM     15  C   UNL     1      -6.513   0.973  -0.331  0.00  0.00    +0.000 A 
ENDBRANCH   9  10
ENDBRANCH   8   9
ENDBRANCH   6   8
ENDBRANCH   1   2
BRANCH   1  16
ATOM     16  N   UNL     1       0.909   0.037   1.164  0.00  0.00    +0.000 NA
BRANCH  16  17
ATOM     17  C   UNL     1       2.111  -0.338   1.881  0.00  0.00    +0.000 C 
BRANCH  17  21
ATOM     18  C   UNL     1       5.465   0.105  -0.725  0.00  0.00    +0.000 A 
ATOM     19  C   UNL     1       5.599  -0.331   0.576  0.00  0.00    +0.000 A 
ATOM     20  C   UNL     1       4.532  -0.480   1.431  0.00  0.00    +0.000 A 
ATOM     21  C   UNL     1       3.260  -0.189   0.999  0.00  0.00    +0.000 A 
ATOM     22  C   UNL     1       3.096   0.247  -0.292  0.00  0.00    +0.000 A 
ATOM     23  C   UNL     1       4.174   0.391  -1.133  0.00  0.00    +0.000 A 
BRANCH  18  24
ATOM     24  C   UNL     1       6.621   0.254  -1.611  0.00  0.00    +0.000 C 
ATOM     25  O   UNL     1       6.535   0.643  -2.784  0.00  0.00    +0.000 OA
BRANCH  24  26
ATOM     26  O   UNL     1       7.870  -0.059  -1.102  0.00  0.00    +0.000 OA
BRANCH  26  28
ATOM     27  C   UNL     1       8.868  -0.878  -3.080  0.00  0.00    +0.000 C 
ATOM     28  C   UNL     1       9.059   0.055  -1.893  0.00  0.00    +0.000 C 
ENDBRANCH  26  28
ENDBRANCH  24  26
ENDBRANCH  18  24
ENDBRANCH  17  21
ENDBRANCH  16  17
ENDBRANCH   1  16
TORSDOF 10
