REMARK  Name = 
REMARK  8 active torsions:
REMARK  status: ('A' for Active; 'I' for Inactive)
REMARK    1  A    between atoms: C_2  and  O_4
REMARK    2  A    between atoms: O_4  and  C_5
REMARK    3  A    between atoms: C_8  and  C_9
REMARK    4  A    between atoms: C_9  and  C_20
REMARK    5  A    between atoms: C_10  and  N_11
REMARK    6  A    between atoms: C_12  and  C_14
REMARK    7  A    between atoms: N_22  and  C_23
REMARK    8  A    between atoms: C_23  and  C_24
REMARK                            x       y       z     vdW  Elec       q    Type
REMARK                         _______ _______ _______ _____ _____    ______ ____
ROOT
ATOM      1  C   UNL     1       0.609  -0.330   0.701  0.00  0.00    +0.000 C 
ATOM      2  C   UNL     1       0.877   0.928   0.392  0.00  0.00    +0.000 C 
ENDROOT
BRANCH   1   6
ATOM      3  C   UNL     1       3.799  -3.154   0.705  0.00  0.00    +0.000 A 
ATOM      4  C   UNL     1       4.016  -1.841   0.393  0.00  0.00    +0.000 A 
ATOM      5  C   UNL     1       2.967  -0.969   0.403  0.00  0.00    +0.000 A 
ATOM      6  C   UNL     1       1.670  -1.322   0.713  0.00  0.00    +0.000 A 
ATOM      7  C   UNL     1       1.457  -2.646   1.027  0.00  0.00    +0.000 A 
ATOM      8  C   UNL     1       2.499  -3.561   1.027  0.00  0.00    +0.000 A 
BRANCH   3   9
ATOM      9  O   UNL     1       4.764  -4.125   0.730  0.00  0.00    +0.000 OA
BRANCH   9  11
ATOM     10  C   UNL     1       6.949  -5.151   0.543  0.00  0.00    +0.000 C 
ATOM     11  C   UNL     1       6.118  -3.903   0.437  0.00  0.00    +0.000 C 
ATOM     12  C   UNL     1       6.709  -2.775   1.258  0.00  0.00    +0.000 C 
ENDBRANCH   9  11
ENDBRANCH   3   9
ENDBRANCH   1   6
BRANCH   2  13
ATOM     13  N   UNL     1      -0.160   1.901   0.380  0.00  0.00    +0.000 NA
ATOM     14  C   UNL     1       0.183   3.239   0.040  0.00  0.00    +0.000 C 
ATOM     15  O   UNL     1       1.375   3.481  -0.227  0.00  0.00    +0.000 OA
BRANCH  14  16
ATOM     16  C   UNL     1      -0.823   4.312   0.001  0.00  0.00    +0.000 A 
ATOM     17  C   UNL     1      -2.143   4.094   0.279  0.00  0.00    +0.000 A 
ATOM     18  C   UNL     1      -3.041   5.105   0.233  0.00  0.00    +0.000 A 
ATOM     19  C   UNL     1      -2.669   6.390  -0.092  0.00  0.00    +0.000 A 
ATOM     20  C   UNL     1      -1.324   6.599  -0.372  0.00  0.00    +0.000 A 
ATOM     21  C   UNL     1      -0.415   5.572  -0.326  0.00  0.00    +0.000 A 
ENDBRANCH  14  16
ENDBRANCH   2  13
BRANCH   1  22
ATOM     22  C   UNL     1      -0.761  -0.663   1.018  0.00  0.00    +0.000 C 
ATOM     23  O   UNL     1      -1.018  -1.859   1.311  0.00  0.00    +0.000 OA
ATOM     24  N   UNL     1      -1.817   0.256   1.020  0.00  0.00    +0.000 NA
BRANCH  24  25
ATOM     25  C   UNL     1      -3.152  -0.164   1.349  0.00  0.00    +0.000 C 
BRANCH  25  26
ATOM     26  C   UNL     1      -3.806  -0.901   0.240  0.00  0.00    +0.000 A 
ATOM     27  C   UNL     1      -3.709  -2.269   0.095  0.00  0.00    +0.000 A 
ATOM     28  C   UNL     1      -4.340  -2.922  -0.961  0.00  0.00    +0.000 A 
ATOM     29  C   UNL     1      -5.074  -2.238  -1.886  0.00  0.00    +0.000 A 
ATOM     30  C   UNL     1      -5.180  -0.862  -1.752  0.00  0.00    +0.000 A 
ATOM     31  C   UNL     1      -4.563  -0.221  -0.719  0.00  0.00    +0.000 A 
ENDBRANCH  25  26
ENDBRANCH  24  25
ENDBRANCH   1  22
TORSDOF 8
