REMARK  Name = 
REMARK  8 active torsions:
REMARK  status: ('A' for Active; 'I' for Inactive)
REMARK    1  A    between atoms: C_2  and  C_4
REMARK    2  A    between atoms: C_8  and  C_9
REMARK    3  A    between atoms: C_12  and  N_13
REMARK    4  A    between atoms: C_14  and  C_16
REMARK    5  A    between atoms: C_16  and  O_17
REMARK    6  A    between atoms: O_17  and  C_18
REMARK    7  A    between atoms: C_18  and  C_20
REMARK    8  A    between atoms: C_23  and  C_24
REMARK                            x       y       z     vdW  Elec       q    Type
REMARK                         _______ _______ _______ _____ _____    ______ ____
ROOT
ATOM      1  C   UNL     1      -0.891   1.022  -2.013  0.00  0.00    +0.000 C 
ENDROOT
BRANCH   1   3
ATOM      2  N   UNL     1      -3.337   0.483  -1.563  0.00  0.00    +0.000 NA
ATOM      3  C   UNL     1      -1.984   0.539  -1.151  0.00  0.00    +0.000 C 
ATOM      4  O   UNL     1      -1.705   0.153   0.013  0.00  0.00    +0.000 OA
BRANCH   2  10
ATOM      5  C   UNL     1      -4.899  -1.261  -0.820  0.00  0.00    +0.000 A 
ATOM      6  C   UNL     1      -5.980  -1.659  -0.026  0.00  0.00    +0.000 A 
ATOM      7  C   UNL     1      -6.610  -0.781   0.819  0.00  0.00    +0.000 A 
ATOM      8  C   UNL     1      -6.153   0.505   0.868  0.00  0.00    +0.000 A 
ATOM      9  C   UNL     1      -5.093   0.891   0.088  0.00  0.00    +0.000 A 
ATOM     10  C   UNL     1      -4.425   0.025  -0.785  0.00  0.00    +0.000 A 
BRANCH   5  12
ATOM     11  C   UNL     1      -5.092  -3.543  -1.735  0.00  0.00    +0.000 C 
ATOM     12  C   UNL     1      -4.263  -2.255  -1.714  0.00  0.00    +0.000 C 
ATOM     13  C   UNL     1      -2.902  -2.601  -1.106  0.00  0.00    +0.000 C 
ENDBRANCH   5  12
BRANCH   9  14
ATOM     14  C   UNL     1      -4.589   2.288   0.133  0.00  0.00    +0.000 C 
ATOM     15  C   UNL     1      -5.372   3.148   1.075  0.00  0.00    +0.000 C 
ATOM     16  C   UNL     1      -4.446   2.878  -1.243  0.00  0.00    +0.000 C 
ENDBRANCH   9  14
ENDBRANCH   2  10
ENDBRANCH   1   3
BRANCH   1  17
ATOM     17  O   UNL     1       0.368   1.019  -1.438  0.00  0.00    +0.000 OA
BRANCH  17  18
ATOM     18  C   UNL     1       0.954  -0.141  -0.978  0.00  0.00    +0.000 C 
ATOM     19  O   UNL     1       0.300  -1.206  -1.096  0.00  0.00    +0.000 OA
BRANCH  18  20
ATOM     20  C   UNL     1       2.303  -0.139  -0.366  0.00  0.00    +0.000 A 
ATOM     21  C   UNL     1       2.986   1.051  -0.257  0.00  0.00    +0.000 A 
ATOM     22  C   UNL     1       4.257   1.149   0.300  0.00  0.00    +0.000 A 
ATOM     23  C   UNL     1       4.859  -0.014   0.767  0.00  0.00    +0.000 A 
ATOM     24  C   UNL     1       4.166  -1.197   0.653  0.00  0.00    +0.000 A 
ATOM     25  C   UNL     1       2.892  -1.279   0.091  0.00  0.00    +0.000 A 
BRANCH  23  26
ATOM     26  C   UNL     1       6.188   0.112   1.350  0.00  0.00    +0.000 A 
ATOM     27  C   UNL     1       6.546  -0.763   2.354  0.00  0.00    +0.000 A 
ATOM     28  C   UNL     1       7.771  -0.751   2.992  0.00  0.00    +0.000 A 
ATOM     29  C   UNL     1       8.695   0.201   2.594  0.00  0.00    +0.000 A 
ATOM     30  C   UNL     1       8.346   1.088   1.583  0.00  0.00    +0.000 A 
ATOM     31  C   UNL     1       7.111   1.039   0.974  0.00  0.00    +0.000 A 
ENDBRANCH  23  26
ENDBRANCH  18  20
ENDBRANCH  17  18
ENDBRANCH   1  17
TORSDOF 8
