REMARK  Name = 
REMARK  8 active torsions:
REMARK  status: ('A' for Active; 'I' for Inactive)
REMARK    1  A    between atoms: C_4  and  C_5
REMARK    2  A    between atoms: C_5  and  C_6
REMARK    3  A    between atoms: C_5  and  C_26
REMARK    4  A    between atoms: C_6  and  C_7
REMARK    5  A    between atoms: C_7  and  N_8
REMARK    6  A    between atoms: N_8  and  C_9
REMARK    7  A    between atoms: C_9  and  C_10
REMARK    8  A    between atoms: C_10  and  C_11
REMARK                            x       y       z     vdW  Elec       q    Type
REMARK                         _______ _______ _______ _____ _____    ______ ____
ROOT
ATOM      1  C   UNL     1      -0.694  -1.752   0.822  0.00  0.00    +0.000 C 
ENDROOT
BRANCH   1   2
ATOM      2  C   UNL     1      -1.437  -1.038  -0.264  0.00  0.00    +0.000 C 
ATOM      3  C   UNL     1      -0.571   0.115  -0.752  0.00  0.00    +0.000 C 
ATOM      4  C   UNL     1      -1.224   0.849  -1.890  0.00  0.00    +0.000 C 
ATOM      5  O   UNL     1      -2.048   0.075  -2.677  0.00  0.00    +0.000 OA
ATOM      6  C   UNL     1      -1.696  -1.247  -2.730  0.00  0.00    +0.000 C 
ATOM      7  C   UNL     1      -1.820  -1.953  -1.381  0.00  0.00    +0.000 C 
BRANCH   2   8
ATOM      8  C   UNL     1      -2.712  -0.447   0.298  0.00  0.00    +0.000 A 
ATOM      9  C   UNL     1      -2.942  -0.331   1.661  0.00  0.00    +0.000 A 
ATOM     10  C   UNL     1      -4.136   0.191   2.115  0.00  0.00    +0.000 A 
ATOM     11  C   UNL     1      -5.147   0.616   1.296  0.00  0.00    +0.000 A 
ATOM     12  C   UNL     1      -4.917   0.500  -0.087  0.00  0.00    +0.000 A 
ATOM     13  C   UNL     1      -3.721  -0.022  -0.532  0.00  0.00    +0.000 A 
ATOM     14  O   UNL     1      -5.920   0.925  -0.927  0.00  0.00    +0.000 OA
ATOM     15  C   UNL     1      -7.008   1.724  -0.577  0.00  0.00    +0.000 C 
ATOM     16  C   UNL     1      -7.304   1.760   0.888  0.00  0.00    +0.000 C 
ATOM     17  O   UNL     1      -6.340   1.139   1.688  0.00  0.00    +0.000 OA
ENDBRANCH   2   8
ENDBRANCH   1   2
BRANCH   1  18
ATOM     18  N   UNL     1      -0.332  -0.729   1.837  0.00  0.00    +0.000 NA
BRANCH  18  19
ATOM     19  C   UNL     1       0.737   0.031   1.123  0.00  0.00    +0.000 C 
BRANCH  19  20
ATOM     20  C   UNL     1       1.881  -0.938   1.007  0.00  0.00    +0.000 C 
BRANCH  20  21
ATOM     21  C   UNL     1       3.047  -0.431   0.302  0.00  0.00    +0.000 C 
BRANCH  21  25
ATOM     22  C   UNL     1       6.347  -3.014  -0.189  0.00  0.00    +0.000 A 
ATOM     23  C   UNL     1       6.174  -2.365   1.013  0.00  0.00    +0.000 A 
ATOM     24  C   UNL     1       5.109  -1.519   1.183  0.00  0.00    +0.000 A 
ATOM     25  C   UNL     1       4.205  -1.311   0.158  0.00  0.00    +0.000 A 
ATOM     26  C   UNL     1       4.382  -1.965  -1.046  0.00  0.00    +0.000 A 
ATOM     27  C   UNL     1       5.445  -2.814  -1.230  0.00  0.00    +0.000 A 
ENDBRANCH  21  25
BRANCH  21  28
ATOM     28  C   UNL     1       3.412   0.963   0.415  0.00  0.00    +0.000 A 
ATOM     29  C   UNL     1       3.518   1.718  -0.748  0.00  0.00    +0.000 A 
ATOM     30  C   UNL     1       3.867   3.037  -0.734  0.00  0.00    +0.000 A 
ATOM     31  C   UNL     1       4.134   3.676   0.458  0.00  0.00    +0.000 A 
ATOM     32  C   UNL     1       4.033   2.939   1.632  0.00  0.00    +0.000 A 
ATOM     33  C   UNL     1       3.680   1.619   1.601  0.00  0.00    +0.000 A 
ENDBRANCH  21  28
ENDBRANCH  20  21
ENDBRANCH  19  20
ENDBRANCH  18  19
ENDBRANCH   1  18
TORSDOF 8
