REMARK  Name = 
REMARK  8 active torsions:
REMARK  status: ('A' for Active; 'I' for Inactive)
REMARK    1  A    between atoms: C_2  and  C_5
REMARK    2  A    between atoms: C_8  and  C_9
REMARK    3  A    between atoms: C_12  and  C_14
REMARK    4  A    between atoms: C_14  and  O_15
REMARK    5  A    between atoms: O_15  and  C_16
REMARK    6  A    between atoms: C_16  and  C_18
REMARK    7  A    between atoms: C_23  and  O_24
REMARK    8  A    between atoms: O_24  and  C_25
REMARK                            x       y       z     vdW  Elec       q    Type
REMARK                         _______ _______ _______ _____ _____    ______ ____
ROOT
ATOM      1  C   UNL     1      -1.153   0.016  -0.945  0.00  0.00    +0.000 C 
ENDROOT
BRANCH   1   5
ATOM      2  C   UNL     1       2.611  -0.150  -0.160  0.00  0.00    +0.000 C 
ATOM      3  O   UNL     1       2.541  -0.386   1.091  0.00  0.00    +0.000 OA
ATOM      4  N   UNL     1       1.388  -0.012  -0.849  0.00  0.00    +0.000 NA
ATOM      5  C   UNL     1       0.127  -0.130  -0.209  0.00  0.00    +0.000 C 
ATOM      6  O   UNL     1       0.161  -0.367   1.036  0.00  0.00    +0.000 OA
BRANCH   2  10
ATOM      7  C   UNL     1       6.588   0.226  -1.609  0.00  0.00    +0.000 A 
ATOM      8  C   UNL     1       6.283   0.366  -0.277  0.00  0.00    +0.000 A 
ATOM      9  C   UNL     1       4.976   0.235   0.128  0.00  0.00    +0.000 A 
ATOM     10  C   UNL     1       3.928  -0.034  -0.771  0.00  0.00    +0.000 A 
ATOM     11  C   UNL     1       4.231  -0.170  -2.082  0.00  0.00    +0.000 A 
ATOM     12  C   UNL     1       5.569  -0.041  -2.531  0.00  0.00    +0.000 A 
BRANCH   7  14
ATOM     13  C   UNL     1       8.017   1.786  -2.731  0.00  0.00    +0.000 C 
ATOM     14  C   UNL     1       7.986   0.393  -2.081  0.00  0.00    +0.000 C 
ATOM     15  C   UNL     1       8.331  -0.680  -3.076  0.00  0.00    +0.000 C 
ATOM     16  C   UNL     1       8.903   0.387  -0.880  0.00  0.00    +0.000 C 
ENDBRANCH   7  14
ENDBRANCH   2  10
ENDBRANCH   1   5
BRANCH   1  17
ATOM     17  O   UNL     1      -2.209  -0.158   0.020  0.00  0.00    +0.000 OA
BRANCH  17  18
ATOM     18  C   UNL     1      -2.358   0.706   1.085  0.00  0.00    +0.000 C 
ATOM     19  O   UNL     1      -1.524   1.680   1.147  0.00  0.00    +0.000 OA
BRANCH  18  20
ATOM     20  C   UNL     1      -3.320   0.653   2.155  0.00  0.00    +0.000 A 
ATOM     21  C   UNL     1      -3.208   1.530   3.252  0.00  0.00    +0.000 A 
ATOM     22  C   UNL     1      -4.057   1.460   4.317  0.00  0.00    +0.000 A 
ATOM     23  C   UNL     1      -5.046   0.490   4.296  0.00  0.00    +0.000 A 
ATOM     24  C   UNL     1      -5.179  -0.372   3.251  0.00  0.00    +0.000 A 
ATOM     25  C   UNL     1      -4.316  -0.298   2.168  0.00  0.00    +0.000 A 
BRANCH  25  26
ATOM     26  O   UNL     1      -4.522  -1.217   1.154  0.00  0.00    +0.000 OA
BRANCH  26  27
ATOM     27  C   UNL     1      -5.120  -0.807  -0.052  0.00  0.00    +0.000 A 
ATOM     28  C   UNL     1      -4.770  -1.210  -1.246  0.00  0.00    +0.000 A 
ATOM     29  C   UNL     1      -5.398  -0.789  -2.395  0.00  0.00    +0.000 A 
ATOM     30  C   UNL     1      -6.450   0.095  -2.282  0.00  0.00    +0.000 A 
ATOM     31  C   UNL     1      -6.828   0.523  -1.030  0.00  0.00    +0.000 A 
ATOM     32  C   UNL     1      -6.184   0.097   0.106  0.00  0.00    +0.000 A 
ENDBRANCH  26  27
ENDBRANCH  25  26
ENDBRANCH  18  20
ENDBRANCH  17  18
ENDBRANCH   1  17
TORSDOF 8
