REMARK  Name = 
REMARK  7 active torsions:
REMARK  status: ('A' for Active; 'I' for Inactive)
REMARK    1  A    between atoms: C_2  and  O_3
REMARK    2  A    between atoms: O_3  and  C_4
REMARK    3  A    between atoms: C_7  and  N_8
REMARK    4  A    between atoms: C_11  and  N_12
REMARK    5  A    between atoms: N_12  and  C_13
REMARK    6  A    between atoms: C_20  and  S_21
REMARK    7  A    between atoms: S_21  and  C_22
REMARK                            x       y       z     vdW  Elec       q    Type
REMARK                         _______ _______ _______ _____ _____    ______ ____
ROOT
ATOM      1  N   UNL     1       1.417  -0.162  -0.273  0.00  0.00    +0.000 N 
ATOM      2  C   UNL     1       0.999  -1.440  -0.718  0.00  0.00    +0.000 C 
ATOM      3  O   UNL     1       1.811  -2.395  -0.916  0.00  0.00    +0.000 OA
ATOM      4  C   UNL     1      -0.435  -1.468  -0.898  0.00  0.00    +0.000 C 
ATOM      5  C   UNL     1      -0.937  -0.254  -0.583  0.00  0.00    +0.000 C 
ATOM      6  C   UNL     1       0.182   0.587  -0.190  0.00  0.00    +0.000 C 
ATOM      7  O   UNL     1       0.180   1.788   0.181  0.00  0.00    +0.000 OA
ENDROOT
BRANCH   1  11
ATOM      8  C   UNL     1       5.304   1.252   0.701  0.00  0.00    +0.000 A 
ATOM      9  C   UNL     1       4.650   0.352   1.512  0.00  0.00    +0.000 A 
ATOM     10  C   UNL     1       3.391  -0.099   1.186  0.00  0.00    +0.000 A 
ATOM     11  C   UNL     1       2.718   0.324   0.035  0.00  0.00    +0.000 A 
ATOM     12  C   UNL     1       3.391   1.222  -0.758  0.00  0.00    +0.000 A 
ATOM     13  C   UNL     1       4.660   1.682  -0.439  0.00  0.00    +0.000 A 
BRANCH   8  14
ATOM     14  O   UNL     1       6.571   1.672   1.078  0.00  0.00    +0.000 OA
BRANCH  14  16
ATOM     15  C   UNL     1       7.552   2.033  -1.082  0.00  0.00    +0.000 C 
ATOM     16  C   UNL     1       7.317   2.596   0.303  0.00  0.00    +0.000 C 
ENDBRANCH  14  16
ENDBRANCH   8  14
ENDBRANCH   1  11
BRANCH   4  17
ATOM     17  N   UNL     1      -1.227  -2.555  -1.329  0.00  0.00    +0.000 NA
BRANCH  17  18
ATOM     18  C   UNL     1      -2.029  -3.370  -0.518  0.00  0.00    +0.000 A 
ATOM     19  C   UNL     1      -2.143  -3.189   0.847  0.00  0.00    +0.000 A 
ATOM     20  C   UNL     1      -2.950  -4.032   1.578  0.00  0.00    +0.000 A 
ATOM     21  C   UNL     1      -3.650  -5.055   0.981  0.00  0.00    +0.000 A 
ATOM     22  C   UNL     1      -3.540  -5.239  -0.376  0.00  0.00    +0.000 A 
ATOM     23  C   UNL     1      -2.732  -4.396  -1.109  0.00  0.00    +0.000 A 
ATOM     24  C   UNL     1      -2.617  -4.606  -2.596  0.00  0.00    +0.000 C 
ENDBRANCH  17  18
ENDBRANCH   4  17
BRANCH   5  25
ATOM     25  S   UNL     1      -2.666   0.127  -0.672  0.00  0.00    +0.000 S 
BRANCH  25  26
ATOM     26  C   UNL     1      -3.083   1.792  -0.260  0.00  0.00    +0.000 A 
ATOM     27  C   UNL     1      -4.431   2.196  -0.276  0.00  0.00    +0.000 A 
ATOM     28  C   UNL     1      -4.789   3.478   0.033  0.00  0.00    +0.000 A 
ATOM     29  C   UNL     1      -3.888   4.458   0.378  0.00  0.00    +0.000 A 
ATOM     30  C   UNL     1      -4.267   5.851   0.716  0.00  0.00    +0.000 C 
ATOM     31  C   UNL     1      -2.558   4.073   0.398  0.00  0.00    +0.000 A 
ATOM     32  C   UNL     1      -2.201   2.779   0.085  0.00  0.00    +0.000 A 
ENDBRANCH  25  26
ENDBRANCH   5  25
TORSDOF 7
