REMARK  Name = 
REMARK  7 active torsions:
REMARK  status: ('A' for Active; 'I' for Inactive)
REMARK    1  A    between atoms: C_2  and  C_4
REMARK    2  A    between atoms: C_4  and  C_5
REMARK    3  A    between atoms: C_5  and  N_6
REMARK    4  A    between atoms: C_7  and  C_9
REMARK    5  A    between atoms: N_12  and  C_13
REMARK    6  A    between atoms: C_13  and  C_14
REMARK    7  A    between atoms: C_14  and  C_15
REMARK                            x       y       z     vdW  Elec       q    Type
REMARK                         _______ _______ _______ _____ _____    ______ ____
ROOT
ATOM      1  C   UNL     1      -1.142   0.768  -0.427  0.00  0.00    +0.000 A 
ATOM      2  C   UNL     1       0.043   1.482  -0.365  0.00  0.00    +0.000 A 
ATOM      3  N   UNL     1       0.245   2.831  -0.776  0.00  0.00    +0.000 NA
ATOM      4  N   UNL     1       0.991   0.691   0.153  0.00  0.00    +0.000 N 
ATOM      5  C   UNL     1       0.452  -0.508   0.426  0.00  0.00    +0.000 A 
ATOM      6  N   UNL     1       0.962  -1.660   0.954  0.00  0.00    +0.000 NA
ATOM      7  C   UNL     1       0.171  -2.731   1.118  0.00  0.00    +0.000 A 
ATOM      8  C   UNL     1       0.670  -3.916   1.655  0.00  0.00    +0.000 A 
ATOM      9  C   UNL     1      -0.166  -5.004   1.812  0.00  0.00    +0.000 A 
ATOM     10  C   UNL     1      -1.498  -4.961   1.451  0.00  0.00    +0.000 A 
ATOM     11  C   UNL     1      -1.990  -3.791   0.921  0.00  0.00    +0.000 A 
ATOM     12  C   UNL     1      -1.159  -2.698   0.761  0.00  0.00    +0.000 A 
ATOM     13  N   UNL     1      -1.686  -1.590   0.243  0.00  0.00    +0.000 NA
ATOM     14  C   UNL     1      -0.875  -0.501   0.079  0.00  0.00    +0.000 A 
ENDROOT
BRANCH   1  16
ATOM     15  N   UNL     1      -3.528   0.345  -0.900  0.00  0.00    +0.000 NA
ATOM     16  C   UNL     1      -2.432   1.225  -0.919  0.00  0.00    +0.000 C 
ATOM     17  O   UNL     1      -2.537   2.399  -1.350  0.00  0.00    +0.000 OA
BRANCH  15  18
ATOM     18  C   UNL     1      -4.835   0.740  -1.376  0.00  0.00    +0.000 C 
BRANCH  18  19
ATOM     19  C   UNL     1      -5.270   1.922  -0.516  0.00  0.00    +0.000 C 
BRANCH  19  21
ATOM     20  C   UNL     1      -5.733   2.574   1.802  0.00  0.00    +0.000 C 
ATOM     21  C   UNL     1      -5.302   1.411   0.918  0.00  0.00    +0.000 C 
ATOM     22  C   UNL     1      -6.401   0.345   0.951  0.00  0.00    +0.000 C 
ENDBRANCH  19  21
ENDBRANCH  18  19
ENDBRANCH  15  18
ENDBRANCH   1  16
BRANCH   4  23
ATOM     23  C   UNL     1       2.369   1.060   0.384  0.00  0.00    +0.000 C 
BRANCH  23  24
ATOM     24  C   UNL     1       3.191   0.738  -0.845  0.00  0.00    +0.000 C 
BRANCH  24  25
ATOM     25  C   UNL     1       4.601   1.132  -0.568  0.00  0.00    +0.000 A 
ATOM     26  C   UNL     1       5.051   2.393  -0.864  0.00  0.00    +0.000 A 
ATOM     27  C   UNL     1       6.356   2.717  -0.594  0.00  0.00    +0.000 A 
ATOM     28  C   UNL     1       7.239   1.814  -0.032  0.00  0.00    +0.000 A 
ATOM     29  C   UNL     1       6.757   0.554   0.254  0.00  0.00    +0.000 A 
ATOM     30  C   UNL     1       5.453   0.219  -0.012  0.00  0.00    +0.000 A 
ENDBRANCH  24  25
ENDBRANCH  23  24
ENDBRANCH   4  23
TORSDOF 7
