REMARK  Name = 
REMARK  8 active torsions:
REMARK  status: ('A' for Active; 'I' for Inactive)
REMARK    1  A    between atoms: C_2  and  O_3
REMARK    2  A    between atoms: O_3  and  C_4
REMARK    3  A    between atoms: C_9  and  N_10
REMARK    4  A    between atoms: N_10  and  C_11
REMARK    5  A    between atoms: C_12  and  S_13
REMARK    6  A    between atoms: S_13  and  C_14
REMARK    7  A    between atoms: N_23  and  C_24
REMARK    8  A    between atoms: C_27  and  C_28
REMARK                            x       y       z     vdW  Elec       q    Type
REMARK                         _______ _______ _______ _____ _____    ______ ____
ROOT
ATOM      1  C   UNL     1      -0.869  -0.455   0.435  0.00  0.00    +0.000 C 
ATOM      2  C   UNL     1      -0.286   0.728   0.192  0.00  0.00    +0.000 C 
ATOM      3  C   UNL     1       1.109   0.482   0.031  0.00  0.00    +0.000 C 
ATOM      4  O   UNL     1       2.010   1.307  -0.207  0.00  0.00    +0.000 OA
ATOM      5  N   UNL     1       1.409  -0.919   0.182  0.00  0.00    +0.000 N 
ATOM      6  C   UNL     1       0.145  -1.503   0.438  0.00  0.00    +0.000 C 
ATOM      7  O   UNL     1      -0.042  -2.732   0.632  0.00  0.00    +0.000 OA
ENDROOT
BRANCH   5   8
ATOM      8  C   UNL     1       2.699  -1.508   0.084  0.00  0.00    +0.000 A 
ATOM      9  C   UNL     1       2.925  -2.829  -0.235  0.00  0.00    +0.000 A 
ATOM     10  C   UNL     1       4.237  -3.287  -0.305  0.00  0.00    +0.000 A 
ATOM     11  C   UNL     1       5.323  -2.457  -0.063  0.00  0.00    +0.000 A 
ATOM     12  C   UNL     1       5.092  -1.140   0.255  0.00  0.00    +0.000 A 
ATOM     13  C   UNL     1       3.800  -0.709   0.318  0.00  0.00    +0.000 A 
BRANCH  11  14
ATOM     14  C   UNL     1       6.701  -2.970  -0.145  0.00  0.00    +0.000 C 
ATOM     15  C   UNL     1       7.211  -2.792  -1.568  0.00  0.00    +0.000 C 
ENDBRANCH  11  14
ENDBRANCH   5   8
BRANCH   1  16
ATOM     16  N   UNL     1      -2.267  -0.634   0.654  0.00  0.00    +0.000 NA
BRANCH  16  22
ATOM     17  C   UNL     1      -4.398  -1.684   0.400  0.00  0.00    +0.000 A 
ATOM     18  C   UNL     1      -5.193  -2.662  -0.126  0.00  0.00    +0.000 A 
ATOM     19  C   UNL     1      -4.671  -3.619  -0.958  0.00  0.00    +0.000 A 
ATOM     20  C   UNL     1      -3.320  -3.587  -1.264  0.00  0.00    +0.000 A 
ATOM     21  C   UNL     1      -2.527  -2.600  -0.731  0.00  0.00    +0.000 A 
ATOM     22  C   UNL     1      -3.056  -1.651   0.098  0.00  0.00    +0.000 A 
BRANCH  17  23
ATOM     23  O   UNL     1      -4.935  -0.704   1.252  0.00  0.00    +0.000 OA
BRANCH  23  25
ATOM     24  C   UNL     1      -7.184  -0.589   0.357  0.00  0.00    +0.000 C 
ATOM     25  C   UNL     1      -6.291  -0.715   1.577  0.00  0.00    +0.000 C 
ENDBRANCH  23  25
ENDBRANCH  17  23
ENDBRANCH  16  22
ENDBRANCH   1  16
BRANCH   2  26
ATOM     26  S   UNL     1      -1.185   2.223   0.111  0.00  0.00    +0.000 S 
BRANCH  26  27
ATOM     27  C   UNL     1      -0.278   3.664  -0.225  0.00  0.00    +0.000 A 
ATOM     28  C   UNL     1      -1.024   4.855  -0.280  0.00  0.00    +0.000 A 
ATOM     29  C   UNL     1      -0.435   6.067  -0.537  0.00  0.00    +0.000 A 
ATOM     30  C   UNL     1       0.917   6.153  -0.749  0.00  0.00    +0.000 A 
ATOM     31  C   UNL     1       1.630   7.428  -1.034  0.00  0.00    +0.000 C 
ATOM     32  C   UNL     1       1.693   5.015  -0.706  0.00  0.00    +0.000 A 
ATOM     33  C   UNL     1       1.057   3.824  -0.445  0.00  0.00    +0.000 A 
ENDBRANCH  26  27
ENDBRANCH   2  26
TORSDOF 8
