REMARK  Name = 
REMARK  6 active torsions:
REMARK  status: ('A' for Active; 'I' for Inactive)
REMARK    1  A    between atoms: O_2  and  C_3
REMARK    2  A    between atoms: C_6  and  C_7
REMARK    3  A    between atoms: C_9  and  C_10
REMARK    4  A    between atoms: N_12  and  C_13
REMARK    5  A    between atoms: C_13  and  C_15
REMARK    6  A    between atoms: C_23  and  C_24
REMARK                            x       y       z     vdW  Elec       q    Type
REMARK                         _______ _______ _______ _____ _____    ______ ____
ROOT
ATOM      1  C   UNL     1       2.229   0.083   0.154  0.00  0.00    +0.000 A 
ATOM      2  C   UNL     1       1.095   0.826  -0.057  0.00  0.00    +0.000 A 
ATOM      3  C   UNL     1      -0.154   0.173  -0.044  0.00  0.00    +0.000 A 
ATOM      4  C   UNL     1      -0.183  -1.181   0.179  0.00  0.00    +0.000 A 
ATOM      5  C   UNL     1      -1.423  -1.827   0.194  0.00  0.00    +0.000 A 
ATOM      6  C   UNL     1      -1.536  -3.183   0.413  0.00  0.00    +0.000 A 
ATOM      7  C   UNL     1      -0.343  -3.880   0.621  0.00  0.00    +0.000 A 
ATOM      8  C   UNL     1       0.879  -3.237   0.606  0.00  0.00    +0.000 A 
ATOM      9  C   UNL     1       0.968  -1.892   0.387  0.00  0.00    +0.000 A 
ATOM     10  N   UNL     1       2.151  -1.236   0.368  0.00  0.00    +0.000 NA
ENDROOT
BRANCH   1  14
ATOM     11  C   UNL     1       5.988   2.016   0.103  0.00  0.00    +0.000 A 
ATOM     12  C   UNL     1       5.945   0.654   0.304  0.00  0.00    +0.000 A 
ATOM     13  C   UNL     1       4.710   0.046   0.315  0.00  0.00    +0.000 A 
ATOM     14  C   UNL     1       3.515   0.747   0.134  0.00  0.00    +0.000 A 
ATOM     15  C   UNL     1       3.638   2.104  -0.061  0.00  0.00    +0.000 A 
ATOM     16  C   UNL     1       4.837   2.746  -0.079  0.00  0.00    +0.000 A 
BRANCH  11  18
ATOM     17  C   UNL     1       8.391   1.942   0.267  0.00  0.00    +0.000 C 
ATOM     18  O   UNL     1       7.196   2.675   0.082  0.00  0.00    +0.000 OA
ENDBRANCH  11  18
ENDBRANCH   1  14
BRANCH   3  19
ATOM     19  C   UNL     1      -1.349   0.971  -0.267  0.00  0.00    +0.000 C 
ATOM     20  O   UNL     1      -2.249   0.523  -0.986  0.00  0.00    +0.000 OA
ATOM     21  N   UNL     1      -1.472   2.212   0.317  0.00  0.00    +0.000 NA
BRANCH  21  22
ATOM     22  C   UNL     1      -2.742   3.098   0.098  0.00  0.00    +0.000 C 
ATOM     23  C   UNL     1      -2.662   3.056  -1.556  0.00  0.00    +0.000 C 
BRANCH  22  24
ATOM     24  C   UNL     1      -3.828   1.945   0.252  0.00  0.00    +0.000 A 
ATOM     25  C   UNL     1      -3.655   1.083   1.288  0.00  0.00    +0.000 A 
ATOM     26  C   UNL     1      -4.577   0.052   1.483  0.00  0.00    +0.000 A 
ATOM     27  C   UNL     1      -5.643  -0.067   0.617  0.00  0.00    +0.000 A 
ATOM     28  C   UNL     1      -5.776   0.827  -0.414  0.00  0.00    +0.000 A 
ATOM     29  C   UNL     1      -4.855   1.840  -0.591  0.00  0.00    +0.000 A 
ENDBRANCH  22  24
ENDBRANCH  21  22
ENDBRANCH   3  19
BRANCH   6  30
ATOM     30  C   UNL     1      -2.857  -3.839   0.422  0.00  0.00    +0.000 C 
ATOM     31  C   UNL     1      -2.998  -4.870   1.522  0.00  0.00    +0.000 C 
ATOM     32  C   UNL     1      -3.239  -4.406  -0.921  0.00  0.00    +0.000 C 
ENDBRANCH   6  30
TORSDOF 6
