REMARK  Name = 
REMARK  6 active torsions:
REMARK  status: ('A' for Active; 'I' for Inactive)
REMARK    1  A    between atoms: O_2  and  C_3
REMARK    2  A    between atoms: C_6  and  N_7
REMARK    3  A    between atoms: C_8  and  C_10
REMARK    4  A    between atoms: C_11  and  N_12
REMARK    5  A    between atoms: C_13  and  C_15
REMARK    6  A    between atoms: C_15  and  C_16
REMARK                            x       y       z     vdW  Elec       q    Type
REMARK                         _______ _______ _______ _____ _____    ______ ____
ROOT
ATOM      1  C   UNL     1      -0.310   0.005   0.938  0.00  0.00    +0.000 A 
ATOM      2  C   UNL     1       1.017  -0.084   0.612  0.00  0.00    +0.000 A 
ATOM      3  S   UNL     1       1.782  -0.344   2.119  0.00  0.00    +0.000 S 
ATOM      4  C   UNL     1       0.415  -0.336   3.123  0.00  0.00    +0.000 A 
ATOM      5  C   UNL     1      -0.610  -0.130   2.262  0.00  0.00    +0.000 A 
ATOM      6  C   UNL     1      -2.054  -0.047   2.728  0.00  0.00    +0.000 C 
ATOM      7  C   UNL     1      -2.420  -1.361   3.360  0.00  0.00    +0.000 C 
ATOM      8  C   UNL     1      -1.933  -1.337   4.798  0.00  0.00    +0.000 C 
ATOM      9  C   UNL     1      -0.469  -1.705   4.904  0.00  0.00    +0.000 C 
ATOM     10  C   UNL     1       0.431  -0.522   4.615  0.00  0.00    +0.000 C 
ENDROOT
BRANCH   1  12
ATOM     11  N   UNL     1      -2.717   0.334   0.167  0.00  0.00    +0.000 NA
ATOM     12  C   UNL     1      -1.332   0.234  -0.118  0.00  0.00    +0.000 C 
ATOM     13  O   UNL     1      -0.961   0.344  -1.292  0.00  0.00    +0.000 OA
BRANCH  11  17
ATOM     14  C   UNL     1      -5.622   0.992  -2.874  0.00  0.00    +0.000 A 
ATOM     15  C   UNL     1      -5.976   0.863  -1.549  0.00  0.00    +0.000 A 
ATOM     16  C   UNL     1      -5.036   0.649  -0.562  0.00  0.00    +0.000 A 
ATOM     17  C   UNL     1      -3.691   0.554  -0.852  0.00  0.00    +0.000 A 
ATOM     18  C   UNL     1      -3.341   0.684  -2.181  0.00  0.00    +0.000 A 
ATOM     19  C   UNL     1      -4.280   0.898  -3.170  0.00  0.00    +0.000 A 
BRANCH  14  21
ATOM     20  C   UNL     1      -7.938   1.307  -3.605  0.00  0.00    +0.000 C 
ATOM     21  O   UNL     1      -6.574   1.207  -3.872  0.00  0.00    +0.000 OA
ENDBRANCH  14  21
ENDBRANCH  11  17
ENDBRANCH   1  12
BRANCH   2  22
ATOM     22  N   UNL     1       1.627   0.019  -0.701  0.00  0.00    +0.000 NA
ATOM     23  C   UNL     1       3.027  -0.106  -0.785  0.00  0.00    +0.000 C 
ATOM     24  O   UNL     1       3.674  -0.300   0.276  0.00  0.00    +0.000 OA
BRANCH  23  25
ATOM     25  C   UNL     1       3.763  -0.016  -2.092  0.00  0.00    +0.000 C 
BRANCH  25  26
ATOM     26  C   UNL     1       5.209  -0.187  -1.843  0.00  0.00    +0.000 A 
ATOM     27  C   UNL     1       6.004   0.926  -1.578  0.00  0.00    +0.000 A 
ATOM     28  C   UNL     1       7.355   0.835  -1.339  0.00  0.00    +0.000 A 
ATOM     29  C   UNL     1       7.935  -0.416  -1.363  0.00  0.00    +0.000 A 
ATOM     30  C   UNL     1       7.188  -1.546  -1.621  0.00  0.00    +0.000 A 
ATOM     31  C   UNL     1       5.836  -1.412  -1.856  0.00  0.00    +0.000 A 
ENDBRANCH  25  26
ENDBRANCH  23  25
ENDBRANCH   2  22
TORSDOF 6
