REMARK  Name = 
REMARK  8 active torsions:
REMARK  status: ('A' for Active; 'I' for Inactive)
REMARK    1  A    between atoms: C_2  and  O_3
REMARK    2  A    between atoms: O_3  and  C_4
REMARK    3  A    between atoms: C_7  and  N_8
REMARK    4  A    between atoms: N_8  and  C_9
REMARK    5  A    between atoms: C_10  and  S_11
REMARK    6  A    between atoms: S_11  and  C_12
REMARK    7  A    between atoms: N_20  and  C_21
REMARK    8  A    between atoms: C_24  and  C_25
REMARK                            x       y       z     vdW  Elec       q    Type
REMARK                         _______ _______ _______ _____ _____    ______ ____
ROOT
ATOM      1  C   UNL     1      -0.653   0.740   0.200  0.00  0.00    +0.000 C 
ATOM      2  C   UNL     1      -1.203   1.185  -0.917  0.00  0.00    +0.000 C 
ATOM      3  C   UNL     1      -2.028   0.107  -1.491  0.00  0.00    +0.000 C 
ATOM      4  O   UNL     1      -2.695   0.191  -2.558  0.00  0.00    +0.000 OA
ATOM      5  N   UNL     1      -1.940  -1.015  -0.647  0.00  0.00    +0.000 N 
ATOM      6  C   UNL     1      -1.081  -0.634   0.419  0.00  0.00    +0.000 C 
ATOM      7  O   UNL     1      -0.718  -1.315   1.404  0.00  0.00    +0.000 OA
ENDROOT
BRANCH   5   8
ATOM      8  C   UNL     1      -2.583  -2.299  -0.821  0.00  0.00    +0.000 A 
ATOM      9  C   UNL     1      -2.420  -3.289   0.117  0.00  0.00    +0.000 A 
ATOM     10  C   UNL     1      -3.045  -4.499  -0.096  0.00  0.00    +0.000 A 
ATOM     11  C   UNL     1      -3.815  -4.757  -1.193  0.00  0.00    +0.000 A 
ATOM     12  C   UNL     1      -3.983  -3.752  -2.149  0.00  0.00    +0.000 A 
ATOM     13  C   UNL     1      -3.357  -2.542  -1.934  0.00  0.00    +0.000 A 
BRANCH  11  14
ATOM     14  C   UNL     1      -4.443  -6.093  -1.329  0.00  0.00    +0.000 C 
ATOM     15  C   UNL     1      -5.819  -6.107  -0.681  0.00  0.00    +0.000 C 
ENDBRANCH  11  14
ENDBRANCH   5   8
BRANCH   1  16
ATOM     16  N   UNL     1       0.200   1.493   1.018  0.00  0.00    +0.000 NA
BRANCH  16  20
ATOM     17  C   UNL     1       4.243   0.353   1.610  0.00  0.00    +0.000 A 
ATOM     18  C   UNL     1       3.383  -0.361   0.796  0.00  0.00    +0.000 A 
ATOM     19  C   UNL     1       2.060   0.042   0.625  0.00  0.00    +0.000 A 
ATOM     20  C   UNL     1       1.562   1.166   1.260  0.00  0.00    +0.000 A 
ATOM     21  C   UNL     1       2.412   1.874   2.066  0.00  0.00    +0.000 A 
ATOM     22  C   UNL     1       3.732   1.467   2.234  0.00  0.00    +0.000 A 
BRANCH  17  23
ATOM     23  O   UNL     1       5.582  -0.031   1.799  0.00  0.00    +0.000 OA
BRANCH  23  25
ATOM     24  C   UNL     1       6.094  -1.061  -0.334  0.00  0.00    +0.000 C 
ATOM     25  C   UNL     1       6.143  -1.151   1.182  0.00  0.00    +0.000 C 
ENDBRANCH  23  25
ENDBRANCH  17  23
ENDBRANCH  16  20
ENDBRANCH   1  16
BRANCH   2  26
ATOM     26  S   UNL     1      -0.991   2.813  -1.627  0.00  0.00    +0.000 S 
BRANCH  26  27
ATOM     27  C   UNL     1       0.094   3.804  -0.622  0.00  0.00    +0.000 A 
ATOM     28  C   UNL     1       1.457   3.818  -0.846  0.00  0.00    +0.000 A 
ATOM     29  C   UNL     1       2.233   4.603  -0.034  0.00  0.00    +0.000 A 
ATOM     30  C   UNL     1       1.713   5.367   0.983  0.00  0.00    +0.000 A 
ATOM     31  C   UNL     1       0.340   5.328   1.178  0.00  0.00    +0.000 A 
ATOM     32  C   UNL     1      -0.473   4.556   0.389  0.00  0.00    +0.000 A 
ENDBRANCH  26  27
ENDBRANCH   2  26
TORSDOF 8
