REMARK  Name = 
REMARK  7 active torsions:
REMARK  status: ('A' for Active; 'I' for Inactive)
REMARK    1  A    between atoms: C_7  and  N_8
REMARK    2  A    between atoms: N_8  and  C_9
REMARK    3  A    between atoms: C_10  and  S_11
REMARK    4  A    between atoms: S_11  and  C_12
REMARK    5  A    between atoms: N_20  and  C_21
REMARK    6  A    between atoms: C_21  and  C_22
REMARK    7  A    between atoms: C_22  and  C_23
REMARK                            x       y       z     vdW  Elec       q    Type
REMARK                         _______ _______ _______ _____ _____    ______ ____
ROOT
ATOM      1  C   UNL     1      -0.480  -1.042   0.916  0.00  0.00    +0.000 C 
ATOM      2  C   UNL     1      -0.786   0.202   0.598  0.00  0.00    +0.000 C 
ATOM      3  C   UNL     1       0.394   0.770  -0.027  0.00  0.00    +0.000 C 
ATOM      4  O   UNL     1       0.494   1.939  -0.466  0.00  0.00    +0.000 OA
ATOM      5  N   UNL     1       1.421  -0.202  -0.064  0.00  0.00    +0.000 N 
ATOM      6  C   UNL     1       0.884  -1.376   0.536  0.00  0.00    +0.000 C 
ATOM      7  O   UNL     1       1.495  -2.479   0.695  0.00  0.00    +0.000 OA
ENDROOT
BRANCH   1   8
ATOM      8  N   UNL     1      -1.401  -1.927   1.555  0.00  0.00    +0.000 NA
BRANCH   8  15
ATOM      9  C   UNL     1      -4.172  -2.560  -2.542  0.00  0.00    +0.000 C 
ATOM     10  C   UNL     1      -3.854  -2.811  -1.113  0.00  0.00    +0.000 A 
ATOM     11  C   UNL     1      -4.682  -3.652  -0.402  0.00  0.00    +0.000 A 
ATOM     12  C   UNL     1      -4.443  -3.923   0.916  0.00  0.00    +0.000 A 
ATOM     13  C   UNL     1      -5.349  -4.835   1.666  0.00  0.00    +0.000 C 
ATOM     14  C   UNL     1      -3.342  -3.337   1.551  0.00  0.00    +0.000 A 
ATOM     15  C   UNL     1      -2.502  -2.493   0.859  0.00  0.00    +0.000 A 
ATOM     16  C   UNL     1      -2.787  -2.253  -0.465  0.00  0.00    +0.000 A 
ENDBRANCH   8  15
ENDBRANCH   1   8
BRANCH   2  17
ATOM     17  S   UNL     1      -2.374   1.008   0.895  0.00  0.00    +0.000 S 
BRANCH  17  18
ATOM     18  C   UNL     1      -2.255   2.676   0.277  0.00  0.00    +0.000 A 
ATOM     19  C   UNL     1      -1.819   3.680   1.120  0.00  0.00    +0.000 A 
ATOM     20  C   UNL     1      -1.710   4.991   0.683  0.00  0.00    +0.000 A 
ATOM     21  C   UNL     1      -2.036   5.336  -0.614  0.00  0.00    +0.000 A 
ATOM     22  C   UNL     1      -2.478   4.336  -1.480  0.00  0.00    +0.000 A 
ATOM     23  C   UNL     1      -2.577   3.030  -1.014  0.00  0.00    +0.000 A 
ENDBRANCH  17  18
ENDBRANCH   2  17
BRANCH   5  24
ATOM     24  C   UNL     1       2.758  -0.035  -0.606  0.00  0.00    +0.000 C 
BRANCH  24  25
ATOM     25  C   UNL     1       3.708   0.465   0.465  0.00  0.00    +0.000 C 
BRANCH  25  26
ATOM     26  C   UNL     1       5.051   0.624  -0.120  0.00  0.00    +0.000 A 
ATOM     27  C   UNL     1       5.925  -0.434  -0.092  0.00  0.00    +0.000 A 
ATOM     28  C   UNL     1       7.193  -0.306  -0.637  0.00  0.00    +0.000 A 
ATOM     29  C   UNL     1       7.580   0.871  -1.204  0.00  0.00    +0.000 A 
ATOM     30  C   UNL     1       6.708   1.926  -1.232  0.00  0.00    +0.000 A 
ATOM     31  C   UNL     1       5.434   1.812  -0.690  0.00  0.00    +0.000 A 
ENDBRANCH  25  26
ENDBRANCH  24  25
ENDBRANCH   5  24
TORSDOF 7
