REMARK  Name = 
REMARK  7 active torsions:
REMARK  status: ('A' for Active; 'I' for Inactive)
REMARK    1  A    between atoms: C_2  and  C_3
REMARK    2  A    between atoms: C_3  and  C_25
REMARK    3  A    between atoms: C_4  and  C_5
REMARK    4  A    between atoms: C_4  and  C_12
REMARK    5  A    between atoms: C_15  and  O_16
REMARK    6  A    between atoms: O_16  and  C_17
REMARK    7  A    between atoms: C_17  and  C_19
REMARK                            x       y       z     vdW  Elec       q    Type
REMARK                         _______ _______ _______ _____ _____    ______ ____
ROOT
ATOM      1  C   UNL     1      -1.865  -1.364   0.030  0.00  0.00    +0.000 C 
ATOM      2  C   UNL     1      -1.242  -0.213   0.061  0.00  0.00    +0.000 C 
ENDROOT
BRANCH   2   3
ATOM      3  C   UNL     1      -1.944   1.033  -0.129  0.00  0.00    +0.000 A 
ATOM      4  C   UNL     1      -1.631   2.036   0.811  0.00  0.00    +0.000 A 
ATOM      5  C   UNL     1      -2.193   3.295   0.757  0.00  0.00    +0.000 A 
ATOM      6  C   UNL     1      -3.083   3.615  -0.225  0.00  0.00    +0.000 A 
ATOM      7  O   UNL     1      -3.665   4.856  -0.312  0.00  0.00    +0.000 OA
ATOM      8  C   UNL     1      -3.395   2.635  -1.153  0.00  0.00    +0.000 A 
ATOM      9  C   UNL     1      -2.828   1.396  -1.080  0.00  0.00    +0.000 A 
ENDBRANCH   2   3
BRANCH   2  10
ATOM     10  C   UNL     1       0.227  -0.201   0.301  0.00  0.00    +0.000 A 
ATOM     11  C   UNL     1       0.803   0.829   0.966  0.00  0.00    +0.000 A 
ATOM     12  C   UNL     1       2.164   0.816   1.182  0.00  0.00    +0.000 A 
ATOM     13  C   UNL     1       2.952  -0.219   0.738  0.00  0.00    +0.000 A 
ATOM     14  C   UNL     1       2.349  -1.257   0.064  0.00  0.00    +0.000 A 
ATOM     15  C   UNL     1       0.960  -1.248  -0.160  0.00  0.00    +0.000 A 
BRANCH  13  16
ATOM     16  O   UNL     1       4.322  -0.169   0.990  0.00  0.00    +0.000 OA
BRANCH  16  17
ATOM     17  C   UNL     1       5.240   0.089  -0.018  0.00  0.00    +0.000 C 
ATOM     18  O   UNL     1       4.734   0.267  -1.174  0.00  0.00    +0.000 OA
BRANCH  17  19
ATOM     19  C   UNL     1       6.696   0.166   0.166  0.00  0.00    +0.000 C 
ATOM     20  C   UNL     1       7.418   0.286  -1.164  0.00  0.00    +0.000 C 
ATOM     21  C   UNL     1       6.977   1.432   1.002  0.00  0.00    +0.000 C 
ATOM     22  C   UNL     1       7.217  -1.078   0.859  0.00  0.00    +0.000 C 
ENDBRANCH  17  19
ENDBRANCH  16  17
ENDBRANCH  13  16
ENDBRANCH   2  10
BRANCH   1  23
ATOM     23  C   UNL     1      -3.274  -1.525  -0.200  0.00  0.00    +0.000 A 
ATOM     24  C   UNL     1      -3.946  -2.410   0.674  0.00  0.00    +0.000 A 
ATOM     25  C   UNL     1      -5.288  -2.684   0.546  0.00  0.00    +0.000 A 
ATOM     26  C   UNL     1      -6.047  -2.105  -0.447  0.00  0.00    +0.000 A 
ATOM     27  C   UNL     1      -5.416  -1.239  -1.310  0.00  0.00    +0.000 A 
ATOM     28  C   UNL     1      -4.064  -0.987  -1.153  0.00  0.00    +0.000 A 
ENDBRANCH   1  23
BRANCH   1  30
ATOM     29  C   UNL     1      -1.176  -3.437  -1.028  0.00  0.00    +0.000 C 
ATOM     30  C   UNL     1      -1.003  -2.617   0.246  0.00  0.00    +0.000 C 
ENDBRANCH   1  30
TORSDOF 7
