REMARK  Name = 
REMARK  8 active torsions:
REMARK  status: ('A' for Active; 'I' for Inactive)
REMARK    1  A    between atoms: C_2  and  C_5
REMARK    2  A    between atoms: C_8  and  C_9
REMARK    3  A    between atoms: C_12  and  C_13
REMARK    4  A    between atoms: C_21  and  C_22
REMARK    5  A    between atoms: N_24  and  C_25
REMARK    6  A    between atoms: C_25  and  C_26
REMARK    7  A    between atoms: C_26  and  O_27
REMARK    8  A    between atoms: O_27  and  C_28
REMARK                            x       y       z     vdW  Elec       q    Type
REMARK                         _______ _______ _______ _____ _____    ______ ____
ROOT
ATOM      1  C   UNL     1       0.720  -1.987  -1.364  0.00  0.00    +0.000 A 
ATOM      2  N   UNL     1      -0.155  -2.492  -2.280  0.00  0.00    +0.000 NA
ATOM      3  O   UNL     1      -1.304  -1.976  -2.130  0.00  0.00    +0.000 OA
ATOM      4  C   UNL     1      -1.304  -1.091  -1.116  0.00  0.00    +0.000 A 
ATOM      5  C   UNL     1      -0.034  -1.086  -0.621  0.00  0.00    +0.000 A 
ENDROOT
BRANCH   4   6
ATOM      6  C   UNL     1      -2.469  -0.334  -0.695  0.00  0.00    +0.000 A 
ATOM      7  C   UNL     1      -3.678  -0.548  -1.389  0.00  0.00    +0.000 A 
ATOM      8  C   UNL     1      -4.835   0.119  -1.071  0.00  0.00    +0.000 A 
ATOM      9  C   UNL     1      -4.832   1.038  -0.032  0.00  0.00    +0.000 A 
ATOM     10  C   UNL     1      -3.673   1.281   0.676  0.00  0.00    +0.000 A 
ATOM     11  C   UNL     1      -2.553   0.580   0.304  0.00  0.00    +0.000 A 
BRANCH   9  12
ATOM     12  C   UNL     1      -6.014   1.780   0.362  0.00  0.00    +0.000 A 
ATOM     13  C   UNL     1      -5.875   3.055   0.884  0.00  0.00    +0.000 A 
ATOM     14  C   UNL     1      -6.978   3.766   1.260  0.00  0.00    +0.000 A 
ATOM     15  C   UNL     1      -8.261   3.271   1.146  0.00  0.00    +0.000 A 
ATOM     16  C   UNL     1      -8.415   1.994   0.624  0.00  0.00    +0.000 A 
ATOM     17  C   UNL     1      -7.294   1.283   0.247  0.00  0.00    +0.000 A 
ENDBRANCH   9  12
ENDBRANCH   4   6
BRANCH   1  19
ATOM     18  C   UNL     1       2.458  -2.928   0.146  0.00  0.00    +0.000 C 
ATOM     19  C   UNL     1       2.144  -2.342  -1.208  0.00  0.00    +0.000 C 
ATOM     20  C   UNL     1       2.505  -3.439  -2.236  0.00  0.00    +0.000 C 
ATOM     21  C   UNL     1       3.050  -1.157  -1.539  0.00  0.00    +0.000 C 
ENDBRANCH   1  19
BRANCH   5  22
ATOM     22  C   UNL     1       0.497  -0.295   0.473  0.00  0.00    +0.000 C 
ATOM     23  O   UNL     1      -0.178   0.477   1.174  0.00  0.00    +0.000 OA
ATOM     24  N   UNL     1       1.894  -0.351   0.834  0.00  0.00    +0.000 NA
BRANCH  24  25
ATOM     25  C   UNL     1       2.410   0.452   1.935  0.00  0.00    +0.000 C 
BRANCH  25  26
ATOM     26  C   UNL     1       3.885   0.148   2.031  0.00  0.00    +0.000 C 
BRANCH  26  27
ATOM     27  O   UNL     1       4.564   0.477   0.832  0.00  0.00    +0.000 OA
BRANCH  27  28
ATOM     28  C   UNL     1       5.943   0.253   0.767  0.00  0.00    +0.000 A 
ATOM     29  C   UNL     1       6.601   0.579  -0.414  0.00  0.00    +0.000 A 
ATOM     30  C   UNL     1       7.946   0.374  -0.514  0.00  0.00    +0.000 A 
ATOM     31  C   UNL     1       8.643  -0.153   0.550  0.00  0.00    +0.000 A 
ATOM     32  C   UNL     1       7.974  -0.473   1.721  0.00  0.00    +0.000 A 
ATOM     33  C   UNL     1       6.617  -0.276   1.846  0.00  0.00    +0.000 A 
ENDBRANCH  27  28
ENDBRANCH  26  27
ENDBRANCH  25  26
ENDBRANCH  24  25
ENDBRANCH   5  22
TORSDOF 8
