REMARK  Name = 
REMARK  7 active torsions:
REMARK  status: ('A' for Active; 'I' for Inactive)
REMARK    1  A    between atoms: C_10  and  C_11
REMARK    2  A    between atoms: N_17  and  C_18
REMARK    3  A    between atoms: C_18  and  C_19
REMARK    4  A    between atoms: C_22  and  O_23
REMARK    5  A    between atoms: O_23  and  C_24
REMARK    6  A    between atoms: C_24  and  C_25
REMARK    7  A    between atoms: C_25  and  N_26
REMARK                            x       y       z     vdW  Elec       q    Type
REMARK                         _______ _______ _______ _____ _____    ______ ____
ROOT
ATOM      1  O   UNL     1      -3.908   4.646   1.971  0.00  0.00    +0.000 OA
ATOM      2  C   UNL     1      -3.438   3.443   1.429  0.00  0.00    +0.000 A 
ATOM      3  C   UNL     1      -3.125   3.341   0.091  0.00  0.00    +0.000 A 
ATOM      4  C   UNL     1      -2.662   2.182  -0.486  0.00  0.00    +0.000 A 
ATOM      5  C   UNL     1      -2.499   1.047   0.325  0.00  0.00    +0.000 A 
ATOM      6  C   UNL     1      -2.813   1.150   1.668  0.00  0.00    +0.000 A 
ATOM      7  C   UNL     1      -3.265   2.310   2.190  0.00  0.00    +0.000 A 
ATOM      8  C   UNL     1      -2.606  -0.101   2.452  0.00  0.00    +0.000 C 
ATOM      9  C   UNL     1      -1.700  -1.056   1.843  0.00  0.00    +0.000 C 
ATOM     10  C   UNL     1      -2.258  -1.507   0.363  0.00  0.00    +0.000 C 
ATOM     11  N   UNL     1      -2.037  -0.100  -0.276  0.00  0.00    +0.000 N 
ENDROOT
BRANCH  10  12
ATOM     12  C   UNL     1      -3.802  -1.406   0.650  0.00  0.00    +0.000 A 
ATOM     13  C   UNL     1      -4.305  -1.801   1.837  0.00  0.00    +0.000 A 
ATOM     14  C   UNL     1      -5.651  -1.723   2.111  0.00  0.00    +0.000 A 
ATOM     15  C   UNL     1      -6.496  -1.231   1.148  0.00  0.00    +0.000 A 
ATOM     16  C   UNL     1      -6.014  -0.817  -0.079  0.00  0.00    +0.000 A 
ATOM     17  C   UNL     1      -4.626  -0.919  -0.305  0.00  0.00    +0.000 A 
ENDBRANCH  10  12
BRANCH  11  18
ATOM     18  C   UNL     1      -1.320  -0.060  -1.530  0.00  0.00    +0.000 C 
BRANCH  18  19
ATOM     19  C   UNL     1       0.047  -0.616  -1.423  0.00  0.00    +0.000 A 
ATOM     20  C   UNL     1       0.195  -1.871  -0.874  0.00  0.00    +0.000 A 
ATOM     21  C   UNL     1       1.425  -2.459  -0.736  0.00  0.00    +0.000 A 
ATOM     22  C   UNL     1       2.546  -1.796  -1.150  0.00  0.00    +0.000 A 
ATOM     23  C   UNL     1       2.429  -0.547  -1.700  0.00  0.00    +0.000 A 
ATOM     24  C   UNL     1       1.193   0.049  -1.841  0.00  0.00    +0.000 A 
BRANCH  22  25
ATOM     25  O   UNL     1       3.792  -2.393  -1.009  0.00  0.00    +0.000 OA
BRANCH  25  26
ATOM     26  C   UNL     1       4.952  -1.721  -1.433  0.00  0.00    +0.000 C 
BRANCH  26  27
ATOM     27  C   UNL     1       5.085  -0.399  -0.669  0.00  0.00    +0.000 C 
BRANCH  27  28
ATOM     28  N   UNL     1       6.266   0.271  -1.105  0.00  0.00    +0.000 NA
ATOM     29  C   UNL     1       7.458  -0.407  -0.705  0.00  0.00    +0.000 C 
ATOM     30  C   UNL     1       7.851   0.022   0.714  0.00  0.00    +0.000 C 
ATOM     31  C   UNL     1       6.686   0.754   1.353  0.00  0.00    +0.000 C 
ATOM     32  C   UNL     1       6.359   2.037   0.594  0.00  0.00    +0.000 C 
ATOM     33  C   UNL     1       6.239   1.680  -0.857  0.00  0.00    +0.000 C 
ENDBRANCH  27  28
ENDBRANCH  26  27
ENDBRANCH  25  26
ENDBRANCH  22  25
ENDBRANCH  18  19
ENDBRANCH  11  18
TORSDOF 7
