REMARK  Name = 
REMARK  7 active torsions:
REMARK  status: ('A' for Active; 'I' for Inactive)
REMARK    1  A    between atoms: O_2  and  C_3
REMARK    2  A    between atoms: C_6  and  C_7
REMARK    3  A    between atoms: C_9  and  C_10
REMARK    4  A    between atoms: N_12  and  C_13
REMARK    5  A    between atoms: C_13  and  C_15
REMARK    6  A    between atoms: C_15  and  C_16
REMARK    7  A    between atoms: C_16  and  C_17
REMARK                            x       y       z     vdW  Elec       q    Type
REMARK                         _______ _______ _______ _____ _____    ______ ____
ROOT
ATOM      1  C   UNL     1      -2.922   0.004  -0.315  0.00  0.00    +0.000 A 
ATOM      2  C   UNL     1      -1.652   0.379   0.080  0.00  0.00    +0.000 A 
ATOM      3  C   UNL     1      -0.560  -0.448  -0.021  0.00  0.00    +0.000 A 
ATOM      4  C   UNL     1      -0.718  -1.691  -0.527  0.00  0.00    +0.000 A 
ATOM      5  C   UNL     1       0.366  -2.510  -0.624  0.00  0.00    +0.000 A 
ATOM      6  C   UNL     1       0.197  -3.777  -1.141  0.00  0.00    +0.000 A 
ATOM      7  C   UNL     1      -1.071  -4.189  -1.549  0.00  0.00    +0.000 A 
ATOM      8  C   UNL     1      -2.145  -3.344  -1.440  0.00  0.00    +0.000 A 
ATOM      9  C   UNL     1      -2.000  -2.068  -0.925  0.00  0.00    +0.000 A 
ATOM     10  N   UNL     1      -3.044  -1.229  -0.811  0.00  0.00    +0.000 NA
ENDROOT
BRANCH   1  14
ATOM     11  C   UNL     1      -6.082   2.835   0.089  0.00  0.00    +0.000 A 
ATOM     12  C   UNL     1      -4.799   3.129   0.494  0.00  0.00    +0.000 A 
ATOM     13  C   UNL     1      -3.814   2.179   0.345  0.00  0.00    +0.000 A 
ATOM     14  C   UNL     1      -4.041   0.930  -0.196  0.00  0.00    +0.000 A 
ATOM     15  C   UNL     1      -5.313   0.646  -0.595  0.00  0.00    +0.000 A 
ATOM     16  C   UNL     1      -6.315   1.589  -0.452  0.00  0.00    +0.000 A 
BRANCH  11  18
ATOM     17  C   UNL     1      -6.816   5.032   0.787  0.00  0.00    +0.000 C 
ATOM     18  O   UNL     1      -7.097   3.777   0.229  0.00  0.00    +0.000 OA
ENDBRANCH  11  18
ENDBRANCH   1  14
BRANCH   3  19
ATOM     19  C   UNL     1       0.718   0.106   0.421  0.00  0.00    +0.000 C 
ATOM     20  O   UNL     1       0.788   1.257   0.960  0.00  0.00    +0.000 OA
ATOM     21  N   UNL     1       1.835  -0.664   0.228  0.00  0.00    +0.000 NA
BRANCH  21  22
ATOM     22  C   UNL     1       3.267  -0.162   0.660  0.00  0.00    +0.000 C 
ATOM     23  C   UNL     1       2.863  -0.104   2.281  0.00  0.00    +0.000 C 
BRANCH  22  24
ATOM     24  C   UNL     1       3.878  -1.722   0.820  0.00  0.00    +0.000 C 
BRANCH  24  25
ATOM     25  C   UNL     1       5.301  -1.307   1.236  0.00  0.00    +0.000 C 
BRANCH  25  26
ATOM     26  C   UNL     1       5.924  -0.493   0.154  0.00  0.00    +0.000 A 
ATOM     27  C   UNL     1       5.826   0.870   0.048  0.00  0.00    +0.000 A 
ATOM     28  C   UNL     1       6.399   1.611  -0.949  0.00  0.00    +0.000 A 
ATOM     29  C   UNL     1       7.137   0.948  -1.932  0.00  0.00    +0.000 A 
ATOM     30  C   UNL     1       7.239  -0.434  -1.828  0.00  0.00    +0.000 A 
ATOM     31  C   UNL     1       6.650  -1.152  -0.812  0.00  0.00    +0.000 A 
ENDBRANCH  25  26
ENDBRANCH  24  25
ENDBRANCH  22  24
ENDBRANCH  21  22
ENDBRANCH   3  19
TORSDOF 7
