REMARK  Name = 
REMARK  7 active torsions:
REMARK  status: ('A' for Active; 'I' for Inactive)
REMARK    1  A    between atoms: O_2  and  C_3
REMARK    2  A    between atoms: C_6  and  C_7
REMARK    3  A    between atoms: C_7  and  C_8
REMARK    4  A    between atoms: C_8  and  C_9
REMARK    5  A    between atoms: N_11  and  C_12
REMARK    6  A    between atoms: N_16  and  C_17
REMARK    7  A    between atoms: C_17  and  C_18
REMARK                            x       y       z     vdW  Elec       q    Type
REMARK                         _______ _______ _______ _____ _____    ______ ____
ROOT
ATOM      1  C   UNL     1      -0.513   1.788   0.430  0.00  0.00    +0.000 A 
ATOM      2  C   UNL     1      -1.242   2.322  -0.614  0.00  0.00    +0.000 A 
ATOM      3  C   UNL     1      -0.616   2.883  -1.840  0.00  0.00    +0.000 C 
ATOM      4  N   UNL     1      -2.544   2.236  -0.318  0.00  0.00    +0.000 NA
ATOM      5  N   UNL     1      -2.700   1.678   0.858  0.00  0.00    +0.000 N 
ATOM      6  C   UNL     1      -1.476   1.395   1.334  0.00  0.00    +0.000 A 
ATOM      7  C   UNL     1      -1.191   0.753   2.643  0.00  0.00    +0.000 C 
ENDROOT
BRANCH   1  10
ATOM      8  C   UNL     1       1.595   0.505   0.198  0.00  0.00    +0.000 C 
ATOM      9  O   UNL     1       0.929  -0.429  -0.334  0.00  0.00    +0.000 OA
ATOM     10  N   UNL     1       0.886   1.652   0.599  0.00  0.00    +0.000 NA
BRANCH   8  11
ATOM     11  C   UNL     1       3.087   0.386   0.391  0.00  0.00    +0.000 C 
BRANCH  11  12
ATOM     12  C   UNL     1       3.538  -0.964  -0.106  0.00  0.00    +0.000 C 
BRANCH  12  16
ATOM     13  C   UNL     1       7.797  -1.178   0.481  0.00  0.00    +0.000 A 
ATOM     14  C   UNL     1       6.929  -1.586   1.465  0.00  0.00    +0.000 A 
ATOM     15  C   UNL     1       5.556  -1.511   1.261  0.00  0.00    +0.000 A 
ATOM     16  C   UNL     1       5.007  -1.037   0.097  0.00  0.00    +0.000 A 
ATOM     17  C   UNL     1       5.902  -0.627  -0.892  0.00  0.00    +0.000 A 
ATOM     18  C   UNL     1       7.271  -0.700  -0.695  0.00  0.00    +0.000 A 
BRANCH  13  20
ATOM     19  C   UNL     1      10.101  -0.842  -0.311  0.00  0.00    +0.000 C 
ATOM     20  O   UNL     1       9.172  -1.258   0.694  0.00  0.00    +0.000 OA
ENDBRANCH  13  20
ENDBRANCH  12  16
ENDBRANCH  11  12
ENDBRANCH   8  11
ENDBRANCH   1  10
BRANCH   5  21
ATOM     21  C   UNL     1      -3.980   1.401   1.541  0.00  0.00    +0.000 C 
BRANCH  21  22
ATOM     22  C   UNL     1      -4.487   0.062   1.149  0.00  0.00    +0.000 A 
ATOM     23  C   UNL     1      -4.376  -1.054   1.941  0.00  0.00    +0.000 A 
ATOM     24  C   UNL     1      -4.860  -2.278   1.520  0.00  0.00    +0.000 A 
ATOM     25  C   UNL     1      -5.467  -2.413   0.295  0.00  0.00    +0.000 A 
ATOM     26  C   UNL     1      -5.591  -1.309  -0.518  0.00  0.00    +0.000 A 
ATOM     27  C   UNL     1      -6.198  -1.384  -1.764  0.00  0.00    +0.000 A 
ATOM     28  C   UNL     1      -6.342  -0.305  -2.598  0.00  0.00    +0.000 A 
ATOM     29  C   UNL     1      -5.843   0.912  -2.143  0.00  0.00    +0.000 A 
ATOM     30  C   UNL     1      -5.241   1.001  -0.913  0.00  0.00    +0.000 A 
ATOM     31  C   UNL     1      -5.106  -0.102  -0.087  0.00  0.00    +0.000 A 
ENDBRANCH  21  22
ENDBRANCH   5  21
TORSDOF 7
