REMARK  Name = 
REMARK  6 active torsions:
REMARK  status: ('A' for Active; 'I' for Inactive)
REMARK    1  A    between atoms: C_7  and  N_8
REMARK    2  A    between atoms: C_9  and  C_11
REMARK    3  A    between atoms: C_11  and  C_12
REMARK    4  A    between atoms: C_14  and  C_15
REMARK    5  A    between atoms: N_17  and  C_18
REMARK    6  A    between atoms: C_18  and  C_19
REMARK                            x       y       z     vdW  Elec       q    Type
REMARK                         _______ _______ _______ _____ _____    ______ ____
ROOT
ATOM      1  C   UNL     1      -0.781  -0.282   0.430  0.00  0.00    +0.000 A 
ATOM      2  C   UNL     1      -1.732   0.321   1.261  0.00  0.00    +0.000 A 
ATOM      3  N   UNL     1      -2.945  -0.096   0.872  0.00  0.00    +0.000 N 
ATOM      4  C   UNL     1      -2.837  -0.944  -0.177  0.00  0.00    +0.000 A 
ATOM      5  C   UNL     1      -3.753  -1.632  -0.942  0.00  0.00    +0.000 A 
ATOM      6  C   UNL     1      -3.295  -2.424  -1.972  0.00  0.00    +0.000 A 
ATOM      7  C   UNL     1      -1.955  -2.558  -2.271  0.00  0.00    +0.000 A 
ATOM      8  C   UNL     1      -1.070  -1.870  -1.502  0.00  0.00    +0.000 A 
ATOM      9  C   UNL     1      -1.476  -1.068  -0.465  0.00  0.00    +0.000 A 
ENDROOT
BRANCH   1  11
ATOM     10  C   UNL     1       1.555  -1.027   0.515  0.00  0.00    +0.000 C 
ATOM     11  C   UNL     1       0.657  -0.080   0.497  0.00  0.00    +0.000 C 
BRANCH  10  13
ATOM     12  N   UNL     1       3.525   0.431   0.620  0.00  0.00    +0.000 NA
ATOM     13  C   UNL     1       2.994  -0.822   0.577  0.00  0.00    +0.000 C 
ATOM     14  O   UNL     1       3.800  -1.793   0.593  0.00  0.00    +0.000 OA
BRANCH  12  21
ATOM     15  C   UNL     1       5.144   0.563  -1.897  0.00  0.00    +0.000 C 
ATOM     16  C   UNL     1       5.072   1.646  -0.711  0.00  0.00    +0.000 C 
ATOM     17  C   UNL     1       6.655   1.966  -0.701  0.00  0.00    +0.000 C 
ATOM     18  C   UNL     1       7.450   0.876  -0.204  0.00  0.00    +0.000 C 
ATOM     19  C   UNL     1       6.995  -0.507  -0.328  0.00  0.00    +0.000 C 
ATOM     20  C   UNL     1       5.577  -0.759   0.049  0.00  0.00    +0.000 C 
ATOM     21  C   UNL     1       5.081   0.660   0.683  0.00  0.00    +0.000 C 
ENDBRANCH  12  21
ENDBRANCH  10  13
BRANCH  10  22
ATOM     22  C   UNL     1       1.111  -2.409   0.511  0.00  0.00    +0.000 C 
ATOM     23  N   UNL     1       0.773  -3.525   0.530  0.00  0.00    +0.000 NA
ENDBRANCH  10  22
ENDBRANCH   1  11
BRANCH   3  24
ATOM     24  C   UNL     1      -4.217   0.249   1.438  0.00  0.00    +0.000 C 
BRANCH  24  25
ATOM     25  C   UNL     1      -4.813   1.436   0.778  0.00  0.00    +0.000 A 
ATOM     26  C   UNL     1      -4.561   2.704   1.250  0.00  0.00    +0.000 A 
ATOM     27  C   UNL     1      -5.150   3.775   0.594  0.00  0.00    +0.000 A 
ATOM     28  C   UNL     1      -5.961   3.584  -0.496  0.00  0.00    +0.000 A 
ATOM     29  C   UNL     1      -6.219   2.307  -0.978  0.00  0.00    +0.000 A 
ATOM     30  C   UNL     1      -5.625   1.277  -0.310  0.00  0.00    +0.000 A 
ENDBRANCH  24  25
ENDBRANCH   3  24
TORSDOF 6
