REMARK  Name = 
REMARK  9 active torsions:
REMARK  status: ('A' for Active; 'I' for Inactive)
REMARK    1  A    between atoms: C_2  and  C_3
REMARK    2  A    between atoms: C_3  and  C_4
REMARK    3  A    between atoms: C_4  and  C_5
REMARK    4  A    between atoms: C_5  and  O_6
REMARK    5  A    between atoms: O_6  and  C_7
REMARK    6  A    between atoms: C_7  and  C_9
REMARK    7  A    between atoms: N_12  and  C_13
REMARK    8  A    between atoms: C_13  and  C_14
REMARK    9  A    between atoms: C_19  and  O_20
REMARK                            x       y       z     vdW  Elec       q    Type
REMARK                         _______ _______ _______ _____ _____    ______ ____
ROOT
ATOM      1  C   UNL     1       1.069  -0.408  -0.116  0.00  0.00    +0.000 A 
ATOM      2  C   UNL     1       0.449   0.641   0.559  0.00  0.00    +0.000 A 
ATOM      3  N   UNL     1       1.169   1.808   0.948  0.00  0.00    +0.000 NA
ATOM      4  N   UNL     1      -0.829   0.339   0.767  0.00  0.00    +0.000 N 
ATOM      5  C   UNL     1      -1.026  -0.910   0.223  0.00  0.00    +0.000 A 
ATOM      6  N   UNL     1      -2.138  -1.652   0.176  0.00  0.00    +0.000 NA
ATOM      7  C   UNL     1      -2.063  -2.872  -0.428  0.00  0.00    +0.000 A 
ATOM      8  C   UNL     1      -3.182  -3.688  -0.507  0.00  0.00    +0.000 A 
ATOM      9  C   UNL     1      -3.127  -4.923  -1.111  0.00  0.00    +0.000 A 
ATOM     10  C   UNL     1      -1.964  -5.409  -1.666  0.00  0.00    +0.000 A 
ATOM     11  C   UNL     1      -0.843  -4.610  -1.596  0.00  0.00    +0.000 A 
ATOM     12  C   UNL     1      -0.900  -3.357  -0.983  0.00  0.00    +0.000 A 
ATOM     13  N   UNL     1       0.216  -2.580  -0.920  0.00  0.00    +0.000 NA
ATOM     14  C   UNL     1       0.142  -1.375  -0.323  0.00  0.00    +0.000 A 
ENDROOT
BRANCH   1  15
ATOM     15  C   UNL     1       2.463  -0.469  -0.536  0.00  0.00    +0.000 C 
ATOM     16  O   UNL     1       2.872  -1.491  -1.139  0.00  0.00    +0.000 OA
BRANCH  15  17
ATOM     17  O   UNL     1       3.362   0.552  -0.300  0.00  0.00    +0.000 OA
BRANCH  17  18
ATOM     18  C   UNL     1       4.692   0.405  -0.746  0.00  0.00    +0.000 C 
BRANCH  18  19
ATOM     19  C   UNL     1       5.433   1.673  -0.348  0.00  0.00    +0.000 C 
BRANCH  19  20
ATOM     20  C   UNL     1       5.337   1.752   1.181  0.00  0.00    +0.000 C 
BRANCH  20  22
ATOM     21  C   UNL     1       7.462   0.495   1.241  0.00  0.00    +0.000 C 
ATOM     22  C   UNL     1       6.004   0.493   1.720  0.00  0.00    +0.000 C 
ENDBRANCH  20  22
ENDBRANCH  19  20
ENDBRANCH  18  19
ENDBRANCH  17  18
ENDBRANCH  15  17
ENDBRANCH   1  15
BRANCH   4  23
ATOM     23  C   UNL     1      -1.857   1.116   1.398  0.00  0.00    +0.000 C 
BRANCH  23  24
ATOM     24  C   UNL     1      -2.690   1.917   0.497  0.00  0.00    +0.000 A 
ATOM     25  C   UNL     1      -3.930   1.434   0.088  0.00  0.00    +0.000 A 
ATOM     26  C   UNL     1      -4.741   2.133  -0.776  0.00  0.00    +0.000 A 
ATOM     27  C   UNL     1      -4.299   3.351  -1.245  0.00  0.00    +0.000 A 
ATOM     28  C   UNL     1      -3.082   3.833  -0.847  0.00  0.00    +0.000 A 
ATOM     29  C   UNL     1      -2.278   3.118   0.023  0.00  0.00    +0.000 A 
BRANCH  29  30
ATOM     30  O   UNL     1      -1.075   3.717   0.348  0.00  0.00    +0.000 OA
ATOM     31  C   UNL     1      -0.648   4.966  -0.146  0.00  0.00    +0.000 C 
ENDBRANCH  29  30
ENDBRANCH  23  24
ENDBRANCH   4  23
TORSDOF 9
