REMARK  Name = 
REMARK  7 active torsions:
REMARK  status: ('A' for Active; 'I' for Inactive)
REMARK    1  A    between atoms: C_2  and  C_3
REMARK    2  A    between atoms: C_3  and  O_4
REMARK    3  A    between atoms: O_4  and  C_5
REMARK    4  A    between atoms: C_8  and  C_9
REMARK    5  A    between atoms: C_19  and  O_20
REMARK    6  A    between atoms: O_20  and  C_21
REMARK    7  A    between atoms: C_21  and  C_22
REMARK                            x       y       z     vdW  Elec       q    Type
REMARK                         _______ _______ _______ _____ _____    ______ ____
ROOT
ATOM      1  C   UNL     1       2.419  -2.567   0.578  0.00  0.00    +0.000 C 
ATOM      2  N   UNL     1       2.409  -2.869  -0.992  0.00  0.00    +0.000 NA
ATOM      3  C   UNL     1       1.633  -4.102  -1.057  0.00  0.00    +0.000 C 
ATOM      4  C   UNL     1       0.167  -3.697  -1.039  0.00  0.00    +0.000 C 
ATOM      5  C   UNL     1      -0.027  -2.546  -0.098  0.00  0.00    +0.000 A 
ATOM      6  C   UNL     1       0.954  -2.017   0.637  0.00  0.00    +0.000 A 
ATOM      7  N   UNL     1       0.486  -1.031   1.358  0.00  0.00    +0.000 NA
ATOM      8  C   UNL     1      -0.841  -0.849   1.141  0.00  0.00    +0.000 A 
ATOM      9  C   UNL     1      -1.813   0.007   1.607  0.00  0.00    +0.000 A 
ATOM     10  C   UNL     1      -3.109  -0.100   1.149  0.00  0.00    +0.000 A 
ATOM     11  C   UNL     1      -3.483  -1.049   0.221  0.00  0.00    +0.000 A 
ATOM     12  C   UNL     1      -2.484  -1.890  -0.224  0.00  0.00    +0.000 A 
ATOM     13  C   UNL     1      -1.180  -1.832   0.194  0.00  0.00    +0.000 A 
ENDROOT
BRANCH   1  17
ATOM     14  C   UNL     1       4.774   1.033   0.440  0.00  0.00    +0.000 A 
ATOM     15  C   UNL     1       3.759   0.870  -0.458  0.00  0.00    +0.000 A 
ATOM     16  C   UNL     1       2.992  -0.264  -0.439  0.00  0.00    +0.000 A 
ATOM     17  C   UNL     1       3.225  -1.213   0.447  0.00  0.00    +0.000 A 
ATOM     18  C   UNL     1       4.225  -1.100   1.363  0.00  0.00    +0.000 A 
ATOM     19  C   UNL     1       5.040   0.055   1.378  0.00  0.00    +0.000 A 
BRANCH  14  20
ATOM     20  O   UNL     1       5.578   2.201   0.434  0.00  0.00    +0.000 OA
BRANCH  20  21
ATOM     21  C   UNL     1       5.277   3.179  -0.538  0.00  0.00    +0.000 C 
BRANCH  21  23
ATOM     22  C   UNL     1       7.664   3.780  -0.542  0.00  0.00    +0.000 C 
ATOM     23  C   UNL     1       6.249   4.314  -0.355  0.00  0.00    +0.000 C 
ENDBRANCH  21  23
ENDBRANCH  20  21
ENDBRANCH  14  20
ENDBRANCH   1  17
BRANCH  11  24
ATOM     24  O   UNL     1      -4.756  -1.214  -0.281  0.00  0.00    +0.000 OA
BRANCH  24  25
ATOM     25  C   UNL     1      -5.896  -0.502   0.012  0.00  0.00    +0.000 C 
BRANCH  25  26
ATOM     26  C   UNL     1      -5.714   0.932  -0.326  0.00  0.00    +0.000 A 
ATOM     27  C   UNL     1      -5.254   1.767   0.670  0.00  0.00    +0.000 A 
ATOM     28  C   UNL     1      -5.088   3.098   0.346  0.00  0.00    +0.000 A 
ATOM     29  C   UNL     1      -5.372   3.539  -0.907  0.00  0.00    +0.000 A 
ATOM     30  C   UNL     1      -5.830   2.702  -1.894  0.00  0.00    +0.000 A 
ATOM     31  C   UNL     1      -6.005   1.364  -1.594  0.00  0.00    +0.000 A 
ENDBRANCH  25  26
ENDBRANCH  24  25
ENDBRANCH  11  24
TORSDOF 7
