REMARK  Name = 
REMARK  8 active torsions:
REMARK  status: ('A' for Active; 'I' for Inactive)
REMARK    1  A    between atoms: O_2  and  C_3
REMARK    2  A    between atoms: C_6  and  C_7
REMARK    3  A    between atoms: C_9  and  C_10
REMARK    4  A    between atoms: C_16  and  C_17
REMARK    5  A    between atoms: C_19  and  S_20
REMARK    6  A    between atoms: S_20  and  C_21
REMARK    7  A    between atoms: C_21  and  C_22
REMARK    8  A    between atoms: C_22  and  N_23
REMARK                            x       y       z     vdW  Elec       q    Type
REMARK                         _______ _______ _______ _____ _____    ______ ____
ROOT
ATOM      1  C   UNL     1      -1.687   0.731  -0.068  0.00  0.00    +0.000 A 
ATOM      2  C   UNL     1      -1.785  -0.647  -0.075  0.00  0.00    +0.000 A 
ATOM      3  C   UNL     1      -0.673  -1.422  -0.138  0.00  0.00    +0.000 A 
ATOM      4  C   UNL     1       0.588  -0.832  -0.197  0.00  0.00    +0.000 A 
ATOM      5  C   UNL     1       0.672   0.521  -0.190  0.00  0.00    +0.000 A 
ATOM      6  N   UNL     1      -0.461   1.254  -0.127  0.00  0.00    +0.000 NA
ENDROOT
BRANCH   1  10
ATOM      7  C   UNL     1      -5.151   3.183   0.117  0.00  0.00    +0.000 A 
ATOM      8  C   UNL     1      -5.244   1.809   0.117  0.00  0.00    +0.000 A 
ATOM      9  C   UNL     1      -4.105   1.001   0.057  0.00  0.00    +0.000 A 
ATOM     10  C   UNL     1      -2.873   1.566  -0.003  0.00  0.00    +0.000 A 
ATOM     11  C   UNL     1      -2.751   2.938  -0.004  0.00  0.00    +0.000 A 
ATOM     12  C   UNL     1      -3.885   3.745   0.056  0.00  0.00    +0.000 A 
BRANCH   7  14
ATOM     13  C   UNL     1      -7.556   3.363   0.239  0.00  0.00    +0.000 C 
ATOM     14  O   UNL     1      -6.280   3.996   0.177  0.00  0.00    +0.000 OA
ENDBRANCH   7  14
ENDBRANCH   1  10
BRANCH   3  15
ATOM     15  C   UNL     1      -0.746  -2.890  -0.144  0.00  0.00    +0.000 A 
ATOM     16  C   UNL     1      -1.655  -3.533  -0.949  0.00  0.00    +0.000 A 
ATOM     17  C   UNL     1      -1.710  -4.893  -0.942  0.00  0.00    +0.000 A 
ATOM     18  C   UNL     1      -0.863  -5.612  -0.135  0.00  0.00    +0.000 A 
ATOM     19  C   UNL     1       0.048  -4.997   0.673  0.00  0.00    +0.000 A 
ATOM     20  C   UNL     1       0.097  -3.631   0.659  0.00  0.00    +0.000 A 
ENDBRANCH   3  15
BRANCH   4  21
ATOM     21  C   UNL     1       1.736  -1.669  -0.270  0.00  0.00    +0.000 C 
ATOM     22  N   UNL     1       2.642  -2.351  -0.344  0.00  0.00    +0.000 NA
ENDBRANCH   4  21
BRANCH   5  23
ATOM     23  S   UNL     1       2.194   1.425  -0.259  0.00  0.00    +0.000 S 
BRANCH  23  24
ATOM     24  C   UNL     1       2.773   1.712   1.427  0.00  0.00    +0.000 C 
BRANCH  24  25
ATOM     25  C   UNL     1       3.365   0.459   2.016  0.00  0.00    +0.000 C 
BRANCH  25  26
ATOM     26  N   UNL     1       4.613   0.118   1.293  0.00  0.00    +0.000 NA
ATOM     27  C   UNL     1       5.547   1.166   1.760  0.00  0.00    +0.000 C 
ATOM     28  C   UNL     1       6.802   1.200   0.940  0.00  0.00    +0.000 C 
ATOM     29  C   UNL     1       6.444   1.541  -0.509  0.00  0.00    +0.000 C 
ATOM     30  C   UNL     1       5.565   0.376  -0.973  0.00  0.00    +0.000 C 
ATOM     31  C   UNL     1       4.339   0.370  -0.121  0.00  0.00    +0.000 C 
ENDBRANCH  25  26
ENDBRANCH  24  25
ENDBRANCH  23  24
ENDBRANCH   5  23
TORSDOF 8
