REMARK  Name = 
REMARK  8 active torsions:
REMARK  status: ('A' for Active; 'I' for Inactive)
REMARK    1  A    between atoms: C_2  and  C_3
REMARK    2  A    between atoms: C_3  and  C_6
REMARK    3  A    between atoms: C_9  and  O_10
REMARK    4  A    between atoms: O_10  and  C_11
REMARK    5  A    between atoms: C_14  and  N_15
REMARK    6  A    between atoms: C_16  and  C_18
REMARK    7  A    between atoms: C_18  and  O_19
REMARK    8  A    between atoms: O_19  and  C_20
REMARK                            x       y       z     vdW  Elec       q    Type
REMARK                         _______ _______ _______ _____ _____    ______ ____
ROOT
ATOM      1  C   UNL     1       2.744  -0.913   1.301  0.00  0.00    +0.000 A 
ATOM      2  C   UNL     1       1.751   0.053   1.329  0.00  0.00    +0.000 A 
ATOM      3  C   UNL     1       0.426  -0.281   1.087  0.00  0.00    +0.000 A 
ATOM      4  C   UNL     1       0.041  -1.577   0.811  0.00  0.00    +0.000 A 
ATOM      5  C   UNL     1       1.057  -2.527   0.789  0.00  0.00    +0.000 A 
ATOM      6  C   UNL     1       2.379  -2.230   1.024  0.00  0.00    +0.000 A 
ENDROOT
BRANCH   4   7
ATOM      7  N   UNL     1      -1.297  -1.985   0.570  0.00  0.00    +0.000 NA
ATOM      8  C   UNL     1      -2.387  -1.068   0.500  0.00  0.00    +0.000 C 
ATOM      9  O   UNL     1      -2.110   0.149   0.660  0.00  0.00    +0.000 OA
BRANCH   8  10
ATOM     10  C   UNL     1      -3.781  -1.565   0.248  0.00  0.00    +0.000 C 
BRANCH  10  11
ATOM     11  O   UNL     1      -4.642  -0.446   0.169  0.00  0.00    +0.000 OA
BRANCH  11  12
ATOM     12  C   UNL     1      -5.994  -0.753  -0.045  0.00  0.00    +0.000 A 
ATOM     13  N   UNL     1      -6.450  -2.021  -0.161  0.00  0.00    +0.000 NA
ATOM     14  C   UNL     1      -7.753  -2.278  -0.367  0.00  0.00    +0.000 A 
ATOM     15  N   UNL     1      -8.650  -1.272  -0.463  0.00  0.00    +0.000 NA
ATOM     16  C   UNL     1      -8.265   0.008  -0.357  0.00  0.00    +0.000 A 
ATOM     17  C   UNL     1      -9.137   1.073  -0.453  0.00  0.00    +0.000 A 
ATOM     18  C   UNL     1      -8.692   2.381  -0.343  0.00  0.00    +0.000 A 
ATOM     19  C   UNL     1      -7.354   2.630  -0.135  0.00  0.00    +0.000 A 
ATOM     20  C   UNL     1      -6.491   1.555  -0.040  0.00  0.00    +0.000 A 
ATOM     21  C   UNL     1      -6.921   0.252  -0.147  0.00  0.00    +0.000 A 
ENDBRANCH  11  12
ENDBRANCH  10  11
ENDBRANCH   8  10
ENDBRANCH   4   7
BRANCH   1  22
ATOM     22  O   UNL     1       4.051  -0.615   1.540  0.00  0.00    +0.000 OA
BRANCH  22  26
ATOM     23  C   UNL     1       6.872   0.961  -1.067  0.00  0.00    +0.000 A 
ATOM     24  C   UNL     1       6.738  -0.406  -0.974  0.00  0.00    +0.000 A 
ATOM     25  C   UNL     1       5.794  -0.914  -0.103  0.00  0.00    +0.000 A 
ATOM     26  C   UNL     1       4.976  -0.158   0.679  0.00  0.00    +0.000 A 
ATOM     27  C   UNL     1       5.127   1.226   0.571  0.00  0.00    +0.000 A 
ATOM     28  C   UNL     1       6.059   1.760  -0.290  0.00  0.00    +0.000 A 
BRANCH  23  29
ATOM     29  C   UNL     1       7.870   1.629  -1.966  0.00  0.00    +0.000 C 
ATOM     30  C   UNL     1       8.784   0.596  -2.561  0.00  0.00    +0.000 C 
ATOM     31  C   UNL     1       7.178   2.402  -3.050  0.00  0.00    +0.000 C 
BRANCH  29  33
ATOM     32  C   UNL     1       9.368   1.768  -0.005  0.00  0.00    +0.000 C 
ATOM     33  C   UNL     1       8.708   2.566  -1.088  0.00  0.00    +0.000 C 
ENDBRANCH  29  33
ENDBRANCH  23  29
ENDBRANCH  22  26
ENDBRANCH   1  22
TORSDOF 8
