REMARK  Name = 
REMARK  9 active torsions:
REMARK  status: ('A' for Active; 'I' for Inactive)
REMARK    1  A    between atoms: C_2  and  C_3
REMARK    2  A    between atoms: C_3  and  C_4
REMARK    3  A    between atoms: C_4  and  O_5
REMARK    4  A    between atoms: O_5  and  C_6
REMARK    5  A    between atoms: C_6  and  C_8
REMARK    6  A    between atoms: N_11  and  C_12
REMARK    7  A    between atoms: C_12  and  C_13
REMARK    8  A    between atoms: C_13  and  C_14
REMARK    9  A    between atoms: C_17  and  O_18
REMARK                            x       y       z     vdW  Elec       q    Type
REMARK                         _______ _______ _______ _____ _____    ______ ____
ROOT
ATOM      1  C   UNL     1      -1.823   1.020   0.099  0.00  0.00    +0.000 A 
ATOM      2  C   UNL     1      -0.522   1.458  -0.016  0.00  0.00    +0.000 A 
ATOM      3  N   UNL     1      -0.017   2.785   0.002  0.00  0.00    +0.000 NA
ATOM      4  N   UNL     1       0.265   0.361  -0.159  0.00  0.00    +0.000 N 
ATOM      5  C   UNL     1      -0.533  -0.735  -0.133  0.00  0.00    +0.000 A 
ATOM      6  N   UNL     1      -0.256  -2.048  -0.233  0.00  0.00    +0.000 NA
ATOM      7  C   UNL     1      -1.232  -2.997  -0.180  0.00  0.00    +0.000 A 
ATOM      8  C   UNL     1      -0.914  -4.341  -0.286  0.00  0.00    +0.000 A 
ATOM      9  C   UNL     1      -1.893  -5.311  -0.234  0.00  0.00    +0.000 A 
ATOM     10  C   UNL     1      -3.199  -4.899  -0.073  0.00  0.00    +0.000 A 
ATOM     11  C   UNL     1      -3.506  -3.560   0.032  0.00  0.00    +0.000 A 
ATOM     12  C   UNL     1      -2.530  -2.562  -0.018  0.00  0.00    +0.000 A 
ATOM     13  N   UNL     1      -2.863  -1.263   0.087  0.00  0.00    +0.000 NA
ATOM     14  C   UNL     1      -1.863  -0.351   0.030  0.00  0.00    +0.000 A 
ENDROOT
BRANCH   1  15
ATOM     15  C   UNL     1      -3.010   1.862   0.271  0.00  0.00    +0.000 C 
ATOM     16  O   UNL     1      -4.140   1.322   0.362  0.00  0.00    +0.000 OA
BRANCH  15  17
ATOM     17  O   UNL     1      -2.949   3.224   0.338  0.00  0.00    +0.000 OA
BRANCH  17  18
ATOM     18  C   UNL     1      -3.926   4.176   0.486  0.00  0.00    +0.000 C 
BRANCH  18  19
ATOM     19  C   UNL     1      -4.930   4.293  -0.574  0.00  0.00    +0.000 C 
BRANCH  19  21
ATOM     20  C   UNL     1      -6.734   3.355  -1.927  0.00  0.00    +0.000 C 
ATOM     21  C   UNL     1      -5.750   3.072  -0.807  0.00  0.00    +0.000 C 
ENDBRANCH  19  21
ENDBRANCH  18  19
ENDBRANCH  17  18
ENDBRANCH  15  17
ENDBRANCH   1  15
BRANCH   4  22
ATOM     22  C   UNL     1       1.706   0.307  -0.315  0.00  0.00    +0.000 C 
BRANCH  22  23
ATOM     23  C   UNL     1       2.399   0.212   1.008  0.00  0.00    +0.000 C 
BRANCH  23  24
ATOM     24  C   UNL     1       3.859   0.160   0.798  0.00  0.00    +0.000 A 
ATOM     25  C   UNL     1       4.553   1.355   0.765  0.00  0.00    +0.000 A 
ATOM     26  C   UNL     1       5.915   1.398   0.573  0.00  0.00    +0.000 A 
ATOM     27  C   UNL     1       6.621   0.213   0.407  0.00  0.00    +0.000 A 
ATOM     28  C   UNL     1       5.954  -0.977   0.437  0.00  0.00    +0.000 A 
ATOM     29  C   UNL     1       4.583  -0.991   0.631  0.00  0.00    +0.000 A 
BRANCH  27  30
ATOM     30  O   UNL     1       7.999   0.326   0.217  0.00  0.00    +0.000 OA
ATOM     31  C   UNL     1       8.737  -0.866   0.046  0.00  0.00    +0.000 C 
ENDBRANCH  27  30
ENDBRANCH  23  24
ENDBRANCH  22  23
ENDBRANCH   4  22
TORSDOF 9
