REMARK  Name = 
REMARK  6 active torsions:
REMARK  status: ('A' for Active; 'I' for Inactive)
REMARK    1  A    between atoms: C_2  and  C_3
REMARK    2  A    between atoms: C_6  and  C_7
REMARK    3  A    between atoms: C_17  and  O_18
REMARK    4  A    between atoms: O_18  and  C_19
REMARK    5  A    between atoms: C_19  and  C_20
REMARK    6  A    between atoms: C_28  and  O_29
REMARK                            x       y       z     vdW  Elec       q    Type
REMARK                         _______ _______ _______ _____ _____    ______ ____
ROOT
ATOM      1  C   UNL     1      -1.951   1.392   1.119  0.00  0.00    +0.000 C 
ATOM      2  N   UNL     1      -2.605   1.335  -0.332  0.00  0.00    +0.000 NA
ATOM      3  C   UNL     1      -1.813   2.367  -0.987  0.00  0.00    +0.000 C 
ATOM      4  C   UNL     1      -0.419   1.882  -1.287  0.00  0.00    +0.000 C 
ATOM      5  C   UNL     1      -0.021   0.777  -0.367  0.00  0.00    +0.000 A 
ATOM      6  C   UNL     1      -0.705   0.496   0.780  0.00  0.00    +0.000 A 
ATOM      7  N   UNL     1      -0.110  -0.520   1.354  0.00  0.00    +0.000 NA
ATOM      8  C   UNL     1       0.957  -0.919   0.610  0.00  0.00    +0.000 A 
ATOM      9  C   UNL     1       1.900  -1.913   0.751  0.00  0.00    +0.000 A 
ATOM     10  C   UNL     1       2.902  -2.087  -0.199  0.00  0.00    +0.000 A 
ATOM     11  C   UNL     1       2.996  -1.281  -1.314  0.00  0.00    +0.000 A 
ATOM     12  C   UNL     1       2.043  -0.291  -1.439  0.00  0.00    +0.000 A 
ATOM     13  C   UNL     1       1.038  -0.100  -0.507  0.00  0.00    +0.000 A 
ENDROOT
BRANCH   1  17
ATOM     14  C   UNL     1      -4.420  -1.605   3.013  0.00  0.00    +0.000 A 
ATOM     15  C   UNL     1      -3.889  -0.567   3.751  0.00  0.00    +0.000 A 
ATOM     16  C   UNL     1      -3.094   0.395   3.126  0.00  0.00    +0.000 A 
ATOM     17  C   UNL     1      -2.881   0.246   1.781  0.00  0.00    +0.000 A 
ATOM     18  C   UNL     1      -3.381  -0.743   1.055  0.00  0.00    +0.000 A 
ATOM     19  C   UNL     1      -4.164  -1.689   1.667  0.00  0.00    +0.000 A 
BRANCH  14  21
ATOM     20  C   UNL     1      -6.711  -2.150   3.624  0.00  0.00    +0.000 C 
ATOM     21  C   UNL     1      -5.282  -2.645   3.699  0.00  0.00    +0.000 C 
ENDBRANCH  14  21
BRANCH  18  22
ATOM     22  O   UNL     1      -3.093  -0.786  -0.311  0.00  0.00    +0.000 OA
ATOM     23  C   UNL     1      -3.626  -1.845  -1.098  0.00  0.00    +0.000 C 
ENDBRANCH  18  22
ENDBRANCH   1  17
BRANCH  11  24
ATOM     24  O   UNL     1       4.006  -1.470  -2.255  0.00  0.00    +0.000 OA
BRANCH  24  25
ATOM     25  C   UNL     1       4.172  -0.707  -3.399  0.00  0.00    +0.000 C 
BRANCH  25  26
ATOM     26  C   UNL     1       4.394   0.723  -3.172  0.00  0.00    +0.000 A 
ATOM     27  C   UNL     1       3.388   1.661  -3.097  0.00  0.00    +0.000 A 
ATOM     28  C   UNL     1       3.659   2.992  -2.881  0.00  0.00    +0.000 A 
ATOM     29  C   UNL     1       4.991   3.394  -2.735  0.00  0.00    +0.000 A 
ATOM     30  C   UNL     1       6.029   2.488  -2.803  0.00  0.00    +0.000 A 
ATOM     31  C   UNL     1       5.689   1.170  -3.022  0.00  0.00    +0.000 A 
ENDBRANCH  25  26
ENDBRANCH  24  25
ENDBRANCH  11  24
TORSDOF 6
