REMARK  Name = 
REMARK  8 active torsions:
REMARK  status: ('A' for Active; 'I' for Inactive)
REMARK    1  A    between atoms: C_2  and  C_17
REMARK    2  A    between atoms: N_3  and  C_4
REMARK    3  A    between atoms: C_4  and  C_5
REMARK    4  A    between atoms: C_5  and  O_6
REMARK    5  A    between atoms: O_6  and  C_7
REMARK    6  A    between atoms: C_20  and  C_21
REMARK    7  A    between atoms: C_21  and  S_22
REMARK    8  A    between atoms: S_22  and  C_23
REMARK                            x       y       z     vdW  Elec       q    Type
REMARK                         _______ _______ _______ _____ _____    ______ ____
ROOT
ATOM      1  O   UNL     1       1.878  -1.522   0.156  0.00  0.00    +0.000 OA
ATOM      2  C   UNL     1       0.943  -1.728  -0.626  0.00  0.00    +0.000 C 
ATOM      3  N   UNL     1       1.217  -2.211  -1.914  0.00  0.00    +0.000 NA
ENDROOT
BRANCH   2   4
ATOM      4  C   UNL     1      -0.467  -1.481  -0.253  0.00  0.00    +0.000 A 
ATOM      5  C   UNL     1      -0.811  -0.942   0.968  0.00  0.00    +0.000 A 
ATOM      6  C   UNL     1      -2.133  -0.711   1.311  0.00  0.00    +0.000 A 
ATOM      7  C   UNL     1      -3.154  -1.014   0.436  0.00  0.00    +0.000 A 
ATOM      8  C   UNL     1      -2.813  -1.553  -0.787  0.00  0.00    +0.000 A 
ATOM      9  C   UNL     1      -1.488  -1.782  -1.124  0.00  0.00    +0.000 A 
BRANCH   7  10
ATOM     10  C   UNL     1      -4.596  -0.780   0.750  0.00  0.00    +0.000 C 
BRANCH  10  11
ATOM     11  S   UNL     1      -5.094   0.886   0.185  0.00  0.00    +0.000 S 
BRANCH  11  12
ATOM     12  C   UNL     1      -6.841   1.156   0.576  0.00  0.00    +0.000 C 
ATOM     13  C   UNL     1      -7.660   0.205  -0.239  0.00  0.00    +0.000 C 
ATOM     14  C   UNL     1      -9.088   0.105   0.244  0.00  0.00    +0.000 C 
ATOM     15  C   UNL     1      -9.053  -0.266   1.711  0.00  0.00    +0.000 C 
ATOM     16  C   UNL     1      -8.485   0.950   2.450  0.00  0.00    +0.000 C 
ATOM     17  C   UNL     1      -7.027   1.038   2.052  0.00  0.00    +0.000 C 
ENDBRANCH  11  12
ENDBRANCH  10  11
ENDBRANCH   7  10
ENDBRANCH   2   4
BRANCH   3  18
ATOM     18  C   UNL     1       2.467  -2.511  -2.489  0.00  0.00    +0.000 C 
BRANCH  18  19
ATOM     19  C   UNL     1       3.459  -1.418  -2.626  0.00  0.00    +0.000 C 
BRANCH  19  20
ATOM     20  O   UNL     1       3.810  -0.858  -1.404  0.00  0.00    +0.000 OA
BRANCH  20  21
ATOM     21  C   UNL     1       4.717   0.181  -1.256  0.00  0.00    +0.000 A 
ATOM     22  C   UNL     1       5.348   0.747  -2.343  0.00  0.00    +0.000 A 
ATOM     23  C   UNL     1       6.251   1.777  -2.236  0.00  0.00    +0.000 A 
ATOM     24  C   UNL     1       6.554   2.284  -0.988  0.00  0.00    +0.000 A 
ATOM     25  C   UNL     1       5.936   1.736   0.125  0.00  0.00    +0.000 A 
ATOM     26  C   UNL     1       6.258   2.261   1.362  0.00  0.00    +0.000 A 
ATOM     27  C   UNL     1       5.645   1.719   2.483  0.00  0.00    +0.000 A 
ATOM     28  C   UNL     1       4.738   0.682   2.369  0.00  0.00    +0.000 A 
ATOM     29  C   UNL     1       4.455   0.200   1.128  0.00  0.00    +0.000 A 
ATOM     30  C   UNL     1       5.034   0.702  -0.019  0.00  0.00    +0.000 A 
ENDBRANCH  20  21
ENDBRANCH  19  20
ENDBRANCH  18  19
ENDBRANCH   3  18
TORSDOF 8
