REMARK  Name = 
REMARK  7 active torsions:
REMARK  status: ('A' for Active; 'I' for Inactive)
REMARK    1  A    between atoms: C_2  and  C_11
REMARK    2  A    between atoms: N_3  and  N_4
REMARK    3  A    between atoms: N_4  and  C_5
REMARK    4  A    between atoms: C_14  and  C_15
REMARK    5  A    between atoms: C_15  and  O_16
REMARK    6  A    between atoms: O_16  and  C_17
REMARK    7  A    between atoms: C_22  and  C_23
REMARK                            x       y       z     vdW  Elec       q    Type
REMARK                         _______ _______ _______ _____ _____    ______ ____
ROOT
ATOM      1  C   UNL     1       1.832  -0.851   0.136  0.00  0.00    +0.000 A 
ATOM      2  C   UNL     1       0.666  -1.249   0.716  0.00  0.00    +0.000 A 
ATOM      3  C   UNL     1      -0.542  -1.086   0.028  0.00  0.00    +0.000 A 
ATOM      4  C   UNL     1      -0.618  -0.532  -1.234  0.00  0.00    +0.000 A 
ATOM      5  C   UNL     1       0.598  -0.130  -1.813  0.00  0.00    +0.000 A 
ATOM      6  C   UNL     1       1.757  -0.292  -1.137  0.00  0.00    +0.000 A 
ENDROOT
BRANCH   1   8
ATOM      7  O   UNL     1       3.234  -1.133   2.004  0.00  0.00    +0.000 OA
ATOM      8  C   UNL     1       3.155  -0.943   0.769  0.00  0.00    +0.000 C 
ATOM      9  N   UNL     1       4.342  -0.819   0.013  0.00  0.00    +0.000 NA
BRANCH   9  10
ATOM     10  N   UNL     1       5.638  -0.887   0.545  0.00  0.00    +0.000 NA
BRANCH  10  11
ATOM     11  C   UNL     1       6.559   0.185   0.305  0.00  0.00    +0.000 C 
ATOM     12  C   UNL     1       7.769   0.182   0.814  0.00  0.00    +0.000 C 
ATOM     13  C   UNL     1       8.645   1.352   0.503  0.00  0.00    +0.000 C 
ATOM     14  C   UNL     1       8.648   1.691  -0.954  0.00  0.00    +0.000 C 
ATOM     15  C   UNL     1       7.279   1.551  -1.597  0.00  0.00    +0.000 C 
ATOM     16  C   UNL     1       6.186   1.365  -0.543  0.00  0.00    +0.000 C 
ENDBRANCH  10  11
ENDBRANCH   9  10
ENDBRANCH   1   8
BRANCH   4  17
ATOM     17  C   UNL     1      -1.856  -0.306  -1.999  0.00  0.00    +0.000 C 
BRANCH  17  18
ATOM     18  O   UNL     1      -3.009  -0.070  -1.300  0.00  0.00    +0.000 OA
BRANCH  18  19
ATOM     19  C   UNL     1      -3.616  -0.942  -0.428  0.00  0.00    +0.000 A 
ATOM     20  C   UNL     1      -3.149  -2.197  -0.130  0.00  0.00    +0.000 A 
ATOM     21  C   UNL     1      -3.779  -3.052   0.744  0.00  0.00    +0.000 A 
ATOM     22  C   UNL     1      -4.951  -2.613   1.354  0.00  0.00    +0.000 A 
ATOM     23  C   UNL     1      -5.418  -1.372   1.064  0.00  0.00    +0.000 A 
ATOM     24  C   UNL     1      -4.808  -0.503   0.198  0.00  0.00    +0.000 A 
BRANCH  24  25
ATOM     25  C   UNL     1      -5.309   0.829  -0.097  0.00  0.00    +0.000 A 
ATOM     26  C   UNL     1      -5.804   1.638   0.891  0.00  0.00    +0.000 A 
ATOM     27  C   UNL     1      -6.245   2.899   0.573  0.00  0.00    +0.000 A 
ATOM     28  C   UNL     1      -6.221   3.414  -0.710  0.00  0.00    +0.000 A 
ATOM     29  C   UNL     1      -5.714   2.565  -1.671  0.00  0.00    +0.000 A 
ATOM     30  C   UNL     1      -5.266   1.308  -1.394  0.00  0.00    +0.000 A 
ENDBRANCH  24  25
ENDBRANCH  18  19
ENDBRANCH  17  18
ENDBRANCH   4  17
TORSDOF 7
