REMARK  Name = 
REMARK  6 active torsions:
REMARK  status: ('A' for Active; 'I' for Inactive)
REMARK    1  A    between atoms: C_10  and  C_11
REMARK    2  A    between atoms: C_17  and  C_18
REMARK    3  A    between atoms: C_21  and  O_22
REMARK    4  A    between atoms: O_22  and  C_23
REMARK    5  A    between atoms: C_23  and  C_24
REMARK    6  A    between atoms: C_24  and  N_25
REMARK                            x       y       z     vdW  Elec       q    Type
REMARK                         _______ _______ _______ _____ _____    ______ ____
ROOT
ATOM      1  O   UNL     1      -3.254  -4.158   1.526  0.00  0.00    +0.000 OA
ATOM      2  C   UNL     1      -2.828  -2.881   1.180  0.00  0.00    +0.000 A 
ATOM      3  C   UNL     1      -2.386  -1.962   2.110  0.00  0.00    +0.000 A 
ATOM      4  C   UNL     1      -1.963  -0.697   1.780  0.00  0.00    +0.000 A 
ATOM      5  C   UNL     1      -1.991  -0.338   0.409  0.00  0.00    +0.000 A 
ATOM      6  C   UNL     1      -2.399  -1.171  -0.497  0.00  0.00    +0.000 A 
ATOM      7  C   UNL     1      -2.817  -2.436  -0.131  0.00  0.00    +0.000 A 
ATOM      8  O   UNL     1      -2.396  -0.750  -1.804  0.00  0.00    +0.000 OA
ATOM      9  C   UNL     1      -1.905   0.420  -2.156  0.00  0.00    +0.000 C 
ATOM     10  C   UNL     1      -2.260   1.632  -1.161  0.00  0.00    +0.000 C 
ATOM     11  C   UNL     1      -1.474   1.137   0.254  0.00  0.00    +0.000 C 
ENDROOT
BRANCH  10  12
ATOM     12  C   UNL     1      -3.738   1.320  -0.759  0.00  0.00    +0.000 A 
ATOM     13  C   UNL     1      -4.618   0.599  -1.406  0.00  0.00    +0.000 A 
ATOM     14  C   UNL     1      -5.885   0.413  -0.931  0.00  0.00    +0.000 A 
ATOM     15  C   UNL     1      -6.230   1.002   0.253  0.00  0.00    +0.000 A 
ATOM     16  C   UNL     1      -5.354   1.774   0.984  0.00  0.00    +0.000 A 
ATOM     17  C   UNL     1      -4.069   1.914   0.422  0.00  0.00    +0.000 A 
ENDBRANCH  10  12
BRANCH  11  18
ATOM     18  C   UNL     1      -0.021   0.909  -0.350  0.00  0.00    +0.000 A 
ATOM     19  C   UNL     1       0.261   0.927  -1.635  0.00  0.00    +0.000 A 
ATOM     20  C   UNL     1       1.553   0.726  -2.063  0.00  0.00    +0.000 A 
ATOM     21  C   UNL     1       2.570   0.501  -1.143  0.00  0.00    +0.000 A 
ATOM     22  C   UNL     1       2.241   0.490   0.179  0.00  0.00    +0.000 A 
ATOM     23  C   UNL     1       0.955   0.690   0.622  0.00  0.00    +0.000 A 
BRANCH  21  24
ATOM     24  O   UNL     1       3.871   0.296  -1.540  0.00  0.00    +0.000 OA
BRANCH  24  25
ATOM     25  C   UNL     1       4.867   0.076  -0.598  0.00  0.00    +0.000 C 
BRANCH  25  26
ATOM     26  C   UNL     1       6.196  -0.121  -1.271  0.00  0.00    +0.000 C 
BRANCH  26  27
ATOM     27  N   UNL     1       7.185  -0.343  -0.224  0.00  0.00    +0.000 NA
ATOM     28  C   UNL     1       7.331   0.905   0.513  0.00  0.00    +0.000 C 
ATOM     29  C   UNL     1       6.085   0.939   1.375  0.00  0.00    +0.000 C 
ATOM     30  C   UNL     1       5.742  -0.526   1.637  0.00  0.00    +0.000 C 
ATOM     31  C   UNL     1       6.728  -1.288   0.779  0.00  0.00    +0.000 C 
ENDBRANCH  26  27
ENDBRANCH  25  26
ENDBRANCH  24  25
ENDBRANCH  21  24
ENDBRANCH  11  18
TORSDOF 6
