REMARK  Name = 
REMARK  6 active torsions:
REMARK  status: ('A' for Active; 'I' for Inactive)
REMARK    1  A    between atoms: O_2  and  C_3
REMARK    2  A    between atoms: C_6  and  N_7
REMARK    3  A    between atoms: C_8  and  C_10
REMARK    4  A    between atoms: C_10  and  C_11
REMARK    5  A    between atoms: C_11  and  N_12
REMARK    6  A    between atoms: C_14  and  C_15
REMARK                            x       y       z     vdW  Elec       q    Type
REMARK                         _______ _______ _______ _____ _____    ______ ____
ROOT
ATOM      1  N   UNL     1      -1.038  -0.092   2.027  0.00  0.00    +0.000 N 
ATOM      2  N   UNL     1      -1.926   0.624   1.308  0.00  0.00    +0.000 NA
ATOM      3  C   UNL     1      -2.635   0.031   0.347  0.00  0.00    +0.000 A 
ATOM      4  C   UNL     1      -2.483  -1.314   0.065  0.00  0.00    +0.000 A 
ATOM      5  C   UNL     1      -3.218  -1.907  -0.925  0.00  0.00    +0.000 A 
ATOM      6  C   UNL     1      -3.043  -3.247  -1.182  0.00  0.00    +0.000 A 
ATOM      7  C   UNL     1      -2.137  -3.979  -0.447  0.00  0.00    +0.000 A 
ATOM      8  C   UNL     1      -1.378  -3.422   0.557  0.00  0.00    +0.000 A 
ATOM      9  C   UNL     1      -1.585  -2.063   0.786  0.00  0.00    +0.000 A 
ATOM     10  C   UNL     1      -0.866  -1.399   1.782  0.00  0.00    +0.000 A 
ATOM     11  O   UNL     1      -0.054  -2.121   2.429  0.00  0.00    +0.000 OA
ENDROOT
BRANCH   3  12
ATOM     12  C   UNL     1      -3.609   0.803  -0.446  0.00  0.00    +0.000 A 
ATOM     13  C   UNL     1      -4.470   1.669   0.179  0.00  0.00    +0.000 A 
ATOM     14  C   UNL     1      -5.407   2.419  -0.534  0.00  0.00    +0.000 A 
ATOM     15  C   UNL     1      -5.480   2.296  -1.906  0.00  0.00    +0.000 A 
ATOM     16  C   UNL     1      -6.489   3.107  -2.650  0.00  0.00    +0.000 C 
ATOM     17  C   UNL     1      -4.617   1.429  -2.534  0.00  0.00    +0.000 A 
ATOM     18  C   UNL     1      -3.692   0.690  -1.817  0.00  0.00    +0.000 A 
ENDBRANCH   3  12
BRANCH   1  19
ATOM     19  C   UNL     1      -0.239   0.571   3.032  0.00  0.00    +0.000 C 
BRANCH  19  20
ATOM     20  C   UNL     1       0.872   1.308   2.516  0.00  0.00    +0.000 C 
BRANCH  20  22
ATOM     21  N   UNL     1       3.031   1.643   1.295  0.00  0.00    +0.000 NA
ATOM     22  C   UNL     1       1.957   0.775   1.749  0.00  0.00    +0.000 C 
ATOM     23  O   UNL     1       2.072  -0.416   1.419  0.00  0.00    +0.000 OA
BRANCH  21  27
ATOM     24  C   UNL     1       6.198  -0.050  -0.973  0.00  0.00    +0.000 A 
ATOM     25  C   UNL     1       5.149  -0.815  -0.511  0.00  0.00    +0.000 A 
ATOM     26  C   UNL     1       4.120  -0.268   0.224  0.00  0.00    +0.000 A 
ATOM     27  C   UNL     1       4.107   1.077   0.526  0.00  0.00    +0.000 A 
ATOM     28  C   UNL     1       5.143   1.852   0.075  0.00  0.00    +0.000 A 
ATOM     29  C   UNL     1       6.166   1.292  -0.660  0.00  0.00    +0.000 A 
BRANCH  24  31
ATOM     30  C   UNL     1       8.318   0.130  -2.203  0.00  0.00    +0.000 C 
ATOM     31  O   UNL     1       7.234  -0.621  -1.718  0.00  0.00    +0.000 OA
ENDBRANCH  24  31
ENDBRANCH  21  27
ENDBRANCH  20  22
ENDBRANCH  19  20
ENDBRANCH   1  19
TORSDOF 6
