REMARK  Name = 
REMARK  5 active torsions:
REMARK  status: ('A' for Active; 'I' for Inactive)
REMARK    1  A    between atoms: C_2  and  C_3
REMARK    2  A    between atoms: C_6  and  C_7
REMARK    3  A    between atoms: C_7  and  N_8
REMARK    4  A    between atoms: C_11  and  C_12
REMARK    5  A    between atoms: C_12  and  C_13
REMARK                            x       y       z     vdW  Elec       q    Type
REMARK                         _______ _______ _______ _____ _____    ______ ____
ROOT
ATOM      1  C   UNL     1      -2.123   0.265  -1.082  0.00  0.00    +0.000 A 
ATOM      2  C   UNL     1      -1.482   0.541   0.126  0.00  0.00    +0.000 A 
ATOM      3  C   UNL     1      -0.274   1.201   0.090  0.00  0.00    +0.000 A 
ATOM      4  C   UNL     1       0.307   1.590  -1.089  0.00  0.00    +0.000 A 
ATOM      5  C   UNL     1      -0.361   1.299  -2.270  0.00  0.00    +0.000 A 
ATOM      6  C   UNL     1      -1.570   0.640  -2.272  0.00  0.00    +0.000 A 
ENDROOT
BRANCH   1   8
ATOM      7  O   UNL     1      -3.967  -0.674  -2.144  0.00  0.00    +0.000 OA
ATOM      8  C   UNL     1      -3.392  -0.429  -1.027  0.00  0.00    +0.000 C 
ATOM      9  N   UNL     1      -3.965  -0.816   0.201  0.00  0.00    +0.000 N 
ATOM     10  C   UNL     1      -3.291  -0.525   1.431  0.00  0.00    +0.000 C 
ATOM     11  C   UNL     1      -4.195   0.317   2.284  0.00  0.00    +0.000 C 
ATOM     12  C   UNL     1      -5.639   0.108   2.023  0.00  0.00    +0.000 A 
ATOM     13  C   UNL     1      -6.504   0.838   2.828  0.00  0.00    +0.000 A 
ATOM     14  C   UNL     1      -7.853   0.734   2.686  0.00  0.00    +0.000 A 
ATOM     15  C   UNL     1      -8.384  -0.101   1.738  0.00  0.00    +0.000 A 
ATOM     16  C   UNL     1      -7.511  -0.833   0.930  0.00  0.00    +0.000 A 
ATOM     17  C   UNL     1      -6.155  -0.732   1.068  0.00  0.00    +0.000 A 
ATOM     18  C   UNL     1      -5.223  -1.503   0.219  0.00  0.00    +0.000 C 
ENDBRANCH   1   8
BRANCH   4  19
ATOM     19  C   UNL     1       1.604   2.304  -1.201  0.00  0.00    +0.000 C 
BRANCH  19  20
ATOM     20  N   UNL     1       2.640   1.330  -1.305  0.00  0.00    +0.000 NA
ATOM     21  C   UNL     1       2.509   0.462  -2.448  0.00  0.00    +0.000 C 
ATOM     22  C   UNL     1       3.723  -0.354  -2.724  0.00  0.00    +0.000 C 
ATOM     23  C   UNL     1       4.523  -0.679  -1.481  0.00  0.00    +0.000 C 
ATOM     24  C   UNL     1       3.635  -0.666  -0.281  0.00  0.00    +0.000 C 
ATOM     25  C   UNL     1       2.924   0.633  -0.081  0.00  0.00    +0.000 C 
BRANCH  23  26
ATOM     26  C   UNL     1       5.672   0.274  -1.415  0.00  0.00    +0.000 C 
BRANCH  26  27
ATOM     27  C   UNL     1       6.547   0.069  -0.238  0.00  0.00    +0.000 A 
ATOM     28  C   UNL     1       6.335   0.709   0.964  0.00  0.00    +0.000 A 
ATOM     29  C   UNL     1       7.160   0.509   2.058  0.00  0.00    +0.000 A 
ATOM     30  C   UNL     1       8.229  -0.351   1.962  0.00  0.00    +0.000 A 
ATOM     31  C   UNL     1       8.462  -1.001   0.774  0.00  0.00    +0.000 A 
ATOM     32  C   UNL     1       7.620  -0.791  -0.327  0.00  0.00    +0.000 A 
ENDBRANCH  26  27
ENDBRANCH  23  26
ENDBRANCH  19  20
ENDBRANCH   4  19
TORSDOF 5
