REMARK  Name = 
REMARK  9 active torsions:
REMARK  status: ('A' for Active; 'I' for Inactive)
REMARK    1  A    between atoms: C_2  and  N_3
REMARK    2  A    between atoms: C_2  and  C_12
REMARK    3  A    between atoms: N_3  and  O_4
REMARK    4  A    between atoms: O_4  and  C_5
REMARK    5  A    between atoms: C_5  and  C_6
REMARK    6  A    between atoms: N_18  and  C_19
REMARK    7  A    between atoms: C_19  and  C_20
REMARK    8  A    between atoms: C_20  and  C_21
REMARK    9  A    between atoms: C_21  and  N_22
REMARK                            x       y       z     vdW  Elec       q    Type
REMARK                         _______ _______ _______ _____ _____    ______ ____
ROOT
ATOM      1  C   UNL     1       0.741   1.246  -1.581  0.00  0.00    +0.000 A 
ATOM      2  C   UNL     1       0.441   2.567  -1.829  0.00  0.00    +0.000 A 
ATOM      3  C   UNL     1      -0.711   3.130  -1.351  0.00  0.00    +0.000 A 
ATOM      4  C   UNL     1      -1.576   2.374  -0.621  0.00  0.00    +0.000 A 
ATOM      5  C   UNL     1      -1.347   1.056  -0.334  0.00  0.00    +0.000 A 
ATOM      6  C   UNL     1      -0.159   0.528  -0.842  0.00  0.00    +0.000 A 
ATOM      7  N   UNL     1      -2.211   0.210   0.443  0.00  0.00    +0.000 N 
ATOM      8  C   UNL     1      -3.423   0.626   1.022  0.00  0.00    +0.000 A 
ATOM      9  C   UNL     1      -4.176  -0.247   1.786  0.00  0.00    +0.000 A 
ATOM     10  C   UNL     1      -5.349   0.092   2.405  0.00  0.00    +0.000 A 
ATOM     11  C   UNL     1      -5.850   1.371   2.288  0.00  0.00    +0.000 A 
ATOM     12  C   UNL     1      -5.096   2.237   1.527  0.00  0.00    +0.000 A 
ATOM     13  C   UNL     1      -3.932   1.894   0.915  0.00  0.00    +0.000 A 
ATOM     14  S   UNL     1      -3.097   3.144  -0.017  0.00  0.00    +0.000 S 
ENDROOT
BRANCH   1  16
ATOM     15  C   UNL     1       2.807   1.405  -2.786  0.00  0.00    +0.000 C 
ATOM     16  C   UNL     1       1.984   0.641  -2.092  0.00  0.00    +0.000 C 
BRANCH  16  17
ATOM     17  N   UNL     1       2.274  -0.715  -1.840  0.00  0.00    +0.000 NA
BRANCH  17  18
ATOM     18  O   UNL     1       3.401  -1.117  -1.191  0.00  0.00    +0.000 OA
BRANCH  18  19
ATOM     19  C   UNL     1       4.091  -0.029  -0.658  0.00  0.00    +0.000 C 
BRANCH  19  20
ATOM     20  C   UNL     1       5.314  -0.572   0.035  0.00  0.00    +0.000 A 
ATOM     21  C   UNL     1       6.186   0.278   0.656  0.00  0.00    +0.000 A 
ATOM     22  C   UNL     1       7.312  -0.174   1.297  0.00  0.00    +0.000 A 
ATOM     23  C   UNL     1       7.577  -1.524   1.320  0.00  0.00    +0.000 A 
ATOM     24  C   UNL     1       6.697  -2.397   0.692  0.00  0.00    +0.000 A 
ATOM     25  C   UNL     1       5.573  -1.924   0.054  0.00  0.00    +0.000 A 
ENDBRANCH  19  20
ENDBRANCH  18  19
ENDBRANCH  17  18
ENDBRANCH  16  17
ENDBRANCH   1  16
BRANCH   7  26
ATOM     26  C   UNL     1      -1.742  -1.140   0.635  0.00  0.00    +0.000 C 
BRANCH  26  27
ATOM     27  C   UNL     1      -2.827  -2.069   0.989  0.00  0.00    +0.000 C 
BRANCH  27  28
ATOM     28  C   UNL     1      -3.896  -2.234  -0.072  0.00  0.00    +0.000 C 
BRANCH  28  29
ATOM     29  N   UNL     1      -3.419  -2.727  -1.317  0.00  0.00    +0.000 NA
ATOM     30  C   UNL     1      -2.571  -1.833  -2.047  0.00  0.00    +0.000 C 
ATOM     31  C   UNL     1      -3.014  -4.096  -1.333  0.00  0.00    +0.000 C 
ENDBRANCH  28  29
ENDBRANCH  27  28
ENDBRANCH  26  27
ENDBRANCH   7  26
TORSDOF 9
