REMARK  Name = 
REMARK  7 active torsions:
REMARK  status: ('A' for Active; 'I' for Inactive)
REMARK    1  A    between atoms: C_5  and  S_6
REMARK    2  A    between atoms: S_6  and  N_9
REMARK    3  A    between atoms: N_9  and  C_10
REMARK    4  A    between atoms: C_10  and  C_11
REMARK    5  A    between atoms: N_16  and  C_17
REMARK    6  A    between atoms: C_17  and  C_18
REMARK    7  A    between atoms: C_24  and  N_25
REMARK                            x       y       z     vdW  Elec       q    Type
REMARK                         _______ _______ _______ _____ _____    ______ ____
ROOT
ATOM      1  C   UNL     1      -0.621   0.626   0.464  0.00  0.00    +0.000 A 
ATOM      2  C   UNL     1      -1.475   1.676   1.068  0.00  0.00    +0.000 A 
ATOM      3  C   UNL     1      -1.000   3.021   1.420  0.00  0.00    +0.000 C 
ATOM      4  C   UNL     1      -2.688   1.093   1.209  0.00  0.00    +0.000 A 
ATOM      5  C   UNL     1      -3.899   1.782   1.775  0.00  0.00    +0.000 C 
ATOM      6  N   UNL     1      -2.686  -0.163   0.779  0.00  0.00    +0.000 N 
ATOM      7  C   UNL     1      -1.427  -0.418   0.327  0.00  0.00    +0.000 A 
ENDROOT
BRANCH   7   8
ATOM      8  N   UNL     1      -1.157  -1.710  -0.252  0.00  0.00    +0.000 N 
ATOM      9  C   UNL     1      -1.072  -2.838   0.413  0.00  0.00    +0.000 A 
ATOM     10  C   UNL     1      -0.922  -3.877  -0.524  0.00  0.00    +0.000 A 
ATOM     11  C   UNL     1      -0.916  -3.281  -1.766  0.00  0.00    +0.000 A 
ATOM     12  C   UNL     1      -1.069  -1.898  -1.570  0.00  0.00    +0.000 A 
ENDBRANCH   7   8
BRANCH   1  13
ATOM     13  C   UNL     1       0.720   1.152   0.152  0.00  0.00    +0.000 C 
BRANCH  13  14
ATOM     14  N   UNL     1       1.842   0.660   0.855  0.00  0.00    +0.000 NA
BRANCH  14  15
ATOM     15  S   UNL     1       3.272   1.363   0.359  0.00  0.00    +0.000 S 
ATOM     16  O   UNL     1       2.922   2.097  -1.034  0.00  0.00    +0.000 OA
ATOM     17  O   UNL     1       3.643   2.558   1.266  0.00  0.00    +0.000 OA
BRANCH  15  22
ATOM     18  C   UNL     1       8.706  -1.064  -0.376  0.00  0.00    +0.000 C 
ATOM     19  C   UNL     1       7.308  -0.512  -0.307  0.00  0.00    +0.000 A 
ATOM     20  C   UNL     1       7.061   0.812  -0.331  0.00  0.00    +0.000 A 
ATOM     21  C   UNL     1       5.853   1.345  -0.214  0.00  0.00    +0.000 A 
ATOM     22  C   UNL     1       4.714   0.511  -0.054  0.00  0.00    +0.000 A 
ATOM     23  C   UNL     1       4.900  -0.829  -0.042  0.00  0.00    +0.000 A 
ATOM     24  C   UNL     1       6.196  -1.383  -0.163  0.00  0.00    +0.000 A 
ENDBRANCH  15  22
ENDBRANCH  14  15
ENDBRANCH  13  14
ENDBRANCH   1  13
BRANCH   6  25
ATOM     25  C   UNL     1      -3.839  -1.092   0.863  0.00  0.00    +0.000 C 
BRANCH  25  26
ATOM     26  C   UNL     1      -4.815  -0.534  -0.182  0.00  0.00    +0.000 A 
ATOM     27  C   UNL     1      -4.762  -0.822  -1.487  0.00  0.00    +0.000 A 
ATOM     28  C   UNL     1      -5.662  -0.244  -2.424  0.00  0.00    +0.000 A 
ATOM     29  C   UNL     1      -6.639   0.652  -1.983  0.00  0.00    +0.000 A 
ATOM     30  C   UNL     1      -6.700   0.950  -0.649  0.00  0.00    +0.000 A 
ATOM     31  C   UNL     1      -5.790   0.366   0.291  0.00  0.00    +0.000 A 
ENDBRANCH  25  26
ENDBRANCH   6  25
TORSDOF 7
