REMARK  Name = 
REMARK  6 active torsions:
REMARK  status: ('A' for Active; 'I' for Inactive)
REMARK    1  A    between atoms: C_2  and  O_3
REMARK    2  A    between atoms: O_3  and  C_4
REMARK    3  A    between atoms: C_9  and  N_10
REMARK    4  A    between atoms: C_11  and  C_13
REMARK    5  A    between atoms: C_14  and  N_15
REMARK    6  A    between atoms: C_16  and  C_18
REMARK                            x       y       z     vdW  Elec       q    Type
REMARK                         _______ _______ _______ _____ _____    ______ ____
ROOT
ATOM      1  C   UNL     1       0.305   0.781  -0.527  0.00  0.00    +0.000 A 
ATOM      2  C   UNL     1       1.581   0.469  -0.858  0.00  0.00    +0.000 A 
ATOM      3  S   UNL     1       2.163   2.015  -1.490  0.00  0.00    +0.000 S 
ATOM      4  C   UNL     1       0.759   2.937  -1.286  0.00  0.00    +0.000 A 
ATOM      5  C   UNL     1      -0.110   2.049  -0.747  0.00  0.00    +0.000 A 
ATOM      6  C   UNL     1      -1.433   2.785  -0.514  0.00  0.00    +0.000 C 
ATOM      7  C   UNL     1      -1.134   3.771   0.504  0.00  0.00    +0.000 C 
ATOM      8  C   UNL     1      -0.148   4.949  -0.050  0.00  0.00    +0.000 C 
ATOM      9  C   UNL     1       1.171   4.360   0.730  0.00  0.00    +0.000 C 
ATOM     10  C   UNL     1       0.245   4.310  -1.503  0.00  0.00    +0.000 C 
ENDROOT
BRANCH   1  12
ATOM     11  N   UNL     1      -2.003   0.174   0.386  0.00  0.00    +0.000 NA
ATOM     12  C   UNL     1      -0.678  -0.212  -0.005  0.00  0.00    +0.000 C 
ATOM     13  O   UNL     1      -0.471  -1.415   0.141  0.00  0.00    +0.000 OA
BRANCH  11  19
ATOM     14  C   UNL     1      -4.187  -0.307   1.237  0.00  0.00    +0.000 A 
ATOM     15  C   UNL     1      -5.172  -1.172   1.738  0.00  0.00    +0.000 A 
ATOM     16  C   UNL     1      -4.914  -2.510   1.888  0.00  0.00    +0.000 A 
ATOM     17  C   UNL     1      -3.662  -2.969   1.532  0.00  0.00    +0.000 A 
ATOM     18  C   UNL     1      -2.688  -2.114   1.037  0.00  0.00    +0.000 A 
ATOM     19  C   UNL     1      -2.941  -0.772   0.884  0.00  0.00    +0.000 A 
BRANCH  14  20
ATOM     20  O   UNL     1      -4.457   1.048   1.087  0.00  0.00    +0.000 OA
BRANCH  20  22
ATOM     21  C   UNL     1      -5.871   3.010   1.230  0.00  0.00    +0.000 C 
ATOM     22  C   UNL     1      -5.739   1.522   1.452  0.00  0.00    +0.000 C 
ENDBRANCH  20  22
ENDBRANCH  14  20
ENDBRANCH  11  19
ENDBRANCH   1  12
BRANCH   2  23
ATOM     23  N   UNL     1       2.457  -0.548  -0.781  0.00  0.00    +0.000 NA
ATOM     24  C   UNL     1       2.829  -1.758  -0.372  0.00  0.00    +0.000 C 
ATOM     25  O   UNL     1       2.005  -2.396   0.347  0.00  0.00    +0.000 OA
BRANCH  24  26
ATOM     26  C   UNL     1       4.127  -2.407  -0.697  0.00  0.00    +0.000 A 
ATOM     27  C   UNL     1       5.037  -1.746  -1.472  0.00  0.00    +0.000 A 
ATOM     28  C   UNL     1       6.274  -2.330  -1.797  0.00  0.00    +0.000 A 
ATOM     29  C   UNL     1       6.565  -3.597  -1.319  0.00  0.00    +0.000 A 
ATOM     30  C   UNL     1       5.659  -4.268  -0.541  0.00  0.00    +0.000 A 
ATOM     31  C   UNL     1       4.434  -3.658  -0.235  0.00  0.00    +0.000 A 
ENDBRANCH  24  26
ENDBRANCH   2  23
TORSDOF 6
