REMARK  Name = 
REMARK  6 active torsions:
REMARK  status: ('A' for Active; 'I' for Inactive)
REMARK    1  A    between atoms: C_8  and  C_9
REMARK    2  A    between atoms: N_11  and  N_12
REMARK    3  A    between atoms: C_13  and  C_14
REMARK    4  A    between atoms: N_16  and  C_17
REMARK    5  A    between atoms: C_17  and  C_18
REMARK    6  A    between atoms: C_23  and  C_24
REMARK                            x       y       z     vdW  Elec       q    Type
REMARK                         _______ _______ _______ _____ _____    ______ ____
ROOT
ATOM      1  C   UNL     1      -0.614   0.426  -0.507  0.00  0.00    +0.000 A 
ATOM      2  C   UNL     1      -1.622  -0.178  -1.210  0.00  0.00    +0.000 A 
ATOM      3  N   UNL     1      -2.802   0.482  -0.929  0.00  0.00    +0.000 N 
ATOM      4  C   UNL     1      -2.529   1.463  -0.080  0.00  0.00    +0.000 A 
ATOM      5  C   UNL     1      -3.319   2.413   0.503  0.00  0.00    +0.000 A 
ATOM      6  C   UNL     1      -2.800   3.358   1.363  0.00  0.00    +0.000 A 
ATOM      7  C   UNL     1      -1.452   3.349   1.646  0.00  0.00    +0.000 A 
ATOM      8  C   UNL     1      -0.639   2.409   1.075  0.00  0.00    +0.000 A 
ATOM      9  C   UNL     1      -1.155   1.464   0.216  0.00  0.00    +0.000 A 
ENDROOT
BRANCH   1  11
ATOM     10  N   UNL     1       1.684   0.648   0.155  0.00  0.00    +0.000 NA
ATOM     11  C   UNL     1       0.775   0.012  -0.548  0.00  0.00    +0.000 C 
BRANCH  10  14
ATOM     12  C   UNL     1       3.989   0.646  -0.727  0.00  0.00    +0.000 C 
ATOM     13  O   UNL     1       3.842   1.760  -1.281  0.00  0.00    +0.000 OA
ATOM     14  N   UNL     1       2.975   0.083  -0.030  0.00  0.00    +0.000 NA
BRANCH  12  22
ATOM     15  C   UNL     1       5.149   0.216   1.720  0.00  0.00    +0.000 C 
ATOM     16  C   UNL     1       6.015  -0.095   0.626  0.00  0.00    +0.000 C 
ATOM     17  C   UNL     1       7.413  -0.153   0.659  0.00  0.00    +0.000 C 
ATOM     18  C   UNL     1       8.243  -1.301   0.896  0.00  0.00    +0.000 C 
ATOM     19  C   UNL     1       7.530  -2.542   0.369  0.00  0.00    +0.000 C 
ATOM     20  C   UNL     1       6.693  -2.060  -0.778  0.00  0.00    +0.000 C 
ATOM     21  C   UNL     1       5.327  -1.439  -0.134  0.00  0.00    +0.000 C 
ATOM     22  C   UNL     1       5.427   0.054  -0.956  0.00  0.00    +0.000 C 
ENDBRANCH  12  22
ENDBRANCH  10  14
ENDBRANCH   1  11
BRANCH   3  23
ATOM     23  C   UNL     1      -4.028   0.034  -1.523  0.00  0.00    +0.000 C 
BRANCH  23  24
ATOM     24  C   UNL     1      -4.725  -1.053  -0.851  0.00  0.00    +0.000 A 
ATOM     25  C   UNL     1      -4.435  -2.353  -1.286  0.00  0.00    +0.000 A 
ATOM     26  C   UNL     1      -5.009  -3.449  -0.676  0.00  0.00    +0.000 A 
ATOM     27  C   UNL     1      -5.866  -3.231   0.362  0.00  0.00    +0.000 A 
ATOM     28  C   UNL     1      -6.179  -1.964   0.820  0.00  0.00    +0.000 A 
ATOM     29  C   UNL     1      -5.580  -0.879   0.177  0.00  0.00    +0.000 A 
BRANCH  29  30
ATOM     30  C   UNL     1      -5.983   0.422   0.660  0.00  0.00    +0.000 C 
ATOM     31  N   UNL     1      -6.326   1.456   1.030  0.00  0.00    +0.000 NA
ENDBRANCH  29  30
ENDBRANCH  23  24
ENDBRANCH   3  23
TORSDOF 6
