REMARK  Name = 
REMARK  7 active torsions:
REMARK  status: ('A' for Active; 'I' for Inactive)
REMARK    1  A    between atoms: C_2  and  N_3
REMARK    2  A    between atoms: C_2  and  C_29
REMARK    3  A    between atoms: C_4  and  C_6
REMARK    4  A    between atoms: C_6  and  C_18
REMARK    5  A    between atoms: C_7  and  C_8
REMARK    6  A    between atoms: N_20  and  C_21
REMARK    7  A    between atoms: C_21  and  C_23
REMARK                            x       y       z     vdW  Elec       q    Type
REMARK                         _______ _______ _______ _____ _____    ______ ____
ROOT
ATOM      1  C   UNL     1      -0.415   0.140  -0.354  0.00  0.00    +0.000 C 
ATOM      2  C   UNL     1      -0.954   1.277  -0.620  0.00  0.00    +0.000 C 
ENDROOT
BRANCH   2   3
ATOM      3  C   UNL     1      -0.427   2.552  -0.240  0.00  0.00    +0.000 A 
ATOM      4  C   UNL     1       0.871   2.945  -0.463  0.00  0.00    +0.000 A 
ATOM      5  C   UNL     1       1.292   4.175  -0.053  0.00  0.00    +0.000 A 
ATOM      6  C   UNL     1       0.431   5.050   0.591  0.00  0.00    +0.000 A 
ATOM      7  C   UNL     1      -0.885   4.695   0.835  0.00  0.00    +0.000 A 
ATOM      8  C   UNL     1      -1.290   3.453   0.415  0.00  0.00    +0.000 A 
ATOM      9  O   UNL     1      -1.730   5.585   1.481  0.00  0.00    +0.000 OA
ATOM     10  C   UNL     1      -1.151   6.601   2.297  0.00  0.00    +0.000 C 
ATOM     11  C   UNL     1      -0.081   7.244   1.417  0.00  0.00    +0.000 C 
ATOM     12  O   UNL     1       0.870   6.286   0.999  0.00  0.00    +0.000 OA
ENDBRANCH   2   3
BRANCH   1  14
ATOM     13  N   UNL     1       1.293  -1.371   0.568  0.00  0.00    +0.000 NA
ATOM     14  C   UNL     1       0.810  -0.048   0.379  0.00  0.00    +0.000 C 
ATOM     15  O   UNL     1       1.510   0.865   0.881  0.00  0.00    +0.000 OA
BRANCH  13  17
ATOM     16  C   UNL     1       2.233  -3.008   1.947  0.00  0.00    +0.000 C 
ATOM     17  C   UNL     1       2.637  -1.496   1.390  0.00  0.00    +0.000 C 
BRANCH  17  18
ATOM     18  C   UNL     1       3.499  -1.990   0.118  0.00  0.00    +0.000 A 
ATOM     19  C   UNL     1       4.311  -3.062   0.267  0.00  0.00    +0.000 A 
ATOM     20  C   UNL     1       5.038  -3.429  -0.843  0.00  0.00    +0.000 A 
ATOM     21  C   UNL     1       4.968  -2.767  -2.055  0.00  0.00    +0.000 A 
ATOM     22  C   UNL     1       4.116  -1.683  -2.125  0.00  0.00    +0.000 A 
ATOM     23  C   UNL     1       3.365  -1.275  -1.039  0.00  0.00    +0.000 A 
ENDBRANCH  17  18
ENDBRANCH  13  17
ENDBRANCH   1  14
BRANCH   1  24
ATOM     24  C   UNL     1      -1.067  -1.129  -0.807  0.00  0.00    +0.000 C 
ATOM     25  O   UNL     1      -2.116  -1.044  -1.434  0.00  0.00    +0.000 OA
ATOM     26  N   UNL     1      -0.540  -2.377  -0.552  0.00  0.00    +0.000 NA
BRANCH  26  27
ATOM     27  C   UNL     1      -1.312  -3.647  -1.076  0.00  0.00    +0.000 C 
ATOM     28  C   UNL     1      -0.863  -4.627   0.187  0.00  0.00    +0.000 C 
BRANCH  27  29
ATOM     29  C   UNL     1      -2.753  -3.259  -0.597  0.00  0.00    +0.000 A 
ATOM     30  C   UNL     1      -3.694  -3.517  -1.541  0.00  0.00    +0.000 A 
ATOM     31  C   UNL     1      -5.062  -3.240  -1.302  0.00  0.00    +0.000 A 
ATOM     32  C   UNL     1      -5.380  -2.702  -0.079  0.00  0.00    +0.000 A 
ATOM     33  C   UNL     1      -4.415  -2.454   0.848  0.00  0.00    +0.000 A 
ATOM     34  C   UNL     1      -3.111  -2.744   0.559  0.00  0.00    +0.000 A 
ENDBRANCH  27  29
ENDBRANCH  26  27
ENDBRANCH   1  24
TORSDOF 7
