REMARK  Name = 
REMARK  9 active torsions:
REMARK  status: ('A' for Active; 'I' for Inactive)
REMARK    1  A    between atoms: C_2  and  N_3
REMARK    2  A    between atoms: N_3  and  C_4
REMARK    3  A    between atoms: N_3  and  C_6
REMARK    4  A    between atoms: C_6  and  C_7
REMARK    5  A    between atoms: C_7  and  O_8
REMARK    6  A    between atoms: O_8  and  C_9
REMARK    7  A    between atoms: C_12  and  O_13
REMARK    8  A    between atoms: O_13  and  C_14
REMARK    9  A    between atoms: C_15  and  C_16
REMARK                            x       y       z     vdW  Elec       q    Type
REMARK                         _______ _______ _______ _____ _____    ______ ____
ROOT
ATOM      1  C   UNL     1      -2.528  -0.055   0.174  0.00  0.00    +0.000 A 
ATOM      2  C   UNL     1      -2.603   0.101  -1.183  0.00  0.00    +0.000 A 
ATOM      3  S   UNL     1      -3.834   1.272  -1.367  0.00  0.00    +0.000 S 
ATOM      4  C   UNL     1      -4.219   1.531   0.271  0.00  0.00    +0.000 A 
ATOM      5  C   UNL     1      -5.136   2.351   0.954  0.00  0.00    +0.000 A 
ATOM      6  C   UNL     1      -5.214   2.337   2.345  0.00  0.00    +0.000 A 
ATOM      7  O   UNL     1      -6.106   3.134   3.030  0.00  0.00    +0.000 OA
ATOM      8  C   UNL     1      -4.348   1.482   2.968  0.00  0.00    +0.000 A 
ATOM      9  C   UNL     1      -3.453   0.679   2.345  0.00  0.00    +0.000 A 
ATOM     10  C   UNL     1      -3.371   0.691   0.930  0.00  0.00    +0.000 A 
ENDROOT
BRANCH   2  11
ATOM     11  C   UNL     1      -1.815  -0.581  -2.225  0.00  0.00    +0.000 A 
ATOM     12  C   UNL     1      -2.095  -0.252  -3.532  0.00  0.00    +0.000 A 
ATOM     13  C   UNL     1      -1.381  -0.869  -4.575  0.00  0.00    +0.000 A 
ATOM     14  C   UNL     1      -0.409  -1.798  -4.276  0.00  0.00    +0.000 A 
ATOM     15  O   UNL     1       0.310  -2.423  -5.293  0.00  0.00    +0.000 OA
ATOM     16  C   UNL     1      -0.122  -2.134  -2.969  0.00  0.00    +0.000 A 
ATOM     17  C   UNL     1      -0.857  -1.496  -1.957  0.00  0.00    +0.000 A 
ENDBRANCH   2  11
BRANCH   1  18
ATOM     18  O   UNL     1      -1.574  -0.985   0.686  0.00  0.00    +0.000 OA
BRANCH  18  22
ATOM     19  C   UNL     1       2.252   0.407   1.718  0.00  0.00    +0.000 A 
ATOM     20  C   UNL     1       1.916  -0.922   1.861  0.00  0.00    +0.000 A 
ATOM     21  C   UNL     1       0.652  -1.388   1.521  0.00  0.00    +0.000 A 
ATOM     22  C   UNL     1      -0.302  -0.532   1.031  0.00  0.00    +0.000 A 
ATOM     23  C   UNL     1       0.018   0.792   0.883  0.00  0.00    +0.000 A 
ATOM     24  C   UNL     1       1.272   1.231   1.225  0.00  0.00    +0.000 A 
BRANCH  19  25
ATOM     25  O   UNL     1       3.510   0.850   2.061  0.00  0.00    +0.000 OA
BRANCH  25  26
ATOM     26  C   UNL     1       4.525   0.018   2.569  0.00  0.00    +0.000 C 
BRANCH  26  27
ATOM     27  C   UNL     1       4.804  -1.042   1.503  0.00  0.00    +0.000 C 
BRANCH  27  28
ATOM     28  N   UNL     1       5.224  -0.341   0.321  0.00  0.00    +0.000 NA
BRANCH  28  30
ATOM     29  C   UNL     1       5.591  -0.441  -2.084  0.00  0.00    +0.000 C 
ATOM     30  C   UNL     1       5.530  -1.197  -0.794  0.00  0.00    +0.000 C 
ENDBRANCH  28  30
BRANCH  28  31
ATOM     31  C   UNL     1       6.263   0.591   0.653  0.00  0.00    +0.000 C 
ATOM     32  C   UNL     1       7.501  -0.034   1.204  0.00  0.00    +0.000 C 
ENDBRANCH  28  31
ENDBRANCH  27  28
ENDBRANCH  26  27
ENDBRANCH  25  26
ENDBRANCH  19  25
ENDBRANCH  18  22
ENDBRANCH   1  18
TORSDOF 9
