REMARK  Name = 
REMARK  7 active torsions:
REMARK  status: ('A' for Active; 'I' for Inactive)
REMARK    1  A    between atoms: O_2  and  C_3
REMARK    2  A    between atoms: C_6  and  C_7
REMARK    3  A    between atoms: C_7  and  C_8
REMARK    4  A    between atoms: C_8  and  C_9
REMARK    5  A    between atoms: C_9  and  C_10
REMARK    6  A    between atoms: N_12  and  C_13
REMARK    7  A    between atoms: C_16  and  C_17
REMARK                            x       y       z     vdW  Elec       q    Type
REMARK                         _______ _______ _______ _____ _____    ______ ____
ROOT
ATOM      1  C   UNL     1      -0.408   1.668  -0.517  0.00  0.00    +0.000 A 
ATOM      2  C   UNL     1       0.098   0.535  -1.126  0.00  0.00    +0.000 A 
ATOM      3  C   UNL     1       1.445   0.181  -0.963  0.00  0.00    +0.000 A 
ATOM      4  C   UNL     1       2.286   0.948  -0.200  0.00  0.00    +0.000 A 
ATOM      5  C   UNL     1       1.772   2.073   0.401  0.00  0.00    +0.000 A 
ATOM      6  C   UNL     1       0.436   2.426   0.241  0.00  0.00    +0.000 A 
ENDROOT
BRANCH   4   7
ATOM      7  C   UNL     1       3.700   0.606  -0.010  0.00  0.00    +0.000 A 
ATOM      8  N   UNL     1       4.397  -0.402  -0.478  0.00  0.00    +0.000 NA
ATOM      9  C   UNL     1       5.656  -0.530  -0.191  0.00  0.00    +0.000 A 
ATOM     10  C   UNL     1       6.512  -1.561  -0.627  0.00  0.00    +0.000 A 
ATOM     11  C   UNL     1       7.816  -1.602  -0.267  0.00  0.00    +0.000 A 
ATOM     12  C   UNL     1       8.400  -0.660   0.537  0.00  0.00    +0.000 A 
ATOM     13  C   UNL     1       9.819  -0.718   0.919  0.00  0.00    +0.000 C 
ATOM     14  C   UNL     1       7.576   0.373   0.984  0.00  0.00    +0.000 A 
ATOM     15  C   UNL     1       6.225   0.418   0.614  0.00  0.00    +0.000 A 
ATOM     16  S   UNL     1       4.895   1.452   0.912  0.00  0.00    +0.000 S 
ENDBRANCH   4   7
BRANCH   1  19
ATOM     17  C   UNL     1      -2.624   1.181  -1.500  0.00  0.00    +0.000 C 
ATOM     18  O   UNL     1      -2.084   0.170  -2.018  0.00  0.00    +0.000 OA
ATOM     19  N   UNL     1      -1.790   2.008  -0.699  0.00  0.00    +0.000 NA
BRANCH  17  20
ATOM     20  C   UNL     1      -4.059   1.472  -1.731  0.00  0.00    +0.000 C 
BRANCH  20  21
ATOM     21  C   UNL     1      -4.634   0.398  -2.621  0.00  0.00    +0.000 C 
BRANCH  21  22
ATOM     22  C   UNL     1      -4.447  -0.926  -1.875  0.00  0.00    +0.000 C 
BRANCH  22  26
ATOM     23  C   UNL     1      -6.567  -0.842   1.879  0.00  0.00    +0.000 A 
ATOM     24  C   UNL     1      -7.169  -1.284   0.720  0.00  0.00    +0.000 A 
ATOM     25  C   UNL     1      -6.469  -1.304  -0.484  0.00  0.00    +0.000 A 
ATOM     26  C   UNL     1      -5.164  -0.889  -0.564  0.00  0.00    +0.000 A 
ATOM     27  C   UNL     1      -4.557  -0.447   0.593  0.00  0.00    +0.000 A 
ATOM     28  C   UNL     1      -5.253  -0.426   1.794  0.00  0.00    +0.000 A 
BRANCH  23  30
ATOM     29  C   UNL     1      -8.575  -1.236   3.172  0.00  0.00    +0.000 C 
ATOM     30  O   UNL     1      -7.230  -0.805   3.106  0.00  0.00    +0.000 OA
ENDBRANCH  23  30
ENDBRANCH  22  26
ENDBRANCH  21  22
ENDBRANCH  20  21
ENDBRANCH  17  20
ENDBRANCH   1  19
TORSDOF 7
