REMARK  Name = 
REMARK  6 active torsions:
REMARK  status: ('A' for Active; 'I' for Inactive)
REMARK    1  A    between atoms: C_2  and  O_3
REMARK    2  A    between atoms: O_3  and  C_4
REMARK    3  A    between atoms: C_6  and  C_7
REMARK    4  A    between atoms: N_14  and  C_15
REMARK    5  A    between atoms: C_23  and  O_24
REMARK    6  A    between atoms: C_26  and  O_27
REMARK                            x       y       z     vdW  Elec       q    Type
REMARK                         _______ _______ _______ _____ _____    ______ ____
ROOT
ATOM      1  C   UNL     1      -0.393   0.151  -0.287  0.00  0.00    +0.000 A 
ATOM      2  N   UNL     1       0.689  -0.632  -0.142  0.00  0.00    +0.000 NA
ATOM      3  C   UNL     1       1.869  -0.143   0.339  0.00  0.00    +0.000 A 
ATOM      4  C   UNL     1       1.936   1.181   0.677  0.00  0.00    +0.000 A 
ATOM      5  C   UNL     1       3.226   1.384   1.123  0.00  0.00    +0.000 A 
ATOM      6  C   UNL     1       3.757   2.707   1.604  0.00  0.00    +0.000 C 
ATOM      7  N   UNL     1       3.878   0.214   1.042  0.00  0.00    +0.000 NA
ATOM      8  N   UNL     1       3.062  -0.708   0.570  0.00  0.00    +0.000 N 
ATOM      9  C   UNL     1       0.822   1.989   0.529  0.00  0.00    +0.000 A 
ATOM     10  C   UNL     1       0.876   3.311   0.863  0.00  0.00    +0.000 A 
ATOM     11  C   UNL     1      -0.236   4.116   0.714  0.00  0.00    +0.000 A 
ATOM     12  C   UNL     1      -1.435   3.635   0.230  0.00  0.00    +0.000 A 
ATOM     13  C   UNL     1      -1.492   2.299  -0.109  0.00  0.00    +0.000 A 
ATOM     14  C   UNL     1      -0.378   1.492   0.040  0.00  0.00    +0.000 A 
ENDROOT
BRANCH   1  17
ATOM     15  C   UNL     1      -3.281  -2.138  -0.954  0.00  0.00    +0.000 A 
ATOM     16  C   UNL     1      -2.099  -1.669  -0.372  0.00  0.00    +0.000 A 
ATOM     17  C   UNL     1      -1.613  -0.453  -0.807  0.00  0.00    +0.000 A 
ATOM     18  C   UNL     1      -2.291   0.256  -1.783  0.00  0.00    +0.000 A 
ATOM     19  C   UNL     1      -3.447  -0.198  -2.356  0.00  0.00    +0.000 A 
ATOM     20  C   UNL     1      -3.943  -1.411  -1.931  0.00  0.00    +0.000 A 
ATOM     21  O   UNL     1      -5.116  -1.859  -2.518  0.00  0.00    +0.000 OA
BRANCH  15  22
ATOM     22  O   UNL     1      -3.849  -3.345  -0.587  0.00  0.00    +0.000 OA
BRANCH  22  24
ATOM     23  C   UNL     1      -4.172  -5.416   0.533  0.00  0.00    +0.000 C 
ATOM     24  C   UNL     1      -3.294  -4.191   0.388  0.00  0.00    +0.000 C 
ENDBRANCH  22  24
ENDBRANCH  15  22
ENDBRANCH   1  17
BRANCH   8  25
ATOM     25  C   UNL     1       3.378  -2.096   0.334  0.00  0.00    +0.000 A 
ATOM     26  C   UNL     1       2.633  -2.877  -0.500  0.00  0.00    +0.000 A 
ATOM     27  C   UNL     1       2.990  -4.200  -0.683  0.00  0.00    +0.000 A 
ATOM     28  C   UNL     1       4.090  -4.762  -0.041  0.00  0.00    +0.000 A 
ATOM     29  C   UNL     1       4.848  -3.954   0.811  0.00  0.00    +0.000 A 
ATOM     30  C   UNL     1       4.471  -2.642   0.975  0.00  0.00    +0.000 A 
ENDBRANCH   8  25
BRANCH  11  31
ATOM     31  O   UNL     1      -0.188   5.473   1.055  0.00  0.00    +0.000 OA
ATOM     32  C   UNL     1       1.024   6.006   1.556  0.00  0.00    +0.000 C 
ENDBRANCH  11  31
BRANCH  12  33
ATOM     33  O   UNL     1      -2.545   4.476   0.090  0.00  0.00    +0.000 OA
ATOM     34  C   UNL     1      -3.779   4.004  -0.403  0.00  0.00    +0.000 C 
ENDBRANCH  12  33
TORSDOF 6
