REMARK  Name = 
REMARK  9 active torsions:
REMARK  status: ('A' for Active; 'I' for Inactive)
REMARK    1  A    between atoms: C_2  and  C_4
REMARK    2  A    between atoms: C_9  and  O_10
REMARK    3  A    between atoms: O_10  and  C_11
REMARK    4  A    between atoms: C_11  and  C_12
REMARK    5  A    between atoms: C_12  and  N_13
REMARK    6  A    between atoms: C_14  and  C_16
REMARK    7  A    between atoms: C_21  and  S_22
REMARK    8  A    between atoms: S_22  and  C_23
REMARK    9  A    between atoms: C_23  and  C_24
REMARK                            x       y       z     vdW  Elec       q    Type
REMARK                         _______ _______ _______ _____ _____    ______ ____
ROOT
ATOM      1  N   UNL     1      -0.088  -0.253  -0.603  0.00  0.00    +0.000 NA
ATOM      2  C   UNL     1      -0.489   1.044  -0.954  0.00  0.00    +0.000 C 
ATOM      3  O   UNL     1       0.390   1.939  -1.023  0.00  0.00    +0.000 OA
ENDROOT
BRANCH   2   4
ATOM      4  C   UNL     1      -1.863   1.418  -1.243  0.00  0.00    +0.000 A 
ATOM      5  C   UNL     1      -2.183   2.705  -1.573  0.00  0.00    +0.000 A 
ATOM      6  C   UNL     1      -3.475   3.106  -1.854  0.00  0.00    +0.000 A 
ATOM      7  C   UNL     1      -4.510   2.199  -1.811  0.00  0.00    +0.000 A 
ATOM      8  C   UNL     1      -4.189   0.884  -1.475  0.00  0.00    +0.000 A 
ATOM      9  C   UNL     1      -2.898   0.496  -1.196  0.00  0.00    +0.000 A 
BRANCH   9  10
ATOM     10  S   UNL     1      -2.469  -1.181  -0.764  0.00  0.00    +0.000 S 
BRANCH  10  11
ATOM     11  C   UNL     1      -2.587  -1.328   1.047  0.00  0.00    +0.000 C 
BRANCH  11  12
ATOM     12  C   UNL     1      -3.986  -1.174   1.519  0.00  0.00    +0.000 A 
ATOM     13  C   UNL     1      -4.871  -2.219   1.661  0.00  0.00    +0.000 A 
ATOM     14  C   UNL     1      -6.157  -1.971   2.109  0.00  0.00    +0.000 A 
ATOM     15  C   UNL     1      -6.591  -0.708   2.421  0.00  0.00    +0.000 A 
ATOM     16  C   UNL     1      -5.716   0.342   2.283  0.00  0.00    +0.000 A 
ATOM     17  C   UNL     1      -4.425   0.095   1.833  0.00  0.00    +0.000 A 
ENDBRANCH  11  12
ENDBRANCH  10  11
ENDBRANCH   9  10
ENDBRANCH   2   4
BRANCH   1  18
ATOM     18  C   UNL     1       1.254  -0.669  -0.309  0.00  0.00    +0.000 C 
BRANCH  18  19
ATOM     19  C   UNL     1       2.190  -0.443  -1.484  0.00  0.00    +0.000 C 
BRANCH  19  20
ATOM     20  O   UNL     1       3.482  -0.858  -1.164  0.00  0.00    +0.000 OA
BRANCH  20  26
ATOM     21  C   UNL     1       5.442  -0.755   0.140  0.00  0.00    +0.000 A 
ATOM     22  C   UNL     1       6.192  -0.236   1.174  0.00  0.00    +0.000 A 
ATOM     23  C   UNL     1       5.643   0.759   1.953  0.00  0.00    +0.000 A 
ATOM     24  C   UNL     1       4.374   1.253   1.735  0.00  0.00    +0.000 A 
ATOM     25  C   UNL     1       3.664   0.705   0.692  0.00  0.00    +0.000 A 
ATOM     26  C   UNL     1       4.170  -0.291  -0.113  0.00  0.00    +0.000 A 
BRANCH  21  28
ATOM     27  C   UNL     1       7.454  -2.159  -0.210  0.00  0.00    +0.000 C 
ATOM     28  C   UNL     1       6.059  -1.830  -0.687  0.00  0.00    +0.000 C 
ATOM     29  C   UNL     1       6.186  -1.291  -2.105  0.00  0.00    +0.000 C 
ENDBRANCH  21  28
ENDBRANCH  20  26
ENDBRANCH  19  20
ENDBRANCH  18  19
ENDBRANCH   1  18
TORSDOF 9
