REMARK  Name = 
REMARK  8 active torsions:
REMARK  status: ('A' for Active; 'I' for Inactive)
REMARK    1  A    between atoms: O_2  and  C_3
REMARK    2  A    between atoms: C_4  and  C_5
REMARK    3  A    between atoms: C_5  and  C_6
REMARK    4  A    between atoms: N_14  and  C_15
REMARK    5  A    between atoms: C_15  and  C_16
REMARK    6  A    between atoms: C_16  and  C_17
REMARK    7  A    between atoms: C_17  and  C_18
REMARK    8  A    between atoms: C_24  and  N_25
REMARK                            x       y       z     vdW  Elec       q    Type
REMARK                         _______ _______ _______ _____ _____    ______ ____
ROOT
ATOM      1  C   UNL     1       0.062   0.612   0.886  0.00  0.00    +0.000 C 
ENDROOT
BRANCH   1   6
ATOM      2  C   UNL     1       3.054   0.116  -1.243  0.00  0.00    +0.000 C 
ATOM      3  C   UNL     1       3.794  -0.572  -0.386  0.00  0.00    +0.000 C 
ATOM      4  C   UNL     1       3.388  -0.442   1.058  0.00  0.00    +0.000 C 
ATOM      5  C   UNL     1       1.913  -0.785   1.096  0.00  0.00    +0.000 C 
ATOM      6  N   UNL     1       1.148  -0.005   0.150  0.00  0.00    +0.000 NA
ATOM      7  C   UNL     1       1.938   0.907  -0.611  0.00  0.00    +0.000 C 
BRANCH   2   9
ATOM      8  C   UNL     1       4.500   0.341  -3.245  0.00  0.00    +0.000 C 
ATOM      9  O   UNL     1       3.284   0.111  -2.605  0.00  0.00    +0.000 OA
ENDBRANCH   2   9
BRANCH   3  10
ATOM     10  C   UNL     1       4.912  -1.386  -0.848  0.00  0.00    +0.000 C 
BRANCH  10  11
ATOM     11  C   UNL     1       6.158  -0.862  -0.185  0.00  0.00    +0.000 A 
ATOM     12  C   UNL     1       6.866   0.134  -0.820  0.00  0.00    +0.000 A 
ATOM     13  C   UNL     1       7.993   0.615  -0.229  0.00  0.00    +0.000 A 
ATOM     14  C   UNL     1       8.461   0.156   0.973  0.00  0.00    +0.000 A 
ATOM     15  C   UNL     1       7.755  -0.847   1.623  0.00  0.00    +0.000 A 
ATOM     16  C   UNL     1       6.594  -1.360   1.039  0.00  0.00    +0.000 A 
ENDBRANCH  10  11
ENDBRANCH   3  10
ENDBRANCH   1   6
BRANCH   1  17
ATOM     17  C   UNL     1      -0.848  -0.558   1.292  0.00  0.00    +0.000 C 
BRANCH  17  18
ATOM     18  C   UNL     1      -1.272  -1.174  -0.051  0.00  0.00    +0.000 C 
BRANCH  18  19
ATOM     19  C   UNL     1      -2.005  -0.150  -0.860  0.00  0.00    +0.000 A 
ATOM     20  C   UNL     1      -1.559   0.579  -1.922  0.00  0.00    +0.000 A 
ATOM     21  N   UNL     1      -2.593   1.376  -2.313  0.00  0.00    +0.000 NA
ATOM     22  C   UNL     1      -3.662   1.187  -1.556  0.00  0.00    +0.000 A 
ATOM     23  C   UNL     1      -4.939   1.714  -1.517  0.00  0.00    +0.000 A 
ATOM     24  C   UNL     1      -5.822   1.265  -0.558  0.00  0.00    +0.000 A 
ATOM     25  C   UNL     1      -5.499   0.301   0.385  0.00  0.00    +0.000 A 
ATOM     26  C   UNL     1      -4.214  -0.214   0.329  0.00  0.00    +0.000 A 
ATOM     27  C   UNL     1      -3.316   0.226  -0.627  0.00  0.00    +0.000 A 
BRANCH  25  28
ATOM     28  N   UNL     1      -6.445  -0.129   1.350  0.00  0.00    +0.000 N 
ATOM     29  C   UNL     1      -6.821   0.538   2.448  0.00  0.00    +0.000 A 
ATOM     30  N   UNL     1      -7.731  -0.181   3.116  0.00  0.00    +0.000 NA
ATOM     31  N   UNL     1      -7.942  -1.300   2.458  0.00  0.00    +0.000 NA
ATOM     32  C   UNL     1      -7.152  -1.266   1.373  0.00  0.00    +0.000 A 
ENDBRANCH  25  28
ENDBRANCH  18  19
ENDBRANCH  17  18
ENDBRANCH   1  17
TORSDOF 8
