REMARK  Name = 
REMARK  10 active torsions:
REMARK  status: ('A' for Active; 'I' for Inactive)
REMARK    1  A    between atoms: C_2  and  N_4
REMARK    2  A    between atoms: N_4  and  C_5
REMARK    3  A    between atoms: N_4  and  C_11
REMARK    4  A    between atoms: C_14  and  N_15
REMARK    5  A    between atoms: C_16  and  C_18
REMARK    6  A    between atoms: C_18  and  O_19
REMARK    7  A    between atoms: O_19  and  C_20
REMARK    8  A    between atoms: C_20  and  C_22
REMARK    9  A    between atoms: C_22  and  C_23
REMARK   10  A    between atoms: C_23  and  C_24
REMARK                            x       y       z     vdW  Elec       q    Type
REMARK                         _______ _______ _______ _____ _____    ______ ____
ROOT
ATOM      1  C   UNL     1      -3.153  -0.433  -0.665  0.00  0.00    +0.000 A 
ATOM      2  C   UNL     1      -2.260  -1.229  -1.343  0.00  0.00    +0.000 A 
ATOM      3  C   UNL     1      -0.892  -1.043  -1.275  0.00  0.00    +0.000 A 
ATOM      4  C   UNL     1      -0.356  -0.032  -0.509  0.00  0.00    +0.000 A 
ATOM      5  C   UNL     1      -1.242   0.774   0.176  0.00  0.00    +0.000 A 
ATOM      6  C   UNL     1      -2.608   0.593   0.111  0.00  0.00    +0.000 A 
ENDROOT
BRANCH   4   7
ATOM      7  N   UNL     1       1.056   0.184  -0.409  0.00  0.00    +0.000 NA
ATOM      8  C   UNL     1       1.464   1.347   0.310  0.00  0.00    +0.000 C 
ATOM      9  O   UNL     1       0.632   2.137   0.826  0.00  0.00    +0.000 OA
BRANCH   8  10
ATOM     10  C   UNL     1       2.919   1.606   0.438  0.00  0.00    +0.000 C 
BRANCH  10  11
ATOM     11  O   UNL     1       3.635   0.539  -0.148  0.00  0.00    +0.000 OA
BRANCH  11  12
ATOM     12  C   UNL     1       3.462  -0.751   0.395  0.00  0.00    +0.000 C 
ATOM     13  O   UNL     1       2.682  -0.919   1.371  0.00  0.00    +0.000 OA
BRANCH  12  14
ATOM     14  C   UNL     1       4.217  -1.917  -0.201  0.00  0.00    +0.000 C 
BRANCH  14  15
ATOM     15  C   UNL     1       5.393  -2.257   0.716  0.00  0.00    +0.000 C 
BRANCH  15  16
ATOM     16  C   UNL     1       6.281  -1.054   0.811  0.00  0.00    +0.000 A 
ATOM     17  C   UNL     1       5.973  -0.134   1.775  0.00  0.00    +0.000 A 
ATOM     18  C   UNL     1       6.732   0.992   1.927  0.00  0.00    +0.000 A 
ATOM     19  C   UNL     1       7.826   1.253   1.133  0.00  0.00    +0.000 A 
ATOM     20  C   UNL     1       8.120   0.294   0.153  0.00  0.00    +0.000 A 
ATOM     21  C   UNL     1       7.363  -0.835  -0.004  0.00  0.00    +0.000 A 
ENDBRANCH  15  16
ENDBRANCH  14  15
ENDBRANCH  12  14
ENDBRANCH  11  12
ENDBRANCH  10  11
ENDBRANCH   8  10
ENDBRANCH   4   7
BRANCH   1  22
ATOM     22  N   UNL     1      -4.560  -0.611  -0.741  0.00  0.00    +0.000 N 
BRANCH  22  23
ATOM     23  C   UNL     1      -5.381   0.260   0.033  0.00  0.00    +0.000 A 
ATOM     24  C   UNL     1      -6.064  -0.190   1.134  0.00  0.00    +0.000 A 
ATOM     25  C   UNL     1      -6.847   0.665   1.911  0.00  0.00    +0.000 A 
ATOM     26  C   UNL     1      -6.960   2.014   1.593  0.00  0.00    +0.000 A 
ATOM     27  C   UNL     1      -6.276   2.466   0.490  0.00  0.00    +0.000 A 
ATOM     28  C   UNL     1      -5.500   1.617  -0.280  0.00  0.00    +0.000 A 
ENDBRANCH  22  23
BRANCH  22  30
ATOM     29  C   UNL     1      -6.130  -1.040  -2.601  0.00  0.00    +0.000 C 
ATOM     30  C   UNL     1      -5.211  -1.601  -1.554  0.00  0.00    +0.000 C 
ATOM     31  C   UNL     1      -4.314  -2.694  -2.030  0.00  0.00    +0.000 C 
ENDBRANCH  22  30
ENDBRANCH   1  22
TORSDOF 10
