REMARK  Name = 
REMARK  7 active torsions:
REMARK  status: ('A' for Active; 'I' for Inactive)
REMARK    1  A    between atoms: C_2  and  C_22
REMARK    2  A    between atoms: N_3  and  C_4
REMARK    3  A    between atoms: C_4  and  C_5
REMARK    4  A    between atoms: C_5  and  C_6
REMARK    5  A    between atoms: C_6  and  C_7
REMARK    6  A    between atoms: C_7  and  N_8
REMARK    7  A    between atoms: C_25  and  C_26
REMARK                            x       y       z     vdW  Elec       q    Type
REMARK                         _______ _______ _______ _____ _____    ______ ____
ROOT
ATOM      1  C   UNL     1      -0.805  -0.501  -0.828  0.00  0.00    +0.000 C 
ENDROOT
BRANCH   1   2
ATOM      2  C   UNL     1      -0.279   0.860  -1.207  0.00  0.00    +0.000 C 
BRANCH   2   5
ATOM      3  O   UNL     1       1.640  -0.784  -2.306  0.00  0.00    +0.000 OA
ATOM      4  C   UNL     1       2.058   0.084  -1.509  0.00  0.00    +0.000 C 
ATOM      5  N   UNL     1       1.133   0.972  -0.898  0.00  0.00    +0.000 NA
BRANCH   4   6
ATOM      6  C   UNL     1       3.484   0.174  -1.217  0.00  0.00    +0.000 A 
ATOM      7  C   UNL     1       3.959   1.115  -0.337  0.00  0.00    +0.000 A 
ATOM      8  C   UNL     1       5.295   1.210  -0.056  0.00  0.00    +0.000 A 
ATOM      9  C   UNL     1       6.217   0.360  -0.647  0.00  0.00    +0.000 A 
ATOM     10  C   UNL     1       5.708  -0.571  -1.523  0.00  0.00    +0.000 A 
ATOM     11  C   UNL     1       4.373  -0.680  -1.817  0.00  0.00    +0.000 A 
BRANCH   9  12
ATOM     12  C   UNL     1       7.644   0.452  -0.353  0.00  0.00    +0.000 A 
ATOM     13  C   UNL     1       8.618   0.135  -1.271  0.00  0.00    +0.000 A 
ATOM     14  C   UNL     1       9.953   0.245  -0.923  0.00  0.00    +0.000 A 
ATOM     15  C   UNL     1      10.333   0.666   0.326  0.00  0.00    +0.000 A 
ATOM     16  C   UNL     1       9.370   0.986   1.253  0.00  0.00    +0.000 A 
ATOM     17  C   UNL     1       8.036   0.873   0.896  0.00  0.00    +0.000 A 
ENDBRANCH   9  12
ENDBRANCH   4   6
ENDBRANCH   2   5
ENDBRANCH   1   2
BRANCH   1  18
ATOM     18  C   UNL     1      -0.575  -0.645   0.681  0.00  0.00    +0.000 C 
BRANCH  18  19
ATOM     19  C   UNL     1      -1.325   0.454   1.411  0.00  0.00    +0.000 C 
BRANCH  19  20
ATOM     20  N   UNL     1      -2.755   0.374   1.145  0.00  0.00    +0.000 NA
ATOM     21  C   UNL     1      -3.078   0.689  -0.209  0.00  0.00    +0.000 C 
ATOM     22  C   UNL     1      -4.371   0.107  -0.655  0.00  0.00    +0.000 C 
ATOM     23  C   UNL     1      -5.302  -0.258   0.442  0.00  0.00    +0.000 C 
ATOM     24  C   UNL     1      -4.771  -0.750   1.548  0.00  0.00    +0.000 C 
ATOM     25  C   UNL     1      -5.569  -1.156   2.717  0.00  0.00    +0.000 C 
ATOM     26  C   UNL     1      -7.031  -0.983   2.595  0.00  0.00    +0.000 C 
ATOM     27  C   UNL     1      -7.552  -0.436   1.354  0.00  0.00    +0.000 A 
ATOM     28  C   UNL     1      -8.914  -0.271   1.229  0.00  0.00    +0.000 A 
ATOM     29  C   UNL     1      -9.476   0.242   0.077  0.00  0.00    +0.000 A 
ATOM     30  C   UNL     1      -8.659   0.605  -0.991  0.00  0.00    +0.000 A 
ATOM     31  C   UNL     1      -7.305   0.430  -0.840  0.00  0.00    +0.000 A 
ATOM     32  C   UNL     1      -6.754  -0.083   0.313  0.00  0.00    +0.000 A 
ATOM     33  C   UNL     1      -3.303  -0.891   1.597  0.00  0.00    +0.000 C 
ENDBRANCH  19  20
ENDBRANCH  18  19
ENDBRANCH   1  18
TORSDOF 7
