REMARK  Name = 
REMARK  8 active torsions:
REMARK  status: ('A' for Active; 'I' for Inactive)
REMARK    1  A    between atoms: C_7  and  C_8
REMARK    2  A    between atoms: C_8  and  N_9
REMARK    3  A    between atoms: N_9  and  C_10
REMARK    4  A    between atoms: N_9  and  C_27
REMARK    5  A    between atoms: C_10  and  C_11
REMARK    6  A    between atoms: C_14  and  C_15
REMARK    7  A    between atoms: N_17  and  C_18
REMARK    8  A    between atoms: C_18  and  C_20
REMARK                            x       y       z     vdW  Elec       q    Type
REMARK                         _______ _______ _______ _____ _____    ______ ____
ROOT
ATOM      1  C   UNL     1      -0.437   0.769  -0.797  0.00  0.00    +0.000 A 
ATOM      2  C   UNL     1      -0.782  -0.298   0.041  0.00  0.00    +0.000 A 
ATOM      3  C   UNL     1       0.411  -0.984   0.183  0.00  0.00    +0.000 A 
ATOM      4  C   UNL     1       1.389  -0.340  -0.538  0.00  0.00    +0.000 A 
ATOM      5  O   UNL     1       0.815   0.696  -1.097  0.00  0.00    +0.000 OA
ENDROOT
BRANCH   4   6
ATOM      6  C   UNL     1       2.820  -0.685  -0.698  0.00  0.00    +0.000 C 
ATOM      7  O   UNL     1       3.565   0.044  -1.401  0.00  0.00    +0.000 OA
ATOM      8  N   UNL     1       3.413  -1.789  -0.106  0.00  0.00    +0.000 NA
BRANCH   8   9
ATOM      9  C   UNL     1       4.916  -2.110  -0.295  0.00  0.00    +0.000 C 
ATOM     10  C   UNL     1       5.219  -1.128  -1.578  0.00  0.00    +0.000 C 
BRANCH   9  11
ATOM     11  C   UNL     1       5.472  -1.092   0.831  0.00  0.00    +0.000 A 
ATOM     12  C   UNL     1       6.455  -1.605   1.643  0.00  0.00    +0.000 A 
ATOM     13  C   UNL     1       6.962  -0.762   2.635  0.00  0.00    +0.000 A 
ATOM     14  C   UNL     1       6.453   0.509   2.736  0.00  0.00    +0.000 A 
ATOM     15  C   UNL     1       5.473   0.983   1.907  0.00  0.00    +0.000 A 
ATOM     16  C   UNL     1       4.985   0.140   0.935  0.00  0.00    +0.000 A 
ENDBRANCH   9  11
ENDBRANCH   8   9
ENDBRANCH   4   6
BRANCH   1  17
ATOM     17  C   UNL     1      -1.336   1.852  -1.294  0.00  0.00    +0.000 C 
BRANCH  17  18
ATOM     18  N   UNL     1      -2.607   1.728  -0.525  0.00  0.00    +0.000 NA
BRANCH  18  19
ATOM     19  C   UNL     1      -3.415   2.865  -0.951  0.00  0.00    +0.000 C 
ATOM     20  C   UNL     1      -3.530   2.824  -2.475  0.00  0.00    +0.000 C 
ATOM     21  C   UNL     1      -4.758   2.902  -0.335  0.00  0.00    +0.000 C 
ATOM     22  C   UNL     1      -2.663   4.163  -0.649  0.00  0.00    +0.000 C 
ENDBRANCH  18  19
BRANCH  18  23
ATOM     23  C   UNL     1      -3.122   0.453  -0.814  0.00  0.00    +0.000 C 
BRANCH  23  30
ATOM     24  C   UNL     1      -4.131  -2.042  -1.577  0.00  0.00    +0.000 C 
ATOM     25  C   UNL     1      -4.731  -1.339  -0.385  0.00  0.00    +0.000 A 
ATOM     26  C   UNL     1      -5.741  -1.892   0.345  0.00  0.00    +0.000 A 
ATOM     27  C   UNL     1      -6.294  -1.233   1.447  0.00  0.00    +0.000 A 
ATOM     28  C   UNL     1      -5.785   0.002   1.778  0.00  0.00    +0.000 A 
ATOM     29  C   UNL     1      -4.778   0.561   1.057  0.00  0.00    +0.000 A 
ATOM     30  C   UNL     1      -4.234  -0.079  -0.021  0.00  0.00    +0.000 A 
ENDBRANCH  23  30
ENDBRANCH  18  23
ENDBRANCH  17  18
ENDBRANCH   1  17
TORSDOF 8
