REMARK  Name = 
REMARK  6 active torsions:
REMARK  status: ('A' for Active; 'I' for Inactive)
REMARK    1  A    between atoms: O_2  and  C_3
REMARK    2  A    between atoms: C_5  and  C_6
REMARK    3  A    between atoms: C_16  and  O_17
REMARK    4  A    between atoms: O_17  and  C_18
REMARK    5  A    between atoms: C_18  and  C_19
REMARK    6  A    between atoms: C_27  and  O_28
REMARK                            x       y       z     vdW  Elec       q    Type
REMARK                         _______ _______ _______ _____ _____    ______ ____
ROOT
ATOM      1  C   UNL     1      -2.550  -1.734   0.716  0.00  0.00    +0.000 C 
ATOM      2  N   UNL     1      -2.079  -1.521   2.218  0.00  0.00    +0.000 NA
ATOM      3  C   UNL     1      -1.214  -2.608   2.525  0.00  0.00    +0.000 C 
ATOM      4  C   UNL     1      -0.385  -3.107   1.374  0.00  0.00    +0.000 C 
ATOM      5  C   UNL     1      -0.124  -1.961   0.484  0.00  0.00    +0.000 A 
ATOM      6  C   UNL     1      -1.195  -1.206   0.103  0.00  0.00    +0.000 A 
ATOM      7  N   UNL     1      -0.765  -0.266  -0.662  0.00  0.00    +0.000 NA
ATOM      8  C   UNL     1       0.600  -0.356  -0.821  0.00  0.00    +0.000 A 
ATOM      9  C   UNL     1       1.504   0.400  -1.530  0.00  0.00    +0.000 A 
ATOM     10  C   UNL     1       2.843   0.087  -1.522  0.00  0.00    +0.000 A 
ATOM     11  C   UNL     1       3.248  -1.008  -0.780  0.00  0.00    +0.000 A 
ATOM     12  C   UNL     1       2.360  -1.778  -0.063  0.00  0.00    +0.000 A 
ATOM     13  C   UNL     1       1.039  -1.434  -0.097  0.00  0.00    +0.000 A 
ENDROOT
BRANCH   1  16
ATOM     14  C   UNL     1      -4.641   1.389   1.527  0.00  0.00    +0.000 A 
ATOM     15  C   UNL     1      -3.856   0.230   1.620  0.00  0.00    +0.000 A 
ATOM     16  C   UNL     1      -3.413  -0.441   0.552  0.00  0.00    +0.000 A 
ATOM     17  C   UNL     1      -3.734   0.015  -0.694  0.00  0.00    +0.000 A 
ATOM     18  C   UNL     1      -4.519   1.173  -0.826  0.00  0.00    +0.000 A 
ATOM     19  C   UNL     1      -4.959   1.839   0.288  0.00  0.00    +0.000 A 
ATOM     20  C   UNL     1      -5.790   3.063   0.138  0.00  0.00    +0.000 C 
BRANCH  14  22
ATOM     21  C   UNL     1      -4.683   1.486   3.965  0.00  0.00    +0.000 C 
ATOM     22  O   UNL     1      -5.026   1.974   2.703  0.00  0.00    +0.000 OA
ENDBRANCH  14  22
BRANCH  17  23
ATOM     23  O   UNL     1      -3.333  -0.594  -1.861  0.00  0.00    +0.000 OA
ATOM     24  C   UNL     1      -3.689  -0.088  -3.123  0.00  0.00    +0.000 C 
ENDBRANCH  17  23
ENDBRANCH   1  16
BRANCH  11  25
ATOM     25  O   UNL     1       4.613  -1.294  -0.797  0.00  0.00    +0.000 OA
BRANCH  25  26
ATOM     26  C   UNL     1       5.547  -0.557  -1.495  0.00  0.00    +0.000 C 
BRANCH  26  27
ATOM     27  C   UNL     1       5.603   0.866  -1.040  0.00  0.00    +0.000 A 
ATOM     28  C   UNL     1       6.439   1.740  -1.728  0.00  0.00    +0.000 A 
ATOM     29  C   UNL     1       6.526   3.058  -1.340  0.00  0.00    +0.000 A 
ATOM     30  C   UNL     1       5.783   3.532  -0.262  0.00  0.00    +0.000 A 
ATOM     31  C   UNL     1       4.952   2.670   0.424  0.00  0.00    +0.000 A 
ATOM     32  C   UNL     1       4.898   1.369   0.003  0.00  0.00    +0.000 A 
ENDBRANCH  26  27
ENDBRANCH  25  26
ENDBRANCH  11  25
TORSDOF 6
