REMARK  Name = 
REMARK  9 active torsions:
REMARK  status: ('A' for Active; 'I' for Inactive)
REMARK    1  A    between atoms: C_2  and  C_5
REMARK    2  A    between atoms: C_8  and  O_9
REMARK    3  A    between atoms: O_9  and  C_10
REMARK    4  A    between atoms: C_10  and  C_11
REMARK    5  A    between atoms: C_11  and  O_12
REMARK    6  A    between atoms: O_12  and  C_13
REMARK    7  A    between atoms: C_17  and  C_18
REMARK    8  A    between atoms: N_19  and  N_20
REMARK    9  A    between atoms: C_21  and  C_23
REMARK                            x       y       z     vdW  Elec       q    Type
REMARK                         _______ _______ _______ _____ _____    ______ ____
ROOT
ATOM      1  C   UNL     1       0.204   0.495   0.811  0.00  0.00    +0.000 A 
ATOM      2  C   UNL     1      -0.076  -0.697   1.427  0.00  0.00    +0.000 A 
ATOM      3  C   UNL     1      -1.379  -1.089   1.626  0.00  0.00    +0.000 A 
ATOM      4  C   UNL     1      -2.356  -0.263   1.195  0.00  0.00    +0.000 A 
ATOM      5  C   UNL     1      -2.144   0.976   0.554  0.00  0.00    +0.000 A 
ATOM      6  C   UNL     1      -0.812   1.327   0.378  0.00  0.00    +0.000 A 
ENDROOT
BRANCH   5   7
ATOM      7  C   UNL     1      -3.235   1.718   0.169  0.00  0.00    +0.000 C 
ATOM      8  N   UNL     1      -4.147   2.358  -0.162  0.00  0.00    +0.000 NA
BRANCH   8   9
ATOM      9  N   UNL     1      -5.548   2.125  -0.023  0.00  0.00    +0.000 NA
ATOM     10  C   UNL     1      -6.112   0.873  -0.470  0.00  0.00    +0.000 C 
ATOM     11  O   UNL     1      -5.286   0.063  -0.969  0.00  0.00    +0.000 OA
BRANCH  10  12
ATOM     12  C   UNL     1      -7.523   0.544  -0.361  0.00  0.00    +0.000 A 
ATOM     13  C   UNL     1      -8.458   1.034  -1.236  0.00  0.00    +0.000 A 
ATOM     14  C   UNL     1      -9.805   0.675  -1.069  0.00  0.00    +0.000 A 
ATOM     15  N   UNL     1     -10.222  -0.131  -0.088  0.00  0.00    +0.000 NA
ATOM     16  C   UNL     1      -9.332  -0.623   0.779  0.00  0.00    +0.000 A 
ATOM     17  C   UNL     1      -8.005  -0.295   0.652  0.00  0.00    +0.000 A 
ENDBRANCH  10  12
ENDBRANCH   8   9
ENDBRANCH   5   7
BRANCH   1  18
ATOM     18  O   UNL     1       1.509   0.873   0.617  0.00  0.00    +0.000 OA
BRANCH  18  19
ATOM     19  C   UNL     1       2.611   0.105   1.012  0.00  0.00    +0.000 C 
BRANCH  19  20
ATOM     20  C   UNL     1       2.540  -1.234   0.296  0.00  0.00    +0.000 C 
BRANCH  20  21
ATOM     21  O   UNL     1       3.648  -2.072   0.648  0.00  0.00    +0.000 OA
BRANCH  21  25
ATOM     22  C   UNL     1       7.497  -0.681  -0.227  0.00  0.00    +0.000 A 
ATOM     23  C   UNL     1       6.386   0.102  -0.544  0.00  0.00    +0.000 A 
ATOM     24  C   UNL     1       5.122  -0.371  -0.249  0.00  0.00    +0.000 A 
ATOM     25  C   UNL     1       4.901  -1.577   0.344  0.00  0.00    +0.000 A 
ATOM     26  C   UNL     1       6.020  -2.351   0.656  0.00  0.00    +0.000 A 
ATOM     27  C   UNL     1       7.294  -1.893   0.366  0.00  0.00    +0.000 A 
BRANCH  22  29
ATOM     28  C   UNL     1       9.030   1.091   0.322  0.00  0.00    +0.000 C 
ATOM     29  C   UNL     1       8.861  -0.144  -0.555  0.00  0.00    +0.000 C 
ATOM     30  C   UNL     1       8.935   0.271  -1.996  0.00  0.00    +0.000 C 
ATOM     31  C   UNL     1       9.883  -1.209  -0.210  0.00  0.00    +0.000 C 
ENDBRANCH  22  29
ENDBRANCH  21  25
ENDBRANCH  20  21
ENDBRANCH  19  20
ENDBRANCH  18  19
ENDBRANCH   1  18
TORSDOF 9
