REMARK  Name = 
REMARK  7 active torsions:
REMARK  status: ('A' for Active; 'I' for Inactive)
REMARK    1  A    between atoms: N_2  and  C_4
REMARK    2  A    between atoms: C_4  and  C_5
REMARK    3  A    between atoms: C_5  and  C_6
REMARK    4  A    between atoms: C_6  and  O_7
REMARK    5  A    between atoms: O_7  and  C_8
REMARK    6  A    between atoms: C_11  and  N_12
REMARK    7  A    between atoms: N_12  and  C_13
REMARK                            x       y       z     vdW  Elec       q    Type
REMARK                         _______ _______ _______ _____ _____    ______ ____
ROOT
ATOM      1  C   UNL     1      -1.738  -0.636   0.537  0.00  0.00    +0.000 C 
ATOM      2  C   UNL     1      -3.091  -0.569   1.330  0.00  0.00    +0.000 A 
ATOM      3  C   UNL     1      -3.049   0.184   2.442  0.00  0.00    +0.000 A 
ATOM      4  C   UNL     1      -4.167   0.357   3.276  0.00  0.00    +0.000 A 
ATOM      5  C   UNL     1      -5.318  -0.278   2.912  0.00  0.00    +0.000 A 
ATOM      6  C   UNL     1      -5.375  -1.045   1.787  0.00  0.00    +0.000 A 
ATOM      7  C   UNL     1      -4.233  -1.202   0.963  0.00  0.00    +0.000 A 
ATOM      8  C   UNL     1      -4.651  -2.083  -0.147  0.00  0.00    +0.000 C 
ATOM      9  S   UNL     1      -4.090  -1.564  -1.760  0.00  0.00    +0.000 S 
ATOM     10  C   UNL     1      -3.109  -0.043  -1.614  0.00  0.00    +0.000 A 
ATOM     11  C   UNL     1      -3.419   0.842  -2.643  0.00  0.00    +0.000 A 
ATOM     12  C   UNL     1      -2.754   2.051  -2.675  0.00  0.00    +0.000 A 
ATOM     13  C   UNL     1      -1.804   2.381  -1.714  0.00  0.00    +0.000 A 
ATOM     14  C   UNL     1      -1.531   1.474  -0.716  0.00  0.00    +0.000 A 
ATOM     15  C   UNL     1      -2.170   0.312  -0.686  0.00  0.00    +0.000 A 
ENDROOT
BRANCH   1  16
ATOM     16  N   UNL     1      -0.909   0.434   1.356  0.00  0.00    +0.000 NA
BRANCH  16  20
ATOM     17  C   UNL     1       2.961   0.960  -0.092  0.00  0.00    +0.000 A 
ATOM     18  C   UNL     1       2.528   1.695   0.996  0.00  0.00    +0.000 A 
ATOM     19  C   UNL     1       1.244   1.503   1.456  0.00  0.00    +0.000 A 
ATOM     20  C   UNL     1       0.423   0.588   0.826  0.00  0.00    +0.000 A 
ATOM     21  C   UNL     1       0.881  -0.129  -0.255  0.00  0.00    +0.000 A 
ATOM     22  C   UNL     1       2.143   0.054  -0.713  0.00  0.00    +0.000 A 
BRANCH  17  23
ATOM     23  O   UNL     1       4.247   1.145  -0.560  0.00  0.00    +0.000 OA
BRANCH  23  24
ATOM     24  C   UNL     1       4.734   0.415  -1.671  0.00  0.00    +0.000 C 
BRANCH  24  25
ATOM     25  C   UNL     1       4.685  -1.083  -1.364  0.00  0.00    +0.000 C 
BRANCH  25  26
ATOM     26  C   UNL     1       5.521  -1.438  -0.170  0.00  0.00    +0.000 C 
BRANCH  26  28
ATOM     27  C   UNL     1       7.673  -1.452   0.806  0.00  0.00    +0.000 C 
ATOM     28  N   UNL     1       6.908  -1.091  -0.372  0.00  0.00    +0.000 NA
ATOM     29  C   UNL     1       7.459  -1.782  -1.536  0.00  0.00    +0.000 C 
ENDBRANCH  26  28
ENDBRANCH  25  26
ENDBRANCH  24  25
ENDBRANCH  23  24
ENDBRANCH  17  23
ENDBRANCH  16  20
ENDBRANCH   1  16
TORSDOF 7
