REMARK  Name = 
REMARK  6 active torsions:
REMARK  status: ('A' for Active; 'I' for Inactive)
REMARK    1  A    between atoms: C_2  and  C_3
REMARK    2  A    between atoms: C_3  and  C_4
REMARK    3  A    between atoms: N_6  and  N_7
REMARK    4  A    between atoms: C_8  and  C_9
REMARK    5  A    between atoms: N_11  and  C_12
REMARK    6  A    between atoms: C_12  and  C_13
REMARK                            x       y       z     vdW  Elec       q    Type
REMARK                         _______ _______ _______ _____ _____    ______ ____
ROOT
ATOM      1  C   UNL     1       0.073   0.749   1.064  0.00  0.00    +0.000 A 
ATOM      2  C   UNL     1      -1.159   0.398   1.577  0.00  0.00    +0.000 A 
ATOM      3  N   UNL     1      -2.116   1.026   0.858  0.00  0.00    +0.000 N 
ATOM      4  C   UNL     1      -1.565   1.778  -0.110  0.00  0.00    +0.000 A 
ATOM      5  C   UNL     1      -2.103   2.593  -1.085  0.00  0.00    +0.000 A 
ATOM      6  C   UNL     1      -1.236   3.243  -1.945  0.00  0.00    +0.000 A 
ATOM      7  C   UNL     1       0.146   3.095  -1.849  0.00  0.00    +0.000 A 
ATOM      8  C   UNL     1       0.652   2.268  -0.856  0.00  0.00    +0.000 A 
ATOM      9  C   UNL     1      -0.199   1.606   0.018  0.00  0.00    +0.000 A 
ENDROOT
BRANCH   1  11
ATOM     10  N   UNL     1       2.453   0.705   0.968  0.00  0.00    +0.000 NA
ATOM     11  C   UNL     1       1.382   0.287   1.554  0.00  0.00    +0.000 C 
BRANCH  10  14
ATOM     12  C   UNL     1       4.631  -0.330   0.445  0.00  0.00    +0.000 C 
ATOM     13  O   UNL     1       4.215  -0.609  -0.705  0.00  0.00    +0.000 OA
ATOM     14  N   UNL     1       3.740   0.349   1.329  0.00  0.00    +0.000 NA
BRANCH  12  15
ATOM     15  C   UNL     1       5.993  -0.670   0.926  0.00  0.00    +0.000 C 
BRANCH  15  17
ATOM     16  C   UNL     1       6.082  -2.661  -0.539  0.00  0.00    +0.000 C 
ATOM     17  C   UNL     1       6.779  -1.378  -0.140  0.00  0.00    +0.000 C 
ATOM     18  O   UNL     1       8.019  -1.748   0.408  0.00  0.00    +0.000 OA
ATOM     19  C   UNL     1       8.691  -0.526   0.409  0.00  0.00    +0.000 C 
ATOM     20  C   UNL     1       8.286   0.078  -0.921  0.00  0.00    +0.000 C 
ATOM     21  O   UNL     1       7.090  -0.581  -1.221  0.00  0.00    +0.000 OA
ENDBRANCH  15  17
ENDBRANCH  12  15
ENDBRANCH  10  14
ENDBRANCH   1  11
BRANCH   3  22
ATOM     22  C   UNL     1      -3.558   0.943   1.052  0.00  0.00    +0.000 C 
BRANCH  22  23
ATOM     23  C   UNL     1      -4.058  -0.199   0.212  0.00  0.00    +0.000 A 
ATOM     24  C   UNL     1      -3.200  -0.954  -0.560  0.00  0.00    +0.000 A 
ATOM     25  C   UNL     1      -3.646  -2.007  -1.338  0.00  0.00    +0.000 A 
ATOM     26  C   UNL     1      -4.974  -2.337  -1.367  0.00  0.00    +0.000 A 
ATOM     27  C   UNL     1      -5.849  -1.585  -0.595  0.00  0.00    +0.000 A 
ATOM     28  C   UNL     1      -7.188  -1.917  -0.623  0.00  0.00    +0.000 A 
ATOM     29  C   UNL     1      -8.074  -1.178   0.141  0.00  0.00    +0.000 A 
ATOM     30  C   UNL     1      -7.625  -0.125   0.919  0.00  0.00    +0.000 A 
ATOM     31  C   UNL     1      -6.283   0.218   0.955  0.00  0.00    +0.000 A 
ATOM     32  C   UNL     1      -5.398  -0.529   0.185  0.00  0.00    +0.000 A 
ENDBRANCH  22  23
ENDBRANCH   3  22
TORSDOF 6
