REMARK  Name = 
REMARK  8 active torsions:
REMARK  status: ('A' for Active; 'I' for Inactive)
REMARK    1  A    between atoms: C_2  and  C_3
REMARK    2  A    between atoms: C_3  and  C_4
REMARK    3  A    between atoms: C_4  and  C_5
REMARK    4  A    between atoms: C_5  and  C_6
REMARK    5  A    between atoms: C_6  and  N_7
REMARK    6  A    between atoms: C_8  and  C_10
REMARK    7  A    between atoms: C_15  and  C_16
REMARK    8  A    between atoms: C_22  and  C_23
REMARK                            x       y       z     vdW  Elec       q    Type
REMARK                         _______ _______ _______ _____ _____    ______ ____
ROOT
ATOM      1  C   UNL     1       2.462   0.677  -0.706  0.00  0.00    +0.000 A 
ATOM      2  C   UNL     1       2.603  -0.690  -0.608  0.00  0.00    +0.000 A 
ATOM      3  C   UNL     1       1.510  -1.478  -0.376  0.00  0.00    +0.000 A 
ATOM      4  C   UNL     1       0.233  -0.969  -0.228  0.00  0.00    +0.000 A 
ATOM      5  N   UNL     1      -0.835  -1.746  -0.001  0.00  0.00    +0.000 NA
ATOM      6  C   UNL     1      -2.079  -1.224   0.140  0.00  0.00    +0.000 A 
ATOM      7  C   UNL     1      -2.211   0.148   0.041  0.00  0.00    +0.000 A 
ATOM      8  N   UNL     1      -1.146   0.937  -0.187  0.00  0.00    +0.000 NA
ATOM      9  C   UNL     1       0.090   0.417  -0.327  0.00  0.00    +0.000 A 
ATOM     10  C   UNL     1       1.192   1.208  -0.561  0.00  0.00    +0.000 A 
ENDROOT
BRANCH   6  11
ATOM     11  C   UNL     1      -3.243  -2.068   0.386  0.00  0.00    +0.000 A 
ATOM     12  C   UNL     1      -3.637  -3.038  -0.509  0.00  0.00    +0.000 A 
ATOM     13  C   UNL     1      -4.728  -3.855  -0.316  0.00  0.00    +0.000 A 
ATOM     14  C   UNL     1      -5.457  -3.682   0.842  0.00  0.00    +0.000 A 
ATOM     15  C   UNL     1      -5.098  -2.721   1.768  0.00  0.00    +0.000 A 
ATOM     16  C   UNL     1      -3.984  -1.909   1.538  0.00  0.00    +0.000 A 
ENDBRANCH   6  11
BRANCH   7  17
ATOM     17  C   UNL     1      -3.548   0.717   0.192  0.00  0.00    +0.000 A 
ATOM     18  C   UNL     1      -4.552   0.420  -0.677  0.00  0.00    +0.000 A 
ATOM     19  C   UNL     1      -5.795   0.983  -0.490  0.00  0.00    +0.000 A 
ATOM     20  C   UNL     1      -6.055   1.834   0.545  0.00  0.00    +0.000 A 
ATOM     21  C   UNL     1      -5.036   2.128   1.417  0.00  0.00    +0.000 A 
ATOM     22  C   UNL     1      -3.790   1.570   1.239  0.00  0.00    +0.000 A 
ENDBRANCH   7  17
BRANCH   1  24
ATOM     23  N   UNL     1       4.895   0.899  -1.082  0.00  0.00    +0.000 NA
ATOM     24  C   UNL     1       3.629   1.494  -0.952  0.00  0.00    +0.000 C 
ATOM     25  O   UNL     1       3.500   2.731  -1.047  0.00  0.00    +0.000 OA
BRANCH  23  26
ATOM     26  C   UNL     1       6.113   1.647  -1.330  0.00  0.00    +0.000 C 
BRANCH  26  27
ATOM     27  C   UNL     1       6.399   2.645  -0.233  0.00  0.00    +0.000 C 
BRANCH  27  28
ATOM     28  C   UNL     1       6.560   1.967   1.104  0.00  0.00    +0.000 C 
BRANCH  28  29
ATOM     29  C   UNL     1       7.720   0.966   1.071  0.00  0.00    +0.000 C 
BRANCH  29  31
ATOM     30  C   UNL     1       6.502  -0.359   2.821  0.00  0.00    +0.000 C 
ATOM     31  C   UNL     1       7.786   0.352   2.455  0.00  0.00    +0.000 C 
ENDBRANCH  29  31
ENDBRANCH  28  29
ENDBRANCH  27  28
ENDBRANCH  26  27
ENDBRANCH  23  26
ENDBRANCH   1  24
TORSDOF 8
