REMARK  Name = 
REMARK  6 active torsions:
REMARK  status: ('A' for Active; 'I' for Inactive)
REMARK    1  A    between atoms: C_2  and  C_3
REMARK    2  A    between atoms: C_3  and  C_6
REMARK    3  A    between atoms: C_9  and  O_10
REMARK    4  A    between atoms: O_10  and  C_11
REMARK    5  A    between atoms: C_14  and  N_15
REMARK    6  A    between atoms: N_18  and  C_19
REMARK                            x       y       z     vdW  Elec       q    Type
REMARK                         _______ _______ _______ _____ _____    ______ ____
ROOT
ATOM      1  C   UNL     1       0.978   0.065  -1.109  0.00  0.00    +0.000 A 
ATOM      2  C   UNL     1      -0.087   0.320  -0.285  0.00  0.00    +0.000 A 
ATOM      3  C   UNL     1      -1.048  -0.631  -0.027  0.00  0.00    +0.000 A 
ATOM      4  C   UNL     1      -0.991  -1.885  -0.577  0.00  0.00    +0.000 A 
ATOM      5  C   UNL     1       0.071  -2.161  -1.402  0.00  0.00    +0.000 A 
ATOM      6  C   UNL     1       1.043  -1.217  -1.675  0.00  0.00    +0.000 A 
ENDROOT
BRANCH   4   7
ATOM      7  N   UNL     1      -2.011  -2.818  -0.347  0.00  0.00    +0.000 NA
ATOM      8  C   UNL     1      -3.300  -2.294   0.045  0.00  0.00    +0.000 C 
ATOM      9  N   UNL     1      -3.660  -1.076   0.046  0.00  0.00    +0.000 NA
ATOM     10  N   UNL     1      -4.982  -0.887   0.478  0.00  0.00    +0.000 N 
ATOM     11  C   UNL     1      -5.498  -2.166   0.783  0.00  0.00    +0.000 C 
ATOM     12  O   UNL     1      -6.653  -2.418   1.195  0.00  0.00    +0.000 OA
ATOM     13  C   UNL     1      -4.403  -3.142   0.517  0.00  0.00    +0.000 C 
BRANCH  10  14
ATOM     14  C   UNL     1      -5.642   0.398   0.556  0.00  0.00    +0.000 A 
ATOM     15  C   UNL     1      -5.450   1.246   1.622  0.00  0.00    +0.000 A 
ATOM     16  C   UNL     1      -6.072   2.488   1.707  0.00  0.00    +0.000 A 
ATOM     17  C   UNL     1      -6.922   2.925   0.703  0.00  0.00    +0.000 A 
ATOM     18  C   UNL     1      -7.117   2.078  -0.365  0.00  0.00    +0.000 A 
ATOM     19  C   UNL     1      -6.490   0.831  -0.446  0.00  0.00    +0.000 A 
ENDBRANCH  10  14
ENDBRANCH   4   7
BRANCH   1  20
ATOM     20  O   UNL     1       1.972   1.001  -1.398  0.00  0.00    +0.000 OA
BRANCH  20  24
ATOM     21  C   UNL     1       5.910   0.653   0.108  0.00  0.00    +0.000 A 
ATOM     22  C   UNL     1       5.553   0.206  -1.162  0.00  0.00    +0.000 A 
ATOM     23  C   UNL     1       4.269   0.331  -1.624  0.00  0.00    +0.000 A 
ATOM     24  C   UNL     1       3.243   0.909  -0.860  0.00  0.00    +0.000 A 
ATOM     25  C   UNL     1       3.608   1.343   0.386  0.00  0.00    +0.000 A 
ATOM     26  C   UNL     1       4.904   1.216   0.851  0.00  0.00    +0.000 A 
BRANCH  21  27
ATOM     27  C   UNL     1       7.322   0.514   0.583  0.00  0.00    +0.000 C 
ATOM     28  C   UNL     1       8.189  -0.008  -0.568  0.00  0.00    +0.000 C 
ATOM     29  C   UNL     1       7.466  -0.461   1.720  0.00  0.00    +0.000 C 
BRANCH  27  31
ATOM     30  C   UNL     1       7.879   2.783  -0.238  0.00  0.00    +0.000 C 
ATOM     31  C   UNL     1       7.920   1.855   0.968  0.00  0.00    +0.000 C 
ENDBRANCH  27  31
ENDBRANCH  21  27
ENDBRANCH  20  24
ENDBRANCH   1  20
TORSDOF 6
