REMARK  Name = 
REMARK  5 active torsions:
REMARK  status: ('A' for Active; 'I' for Inactive)
REMARK    1  A    between atoms: C_2  and  N_3
REMARK    2  A    between atoms: C_2  and  C_25
REMARK    3  A    between atoms: C_4  and  C_6
REMARK    4  A    between atoms: C_11  and  N_12
REMARK    5  A    between atoms: C_13  and  C_15
REMARK                            x       y       z     vdW  Elec       q    Type
REMARK                         _______ _______ _______ _____ _____    ______ ____
ROOT
ATOM      1  C   UNL     1      -1.757   1.445   1.301  0.00  0.00    +0.000 A 
ATOM      2  C   UNL     1      -2.891   2.003   1.850  0.00  0.00    +0.000 A 
ATOM      3  C   UNL     1      -2.899   2.262   3.198  0.00  0.00    +0.000 A 
ATOM      4  C   UNL     1      -1.790   1.960   3.948  0.00  0.00    +0.000 A 
ATOM      5  C   UNL     1      -0.672   1.407   3.391  0.00  0.00    +0.000 A 
ATOM      6  C   UNL     1      -0.648   1.144   2.054  0.00  0.00    +0.000 A 
ENDROOT
BRANCH   1   8
ATOM      7  N   UNL     1      -2.887   1.482  -0.886  0.00  0.00    +0.000 NA
ATOM      8  C   UNL     1      -1.782   1.181  -0.143  0.00  0.00    +0.000 C 
ATOM      9  O   UNL     1      -0.815   0.676  -0.760  0.00  0.00    +0.000 OA
BRANCH   7  11
ATOM     10  C   UNL     1      -1.956  -0.205  -2.412  0.00  0.00    +0.000 C 
ATOM     11  C   UNL     1      -2.885   1.182  -2.446  0.00  0.00    +0.000 C 
BRANCH  11  12
ATOM     12  C   UNL     1      -4.293   0.373  -2.423  0.00  0.00    +0.000 A 
ATOM     13  C   UNL     1      -5.173   0.713  -3.423  0.00  0.00    +0.000 A 
ATOM     14  C   UNL     1      -6.387   0.044  -3.436  0.00  0.00    +0.000 A 
ATOM     15  C   UNL     1      -6.656  -0.917  -2.465  0.00  0.00    +0.000 A 
ATOM     16  C   UNL     1      -5.719  -1.205  -1.489  0.00  0.00    +0.000 A 
ATOM     17  C   UNL     1      -4.489  -0.535  -1.466  0.00  0.00    +0.000 A 
ENDBRANCH  11  12
ENDBRANCH   7  11
ENDBRANCH   1   8
BRANCH   6  18
ATOM     18  N   UNL     1       0.501   0.559   1.405  0.00  0.00    +0.000 NA
ATOM     19  C   UNL     1       1.671   0.228   2.123  0.00  0.00    +0.000 C 
ATOM     20  O   UNL     1       1.689   0.458   3.356  0.00  0.00    +0.000 OA
BRANCH  19  21
ATOM     21  C   UNL     1       2.861  -0.373   1.478  0.00  0.00    +0.000 A 
ATOM     22  C   UNL     1       3.025  -0.693   0.161  0.00  0.00    +0.000 A 
ATOM     23  C   UNL     1       4.186  -1.231  -0.218  0.00  0.00    +0.000 A 
ATOM     24  C   UNL     1       5.131  -1.420   0.762  0.00  0.00    +0.000 A 
ATOM     25  S   UNL     1       4.350  -0.837   2.162  0.00  0.00    +0.000 S 
ATOM     26  C   UNL     1       6.527  -1.995   0.676  0.00  0.00    +0.000 C 
ATOM     27  C   UNL     1       6.715  -2.527  -0.726  0.00  0.00    +0.000 C 
ATOM     28  C   UNL     1       6.954  -1.383  -1.690  0.00  0.00    +0.000 C 
ATOM     29  C   UNL     1       5.631  -0.838  -2.214  0.00  0.00    +0.000 C 
ATOM     30  C   UNL     1       4.457  -1.620  -1.667  0.00  0.00    +0.000 C 
ENDBRANCH  19  21
ENDBRANCH   6  18
TORSDOF 5
