REMARK  Name = 
REMARK  7 active torsions:
REMARK  status: ('A' for Active; 'I' for Inactive)
REMARK    1  A    between atoms: C_2  and  C_3
REMARK    2  A    between atoms: C_7  and  C_8
REMARK    3  A    between atoms: C_10  and  N_11
REMARK    4  A    between atoms: C_12  and  C_14
REMARK    5  A    between atoms: C_14  and  O_15
REMARK    6  A    between atoms: O_15  and  C_16
REMARK    7  A    between atoms: C_16  and  C_18
REMARK                            x       y       z     vdW  Elec       q    Type
REMARK                         _______ _______ _______ _____ _____    ______ ____
ROOT
ATOM      1  C   UNL     1      -0.116  -1.470  -0.487  0.00  0.00    +0.000 C 
ATOM      2  O   UNL     1       0.778  -1.562  -1.360  0.00  0.00    +0.000 OA
ENDROOT
BRANCH   1   3
ATOM      3  C   UNL     1      -1.322  -0.715  -0.795  0.00  0.00    +0.000 A 
ATOM      4  O   UNL     1      -2.372  -0.511  -0.009  0.00  0.00    +0.000 OA
ATOM      5  C   UNL     1      -3.267   0.220  -0.634  0.00  0.00    +0.000 A 
ATOM      6  C   UNL     1      -2.837   0.541  -1.899  0.00  0.00    +0.000 A 
ATOM      7  C   UNL     1      -3.572   1.306  -2.796  0.00  0.00    +0.000 A 
ATOM      8  C   UNL     1      -4.816   1.762  -2.361  0.00  0.00    +0.000 A 
ATOM      9  C   UNL     1      -5.259   1.449  -1.100  0.00  0.00    +0.000 A 
ATOM     10  C   UNL     1      -6.479   1.896  -0.679  0.00  0.00    +0.000 A 
ATOM     11  C   UNL     1      -6.968   1.607   0.575  0.00  0.00    +0.000 A 
ATOM     12  C   UNL     1      -6.220   0.842   1.456  0.00  0.00    +0.000 A 
ATOM     13  C   UNL     1      -4.989   0.392   1.030  0.00  0.00    +0.000 A 
ATOM     14  C   UNL     1      -4.510   0.689  -0.232  0.00  0.00    +0.000 A 
ATOM     15  C   UNL     1      -1.582  -0.072  -1.982  0.00  0.00    +0.000 A 
ATOM     16  C   UNL     1      -0.734   0.011  -3.198  0.00  0.00    +0.000 C 
ENDBRANCH   1   3
BRANCH   1  17
ATOM     17  O   UNL     1       0.119  -2.096   0.710  0.00  0.00    +0.000 OA
BRANCH  17  18
ATOM     18  C   UNL     1       1.246  -2.829   1.086  0.00  0.00    +0.000 C 
BRANCH  18  20
ATOM     19  N   UNL     1       2.613  -0.760   0.720  0.00  0.00    +0.000 NA
ATOM     20  C   UNL     1       2.512  -2.117   1.100  0.00  0.00    +0.000 C 
ATOM     21  O   UNL     1       3.550  -2.718   1.461  0.00  0.00    +0.000 OA
BRANCH  19  27
ATOM     22  C   UNL     1       4.284   0.517   1.946  0.00  0.00    +0.000 A 
ATOM     23  C   UNL     1       5.504   1.117   2.038  0.00  0.00    +0.000 A 
ATOM     24  C   UNL     1       6.362   1.080   0.970  0.00  0.00    +0.000 A 
ATOM     25  C   UNL     1       6.042   0.454  -0.211  0.00  0.00    +0.000 A 
ATOM     26  C   UNL     1       4.790  -0.151  -0.281  0.00  0.00    +0.000 A 
ATOM     27  C   UNL     1       3.919  -0.124   0.777  0.00  0.00    +0.000 A 
BRANCH  22  29
ATOM     28  C   UNL     1       2.235   1.537   2.864  0.00  0.00    +0.000 C 
ATOM     29  C   UNL     1       3.334   0.546   3.094  0.00  0.00    +0.000 C 
ENDBRANCH  22  29
BRANCH  26  30
ATOM     30  C   UNL     1       4.356  -0.846  -1.531  0.00  0.00    +0.000 C 
ATOM     31  C   UNL     1       3.397   0.006  -2.343  0.00  0.00    +0.000 C 
ENDBRANCH  26  30
ENDBRANCH  19  27
ENDBRANCH  18  20
ENDBRANCH  17  18
ENDBRANCH   1  17
TORSDOF 7
