REMARK  Name = 
REMARK  7 active torsions:
REMARK  status: ('A' for Active; 'I' for Inactive)
REMARK    1  A    between atoms: C_5  and  S_6
REMARK    2  A    between atoms: S_6  and  C_7
REMARK    3  A    between atoms: C_8  and  N_9
REMARK    4  A    between atoms: N_9  and  C_10
REMARK    5  A    between atoms: C_13  and  C_14
REMARK    6  A    between atoms: N_21  and  C_22
REMARK    7  A    between atoms: C_22  and  C_23
REMARK                            x       y       z     vdW  Elec       q    Type
REMARK                         _______ _______ _______ _____ _____    ______ ____
ROOT
ATOM      1  C   UNL     1       0.208   0.467   0.438  0.00  0.00    +0.000 C 
ATOM      2  C   UNL     1      -0.228  -0.734   0.875  0.00  0.00    +0.000 C 
ATOM      3  C   UNL     1       0.685  -1.741   0.356  0.00  0.00    +0.000 C 
ATOM      4  O   UNL     1       0.633  -2.993   0.533  0.00  0.00    +0.000 OA
ATOM      5  N   UNL     1       1.707  -1.137  -0.419  0.00  0.00    +0.000 N 
ATOM      6  C   UNL     1       1.405   0.274  -0.369  0.00  0.00    +0.000 C 
ATOM      7  O   UNL     1       2.084   1.172  -0.940  0.00  0.00    +0.000 OA
ENDROOT
BRANCH   1   8
ATOM      8  S   UNL     1      -0.681   1.938   0.888  0.00  0.00    +0.000 S 
BRANCH   8  13
ATOM      9  C   UNL     1       1.232   7.312  -1.040  0.00  0.00    +0.000 C 
ATOM     10  C   UNL     1       0.805   5.968  -0.593  0.00  0.00    +0.000 A 
ATOM     11  C   UNL     1       1.499   4.829  -0.946  0.00  0.00    +0.000 A 
ATOM     12  C   UNL     1       1.086   3.594  -0.521  0.00  0.00    +0.000 A 
ATOM     13  C   UNL     1      -0.017   3.439   0.260  0.00  0.00    +0.000 A 
ATOM     14  C   UNL     1      -0.719   4.601   0.615  0.00  0.00    +0.000 A 
ATOM     15  C   UNL     1      -0.309   5.816   0.195  0.00  0.00    +0.000 A 
ENDBRANCH   8  13
ENDBRANCH   1   8
BRANCH   2  16
ATOM     16  N   UNL     1      -1.375  -0.998   1.698  0.00  0.00    +0.000 NA
BRANCH  16  17
ATOM     17  C   UNL     1      -2.574  -1.425   1.056  0.00  0.00    +0.000 A 
ATOM     18  C   UNL     1      -2.636  -1.582  -0.314  0.00  0.00    +0.000 A 
ATOM     19  C   UNL     1      -3.804  -1.999  -0.943  0.00  0.00    +0.000 A 
ATOM     20  C   UNL     1      -4.945  -2.271  -0.221  0.00  0.00    +0.000 A 
ATOM     21  C   UNL     1      -4.899  -2.119   1.147  0.00  0.00    +0.000 A 
ATOM     22  C   UNL     1      -3.724  -1.702   1.763  0.00  0.00    +0.000 A 
BRANCH  20  23
ATOM     23  C   UNL     1      -6.220  -2.720  -0.855  0.00  0.00    +0.000 C 
ATOM     24  C   UNL     1      -6.109  -2.752  -2.347  0.00  0.00    +0.000 C 
ATOM     25  C   UNL     1      -7.361  -1.799  -0.472  0.00  0.00    +0.000 C 
ENDBRANCH  20  23
ENDBRANCH  16  17
ENDBRANCH   2  16
BRANCH   5  26
ATOM     26  C   UNL     1       2.817  -1.707  -1.124  0.00  0.00    +0.000 C 
BRANCH  26  27
ATOM     27  C   UNL     1       4.037  -1.812  -0.295  0.00  0.00    +0.000 A 
ATOM     28  C   UNL     1       4.127  -1.416   1.009  0.00  0.00    +0.000 A 
ATOM     29  C   UNL     1       5.320  -1.561   1.689  0.00  0.00    +0.000 A 
ATOM     30  C   UNL     1       6.448  -2.099   1.099  0.00  0.00    +0.000 A 
ATOM     31  C   UNL     1       6.348  -2.494  -0.209  0.00  0.00    +0.000 A 
ATOM     32  C   UNL     1       5.160  -2.349  -0.887  0.00  0.00    +0.000 A 
ENDBRANCH  26  27
ENDBRANCH   5  26
TORSDOF 7
