REMARK  Name = 
REMARK  5 active torsions:
REMARK  status: ('A' for Active; 'I' for Inactive)
REMARK    1  A    between atoms: C_5  and  C_6
REMARK    2  A    between atoms: N_8  and  C_9
REMARK    3  A    between atoms: C_9  and  C_10
REMARK    4  A    between atoms: C_10  and  C_11
REMARK    5  A    between atoms: N_13  and  C_14
REMARK                            x       y       z     vdW  Elec       q    Type
REMARK                         _______ _______ _______ _____ _____    ______ ____
ROOT
ATOM      1  C   UNL     1      -2.942   0.008  -0.201  0.00  0.00    +0.000 A 
ATOM      2  N   UNL     1      -1.642   0.117  -0.523  0.00  0.00    +0.000 NA
ATOM      3  N   UNL     1      -0.828  -0.925  -0.407  0.00  0.00    +0.000 N 
ATOM      4  C   UNL     1      -1.256  -2.122   0.031  0.00  0.00    +0.000 A 
ATOM      5  O   UNL     1      -0.479  -3.103   0.138  0.00  0.00    +0.000 OA
ATOM      6  C   UNL     1      -2.586  -2.312   0.383  0.00  0.00    +0.000 A 
ATOM      7  C   UNL     1      -3.050  -3.529   0.834  0.00  0.00    +0.000 A 
ATOM      8  C   UNL     1      -4.384  -3.635   1.163  0.00  0.00    +0.000 A 
ATOM      9  C   UNL     1      -5.221  -2.545   1.038  0.00  0.00    +0.000 A 
ATOM     10  C   UNL     1      -4.747  -1.330   0.584  0.00  0.00    +0.000 A 
ATOM     11  C   UNL     1      -3.422  -1.222   0.258  0.00  0.00    +0.000 A 
ENDROOT
BRANCH   1  16
ATOM     12  C   UNL     1      -6.597   4.388  -0.773  0.00  0.00    +0.000 C 
ATOM     13  C   UNL     1      -5.658   3.247  -0.604  0.00  0.00    +0.000 A 
ATOM     14  C   UNL     1      -4.758   2.957  -1.588  0.00  0.00    +0.000 A 
ATOM     15  C   UNL     1      -3.889   1.901  -1.431  0.00  0.00    +0.000 A 
ATOM     16  C   UNL     1      -3.886   1.109  -0.305  0.00  0.00    +0.000 A 
ATOM     17  C   UNL     1      -4.803   1.414   0.681  0.00  0.00    +0.000 A 
ATOM     18  C   UNL     1      -5.685   2.478   0.533  0.00  0.00    +0.000 A 
ENDBRANCH   1  16
BRANCH   3  19
ATOM     19  C   UNL     1       0.567  -0.761  -0.765  0.00  0.00    +0.000 C 
BRANCH  19  20
ATOM     20  C   UNL     1       1.391  -0.320   0.426  0.00  0.00    +0.000 C 
BRANCH  20  21
ATOM     21  C   UNL     1       2.810  -0.175  -0.029  0.00  0.00    +0.000 C 
ATOM     22  O   UNL     1       3.141  -0.409  -1.226  0.00  0.00    +0.000 OA
ATOM     23  N   UNL     1       3.842   0.230   0.859  0.00  0.00    +0.000 NA
BRANCH  23  24
ATOM     24  C   UNL     1       5.180   0.352   0.373  0.00  0.00    +0.000 A 
ATOM     25  C   UNL     1       5.484   0.083  -0.946  0.00  0.00    +0.000 A 
ATOM     26  C   UNL     1       6.766   0.192  -1.444  0.00  0.00    +0.000 A 
ATOM     27  C   UNL     1       7.814   0.584  -0.620  0.00  0.00    +0.000 A 
ATOM     28  C   UNL     1       9.194   0.699  -1.166  0.00  0.00    +0.000 C 
ATOM     29  C   UNL     1       7.505   0.851   0.697  0.00  0.00    +0.000 A 
ATOM     30  C   UNL     1       6.220   0.741   1.191  0.00  0.00    +0.000 A 
ATOM     31  C   UNL     1       5.918   1.039   2.627  0.00  0.00    +0.000 C 
ENDBRANCH  23  24
ENDBRANCH  20  21
ENDBRANCH  19  20
ENDBRANCH   3  19
TORSDOF 5
