REMARK  Name = 
REMARK  8 active torsions:
REMARK  status: ('A' for Active; 'I' for Inactive)
REMARK    1  A    between atoms: C_2  and  C_3
REMARK    2  A    between atoms: C_3  and  C_4
REMARK    3  A    between atoms: C_4  and  N_5
REMARK    4  A    between atoms: C_6  and  C_8
REMARK    5  A    between atoms: C_9  and  C_10
REMARK    6  A    between atoms: C_13  and  N_14
REMARK    7  A    between atoms: C_21  and  C_22
REMARK    8  A    between atoms: C_25  and  C_26
REMARK                            x       y       z     vdW  Elec       q    Type
REMARK                         _______ _______ _______ _____ _____    ______ ____
ROOT
ATOM      1  C   UNL     1      -0.750   0.089  -1.721  0.00  0.00    +0.000 C 
ATOM      2  C   UNL     1      -1.181  -1.085  -1.551  0.00  0.00    +0.000 C 
ATOM      3  N   UNL     1      -0.271  -1.917  -2.195  0.00  0.00    +0.000 NA
ATOM      4  O   UNL     1       0.600  -1.367  -2.902  0.00  0.00    +0.000 OA
ATOM      5  C   UNL     1       0.575   0.096  -2.596  0.00  0.00    +0.000 C 
ENDROOT
BRANCH   2   6
ATOM      6  C   UNL     1      -2.384  -1.572  -0.817  0.00  0.00    +0.000 A 
ATOM      7  C   UNL     1      -2.790  -1.095   0.392  0.00  0.00    +0.000 A 
ATOM      8  C   UNL     1      -3.918  -1.584   1.026  0.00  0.00    +0.000 A 
ATOM      9  C   UNL     1      -4.666  -2.591   0.420  0.00  0.00    +0.000 A 
ATOM     10  C   UNL     1      -4.264  -3.075  -0.793  0.00  0.00    +0.000 A 
ATOM     11  C   UNL     1      -3.143  -2.571  -1.395  0.00  0.00    +0.000 A 
BRANCH   9  12
ATOM     12  N   UNL     1      -5.823  -3.138   1.010  0.00  0.00    +0.000 N 
ATOM     13  C   UNL     1      -7.120  -2.539   0.774  0.00  0.00    +0.000 C 
ATOM     14  C   UNL     1      -5.761  -4.311   1.863  0.00  0.00    +0.000 C 
ENDBRANCH   9  12
ENDBRANCH   2   6
BRANCH   5  15
ATOM     15  C   UNL     1       1.605   0.153  -1.404  0.00  0.00    +0.000 A 
ATOM     16  C   UNL     1       1.467   0.772  -0.248  0.00  0.00    +0.000 A 
ATOM     17  C   UNL     1       2.450   0.763   0.721  0.00  0.00    +0.000 A 
ATOM     18  C   UNL     1       3.616   0.096   0.498  0.00  0.00    +0.000 A 
ATOM     19  C   UNL     1       3.793  -0.559  -0.694  0.00  0.00    +0.000 A 
ATOM     20  C   UNL     1       2.768  -0.528  -1.660  0.00  0.00    +0.000 A 
BRANCH  18  21
ATOM     21  C   UNL     1       4.679   0.086   1.534  0.00  0.00    +0.000 A 
ATOM     22  C   UNL     1       4.876   1.145   2.389  0.00  0.00    +0.000 A 
ATOM     23  C   UNL     1       5.863   1.133   3.347  0.00  0.00    +0.000 A 
ATOM     24  C   UNL     1       6.695   0.053   3.485  0.00  0.00    +0.000 A 
ATOM     25  C   UNL     1       6.502  -1.012   2.631  0.00  0.00    +0.000 A 
ATOM     26  C   UNL     1       5.514  -1.005   1.669  0.00  0.00    +0.000 A 
ENDBRANCH  18  21
ENDBRANCH   5  15
BRANCH   1  28
ATOM     27  N   UNL     1      -0.715   2.607  -1.504  0.00  0.00    +0.000 NA
ATOM     28  C   UNL     1      -1.295   1.355  -1.249  0.00  0.00    +0.000 C 
ATOM     29  O   UNL     1      -2.343   1.372  -0.571  0.00  0.00    +0.000 OA
BRANCH  27  30
ATOM     30  C   UNL     1      -1.113   3.897  -1.123  0.00  0.00    +0.000 C 
BRANCH  30  31
ATOM     31  C   UNL     1      -1.206   4.168   0.339  0.00  0.00    +0.000 C 
BRANCH  31  33
ATOM     32  C   UNL     1      -0.610   6.531  -0.166  0.00  0.00    +0.000 C 
ATOM     33  C   UNL     1      -1.649   5.632   0.493  0.00  0.00    +0.000 C 
ENDBRANCH  31  33
ENDBRANCH  30  31
ENDBRANCH  27  30
ENDBRANCH   1  28
TORSDOF 8
