REMARK  Name = 
REMARK  5 active torsions:
REMARK  status: ('A' for Active; 'I' for Inactive)
REMARK    1  A    between atoms: C_19  and  C_20
REMARK    2  A    between atoms: C_23  and  O_24
REMARK    3  A    between atoms: O_24  and  C_25
REMARK    4  A    between atoms: C_25  and  C_26
REMARK    5  A    between atoms: C_26  and  N_27
REMARK                            x       y       z     vdW  Elec       q    Type
REMARK                         _______ _______ _______ _____ _____    ______ ____
ROOT
ATOM      1  O   UNL     1      -4.861   6.153   0.052  0.00  0.00    +0.000 OA
ATOM      2  C   UNL     1      -4.221   4.937  -0.045  0.00  0.00    +0.000 A 
ATOM      3  C   UNL     1      -3.772   4.405  -1.210  0.00  0.00    +0.000 A 
ATOM      4  C   UNL     1      -3.150   3.208  -1.254  0.00  0.00    +0.000 A 
ATOM      5  C   UNL     1      -2.908   2.406  -0.124  0.00  0.00    +0.000 A 
ATOM      6  C   UNL     1      -2.303   1.190   0.007  0.00  0.00    +0.000 A 
ATOM      7  C   UNL     1      -2.208   0.653   1.207  0.00  0.00    +0.000 A 
ATOM      8  S   UNL     1      -2.954   1.801   2.244  0.00  0.00    +0.000 S 
ATOM      9  C   UNL     1      -3.362   2.951   1.028  0.00  0.00    +0.000 A 
ATOM     10  C   UNL     1      -4.011   4.193   1.094  0.00  0.00    +0.000 A 
ATOM     11  C   UNL     1      -1.606  -0.652   1.649  0.00  0.00    +0.000 C 
ATOM     12  C   UNL     1      -2.317  -1.671   0.836  0.00  0.00    +0.000 A 
ATOM     13  C   UNL     1      -2.551  -2.772   1.625  0.00  0.00    +0.000 A 
ATOM     14  C   UNL     1      -3.207  -3.899   1.145  0.00  0.00    +0.000 A 
ATOM     15  C   UNL     1      -3.625  -3.885  -0.168  0.00  0.00    +0.000 A 
ATOM     16  C   UNL     1      -3.389  -2.780  -0.956  0.00  0.00    +0.000 A 
ATOM     17  C   UNL     1      -2.730  -1.667  -0.447  0.00  0.00    +0.000 A 
ATOM     18  O   UNL     1      -2.616  -0.729  -1.385  0.00  0.00    +0.000 OA
ATOM     19  C   UNL     1      -1.763   0.561  -1.404  0.00  0.00    +0.000 C 
ENDROOT
BRANCH  19  20
ATOM     20  C   UNL     1      -0.396  -0.051  -0.942  0.00  0.00    +0.000 A 
ATOM     21  C   UNL     1       0.305   0.665  -0.037  0.00  0.00    +0.000 A 
ATOM     22  C   UNL     1       1.548   0.226   0.458  0.00  0.00    +0.000 A 
ATOM     23  C   UNL     1       2.014  -0.967  -0.024  0.00  0.00    +0.000 A 
ATOM     24  C   UNL     1       1.295  -1.691  -0.946  0.00  0.00    +0.000 A 
ATOM     25  C   UNL     1       0.050  -1.220  -1.422  0.00  0.00    +0.000 A 
BRANCH  23  26
ATOM     26  O   UNL     1       3.244  -1.417   0.456  0.00  0.00    +0.000 OA
BRANCH  26  27
ATOM     27  C   UNL     1       3.730  -2.649  -0.039  0.00  0.00    +0.000 C 
BRANCH  27  28
ATOM     28  C   UNL     1       5.065  -2.909   0.630  0.00  0.00    +0.000 C 
BRANCH  28  29
ATOM     29  N   UNL     1       5.947  -1.818   0.286  0.00  0.00    +0.000 NA
ATOM     30  C   UNL     1       7.244  -1.993   0.888  0.00  0.00    +0.000 C 
ATOM     31  C   UNL     1       8.191  -0.991   0.260  0.00  0.00    +0.000 C 
ATOM     32  C   UNL     1       7.688   0.406   0.624  0.00  0.00    +0.000 C 
ATOM     33  C   UNL     1       6.231   0.563   0.202  0.00  0.00    +0.000 C 
ATOM     34  C   UNL     1       5.403  -0.559   0.794  0.00  0.00    +0.000 C 
ENDBRANCH  28  29
ENDBRANCH  27  28
ENDBRANCH  26  27
ENDBRANCH  23  26
ENDBRANCH  19  20
TORSDOF 5
