REMARK  Name = 
REMARK  8 active torsions:
REMARK  status: ('A' for Active; 'I' for Inactive)
REMARK    1  A    between atoms: O_2  and  C_3
REMARK    2  A    between atoms: C_5  and  N_6
REMARK    3  A    between atoms: C_7  and  C_9
REMARK    4  A    between atoms: C_9  and  S_10
REMARK    5  A    between atoms: S_10  and  C_11
REMARK    6  A    between atoms: C_20  and  C_21
REMARK    7  A    between atoms: C_21  and  C_22
REMARK    8  A    between atoms: C_29  and  O_30
REMARK                            x       y       z     vdW  Elec       q    Type
REMARK                         _______ _______ _______ _____ _____    ______ ____
ROOT
ATOM      1  C   UNL     1      -1.369  -0.562   0.570  0.00  0.00    +0.000 A 
ATOM      2  N   UNL     1      -0.727   0.392  -0.162  0.00  0.00    +0.000 NA
ATOM      3  C   UNL     1      -1.086   1.660  -0.019  0.00  0.00    +0.000 A 
ATOM      4  C   UNL     1      -0.408   2.602  -0.781  0.00  0.00    +0.000 A 
ATOM      5  C   UNL     1      -0.715   3.938  -0.695  0.00  0.00    +0.000 A 
ATOM      6  C   UNL     1      -1.714   4.319   0.168  0.00  0.00    +0.000 A 
ATOM      7  C   UNL     1      -2.384   3.382   0.923  0.00  0.00    +0.000 A 
ATOM      8  C   UNL     1      -2.087   2.028   0.849  0.00  0.00    +0.000 A 
ATOM      9  C   UNL     1      -2.756   1.089   1.603  0.00  0.00    +0.000 A 
ATOM     10  C   UNL     1      -2.373  -0.243   1.446  0.00  0.00    +0.000 A 
ENDROOT
BRANCH   1  11
ATOM     11  S   UNL     1      -0.820  -2.244   0.323  0.00  0.00    +0.000 S 
BRANCH  11  12
ATOM     12  C   UNL     1       0.518  -2.698   1.436  0.00  0.00    +0.000 C 
BRANCH  12  14
ATOM     13  N   UNL     1       1.656  -0.960   0.058  0.00  0.00    +0.000 NA
ATOM     14  C   UNL     1       1.713  -1.902   1.104  0.00  0.00    +0.000 C 
ATOM     15  O   UNL     1       2.783  -2.044   1.734  0.00  0.00    +0.000 OA
BRANCH  13  18
ATOM     16  C   UNL     1       5.087   0.434   0.024  0.00  0.00    +0.000 A 
ATOM     17  C   UNL     1       4.012  -0.336   0.382  0.00  0.00    +0.000 A 
ATOM     18  C   UNL     1       2.812  -0.204  -0.252  0.00  0.00    +0.000 A 
ATOM     19  C   UNL     1       2.714   0.742  -1.277  0.00  0.00    +0.000 A 
ATOM     20  C   UNL     1       3.773   1.531  -1.659  0.00  0.00    +0.000 A 
ATOM     21  C   UNL     1       4.965   1.358  -0.988  0.00  0.00    +0.000 A 
BRANCH  16  23
ATOM     22  C   UNL     1       6.461  -0.632   1.698  0.00  0.00    +0.000 C 
ATOM     23  O   UNL     1       6.305   0.300   0.666  0.00  0.00    +0.000 OA
ENDBRANCH  16  23
BRANCH  20  24
ATOM     24  O   UNL     1       3.661   2.471  -2.684  0.00  0.00    +0.000 OA
ATOM     25  C   UNL     1       2.442   2.654  -3.379  0.00  0.00    +0.000 C 
ENDBRANCH  20  24
ENDBRANCH  13  18
ENDBRANCH  12  14
ENDBRANCH  11  12
ENDBRANCH   1  11
BRANCH  10  26
ATOM     26  C   UNL     1      -3.046  -1.330   2.213  0.00  0.00    +0.000 C 
BRANCH  26  27
ATOM     27  C   UNL     1      -3.984  -2.003   1.280  0.00  0.00    +0.000 A 
ATOM     28  C   UNL     1      -3.649  -3.089   0.504  0.00  0.00    +0.000 A 
ATOM     29  C   UNL     1      -4.508  -3.705  -0.351  0.00  0.00    +0.000 A 
ATOM     30  C   UNL     1      -5.804  -3.249  -0.484  0.00  0.00    +0.000 A 
ATOM     31  C   UNL     1      -6.174  -2.160   0.279  0.00  0.00    +0.000 A 
ATOM     32  C   UNL     1      -5.297  -1.540   1.145  0.00  0.00    +0.000 A 
ENDBRANCH  26  27
ENDBRANCH  10  26
TORSDOF 8
