REMARK  Name = 
REMARK  6 active torsions:
REMARK  status: ('A' for Active; 'I' for Inactive)
REMARK    1  A    between atoms: N_12  and  C_13
REMARK    2  A    between atoms: C_13  and  C_14
REMARK    3  A    between atoms: N_21  and  C_22
REMARK    4  A    between atoms: C_22  and  C_23
REMARK    5  A    between atoms: C_23  and  C_24
REMARK    6  A    between atoms: C_24  and  C_25
REMARK                            x       y       z     vdW  Elec       q    Type
REMARK                         _______ _______ _______ _____ _____    ______ ____
ROOT
ATOM      1  C   UNL     1      -4.387   4.236   1.191  0.00  0.00    +0.000 C 
ATOM      2  C   UNL     1      -3.445   3.623   0.207  0.00  0.00    +0.000 C 
ATOM      3  C   UNL     1      -2.041   4.168   0.331  0.00  0.00    +0.000 C 
ATOM      4  C   UNL     1      -3.370   2.123   0.354  0.00  0.00    +0.000 C 
ATOM      5  C   UNL     1      -2.228   1.654  -0.543  0.00  0.00    +0.000 A 
ATOM      6  C   UNL     1      -2.006   2.438  -1.614  0.00  0.00    +0.000 A 
ATOM      7  S   UNL     1      -0.693   1.652  -2.396  0.00  0.00    +0.000 S 
ATOM      8  C   UNL     1      -0.479   0.348  -1.319  0.00  0.00    +0.000 A 
ATOM      9  C   UNL     1      -1.441   0.559  -0.374  0.00  0.00    +0.000 A 
ATOM     10  C   UNL     1      -1.470  -0.407   0.650  0.00  0.00    +0.000 A 
ATOM     11  N   UNL     1      -2.345  -0.329   1.627  0.00  0.00    +0.000 NA
ATOM     12  N   UNL     1      -0.622  -1.434   0.678  0.00  0.00    +0.000 N 
ATOM     13  C   UNL     1       0.313  -1.618  -0.264  0.00  0.00    +0.000 A 
ATOM     14  O   UNL     1       1.096  -2.579  -0.226  0.00  0.00    +0.000 OA
ATOM     15  N   UNL     1       0.378  -0.720  -1.261  0.00  0.00    +0.000 N 
ATOM     16  C   UNL     1      -2.771   3.688  -1.968  0.00  0.00    +0.000 C 
ATOM     17  O   UNL     1      -3.835   3.834  -1.127  0.00  0.00    +0.000 OA
ENDROOT
BRANCH  12  18
ATOM     18  C   UNL     1      -0.730  -2.395   1.792  0.00  0.00    +0.000 C 
BRANCH  18  19
ATOM     19  C   UNL     1      -1.667  -3.494   1.437  0.00  0.00    +0.000 A 
ATOM     20  C   UNL     1      -1.250  -4.656   0.816  0.00  0.00    +0.000 A 
ATOM     21  C   UNL     1      -2.381  -5.433   0.646  0.00  0.00    +0.000 A 
ATOM     22  C   UNL     1      -3.423  -4.715   1.166  0.00  0.00    +0.000 A 
ATOM     23  O   UNL     1      -2.957  -3.572   1.624  0.00  0.00    +0.000 OA
ENDBRANCH  18  19
ENDBRANCH  12  18
BRANCH  15  24
ATOM     24  C   UNL     1       1.338  -0.814  -2.324  0.00  0.00    +0.000 C 
BRANCH  24  25
ATOM     25  C   UNL     1       2.620  -0.107  -2.041  0.00  0.00    +0.000 C 
BRANCH  25  26
ATOM     26  C   UNL     1       3.324  -0.644  -0.813  0.00  0.00    +0.000 C 
BRANCH  26  27
ATOM     27  C   UNL     1       4.586   0.053  -0.537  0.00  0.00    +0.000 A 
ATOM     28  C   UNL     1       5.809  -0.355  -1.057  0.00  0.00    +0.000 A 
ATOM     29  C   UNL     1       6.940   0.369  -0.738  0.00  0.00    +0.000 A 
ATOM     30  C   UNL     1       6.904   1.480   0.077  0.00  0.00    +0.000 A 
ATOM     31  C   UNL     1       5.698   1.872   0.582  0.00  0.00    +0.000 A 
ATOM     32  C   UNL     1       4.533   1.175   0.288  0.00  0.00    +0.000 A 
ENDBRANCH  26  27
ENDBRANCH  25  26
ENDBRANCH  24  25
ENDBRANCH  15  24
TORSDOF 6
