REMARK  Name = 
REMARK  8 active torsions:
REMARK  status: ('A' for Active; 'I' for Inactive)
REMARK    1  A    between atoms: C_2  and  C_3
REMARK    2  A    between atoms: C_3  and  N_4
REMARK    3  A    between atoms: C_5  and  C_7
REMARK    4  A    between atoms: N_10  and  C_11
REMARK    5  A    between atoms: C_14  and  O_15
REMARK    6  A    between atoms: O_15  and  C_16
REMARK    7  A    between atoms: C_16  and  C_17
REMARK    8  A    between atoms: C_17  and  C_18
REMARK                            x       y       z     vdW  Elec       q    Type
REMARK                         _______ _______ _______ _____ _____    ______ ____
ROOT
ATOM      1  C   UNL     1      -1.595   1.573  -0.114  0.00  0.00    +0.000 A 
ATOM      2  C   UNL     1      -0.230   1.517   0.062  0.00  0.00    +0.000 A 
ATOM      3  N   UNL     1       0.666   2.625   0.131  0.00  0.00    +0.000 NA
ATOM      4  N   UNL     1       0.149   0.223   0.165  0.00  0.00    +0.000 N 
ATOM      5  C   UNL     1      -0.926  -0.587   0.061  0.00  0.00    +0.000 A 
ATOM      6  N   UNL     1      -1.055  -1.932   0.100  0.00  0.00    +0.000 NA
ATOM      7  C   UNL     1      -2.270  -2.502  -0.032  0.00  0.00    +0.000 A 
ATOM      8  C   UNL     1      -2.433  -3.883   0.004  0.00  0.00    +0.000 A 
ATOM      9  C   UNL     1      -3.678  -4.470  -0.131  0.00  0.00    +0.000 A 
ATOM     10  C   UNL     1      -4.763  -3.631  -0.304  0.00  0.00    +0.000 A 
ATOM     11  C   UNL     1      -4.598  -2.263  -0.339  0.00  0.00    +0.000 A 
ATOM     12  C   UNL     1      -3.359  -1.673  -0.205  0.00  0.00    +0.000 A 
ATOM     13  N   UNL     1      -3.218  -0.324  -0.243  0.00  0.00    +0.000 NA
ATOM     14  C   UNL     1      -2.010   0.249  -0.113  0.00  0.00    +0.000 A 
ENDROOT
BRANCH   4  15
ATOM     15  C   UNL     1       1.488  -0.207   0.353  0.00  0.00    +0.000 A 
ATOM     16  C   UNL     1       2.434   0.185  -0.570  0.00  0.00    +0.000 A 
ATOM     17  C   UNL     1       3.770  -0.204  -0.442  0.00  0.00    +0.000 A 
ATOM     18  C   UNL     1       4.181  -0.993   0.611  0.00  0.00    +0.000 A 
ATOM     19  C   UNL     1       3.228  -1.379   1.526  0.00  0.00    +0.000 A 
ATOM     20  C   UNL     1       1.893  -0.996   1.409  0.00  0.00    +0.000 A 
BRANCH  18  21
ATOM     21  O   UNL     1       5.496  -1.409   0.786  0.00  0.00    +0.000 OA
BRANCH  21  22
ATOM     22  C   UNL     1       6.539  -1.075  -0.082  0.00  0.00    +0.000 C 
BRANCH  22  23
ATOM     23  C   UNL     1       6.223  -1.599  -1.470  0.00  0.00    +0.000 C 
BRANCH  23  24
ATOM     24  C   UNL     1       7.377  -1.218  -2.383  0.00  0.00    +0.000 C 
ATOM     25  C   UNL     1       7.534   0.294  -2.421  0.00  0.00    +0.000 C 
ENDBRANCH  23  24
ENDBRANCH  22  23
ENDBRANCH  21  22
ENDBRANCH  18  21
ENDBRANCH   4  15
BRANCH   1  27
ATOM     26  N   UNL     1      -3.831   2.639  -0.444  0.00  0.00    +0.000 NA
ATOM     27  C   UNL     1      -2.406   2.773  -0.268  0.00  0.00    +0.000 C 
ATOM     28  O   UNL     1      -1.852   3.882  -0.243  0.00  0.00    +0.000 OA
BRANCH  26  29
ATOM     29  C   UNL     1      -4.594   3.869  -0.593  0.00  0.00    +0.000 C 
BRANCH  29  31
ATOM     30  C   UNL     1      -3.802   5.860   0.594  0.00  0.00    +0.000 C 
ATOM     31  C   UNL     1      -4.359   4.654   0.671  0.00  0.00    +0.000 C 
ENDBRANCH  29  31
ENDBRANCH  26  29
ENDBRANCH   1  27
TORSDOF 8
