REMARK  Name = 
REMARK  9 active torsions:
REMARK  status: ('A' for Active; 'I' for Inactive)
REMARK    1  A    between atoms: C_2  and  C_4
REMARK    2  A    between atoms: C_4  and  C_5
REMARK    3  A    between atoms: N_13  and  C_14
REMARK    4  A    between atoms: C_14  and  C_15
REMARK    5  A    between atoms: C_15  and  C_16
REMARK    6  A    between atoms: C_16  and  C_17
REMARK    7  A    between atoms: C_17  and  C_18
REMARK    8  A    between atoms: C_18  and  S_19
REMARK    9  A    between atoms: S_19  and  C_20
REMARK                            x       y       z     vdW  Elec       q    Type
REMARK                         _______ _______ _______ _____ _____    ______ ____
ROOT
ATOM      1  C   UNL     1      -3.405   0.292  -0.162  0.00  0.00    +0.000 C 
ATOM      2  C   UNL     1      -1.983   0.522  -0.623  0.00  0.00    +0.000 C 
ATOM      3  C   UNL     1      -1.077   0.258   0.557  0.00  0.00    +0.000 C 
ATOM      4  N   UNL     1      -1.045  -1.172   0.774  0.00  0.00    +0.000 NA
ATOM      5  C   UNL     1      -2.376  -1.739   0.773  0.00  0.00    +0.000 C 
ATOM      6  C   UNL     1      -3.391  -0.617   1.024  0.00  0.00    +0.000 C 
ENDROOT
BRANCH   1   7
ATOM      7  C   UNL     1      -3.993   1.618   0.156  0.00  0.00    +0.000 A 
ATOM      8  C   UNL     1      -5.382   1.750   0.192  0.00  0.00    +0.000 A 
ATOM      9  C   UNL     1      -5.929   2.981   0.488  0.00  0.00    +0.000 A 
ATOM     10  C   UNL     1      -5.181   4.087   0.749  0.00  0.00    +0.000 A 
ATOM     11  C   UNL     1      -3.815   3.977   0.718  0.00  0.00    +0.000 A 
ATOM     12  C   UNL     1      -3.251   2.741   0.422  0.00  0.00    +0.000 A 
ENDBRANCH   1   7
BRANCH   1  14
ATOM     13  C   UNL     1      -3.621  -1.685  -1.729  0.00  0.00    +0.000 C 
ATOM     14  C   UNL     1      -4.108  -0.339  -1.327  0.00  0.00    +0.000 C 
ATOM     15  O   UNL     1      -5.011   0.209  -1.898  0.00  0.00    +0.000 OA
ENDBRANCH   1  14
BRANCH   4  16
ATOM     16  C   UNL     1      -0.233  -1.755  -0.276  0.00  0.00    +0.000 C 
BRANCH  16  17
ATOM     17  C   UNL     1       1.207  -1.290  -0.026  0.00  0.00    +0.000 C 
BRANCH  17  18
ATOM     18  C   UNL     1       1.568  -1.801   1.364  0.00  0.00    +0.000 C 
BRANCH  18  19
ATOM     19  C   UNL     1       1.461  -3.296   1.412  0.00  0.00    +0.000 C 
BRANCH  19  20
ATOM     20  C   UNL     1       2.381  -4.006   0.462  0.00  0.00    +0.000 C 
BRANCH  20  21
ATOM     21  S   UNL     1       4.087  -3.607   0.874  0.00  0.00    +0.000 S 
BRANCH  21  22
ATOM     22  C   UNL     1       4.360  -1.867   0.497  0.00  0.00    +0.000 A 
ATOM     23  N   UNL     1       4.825  -1.509  -0.722  0.00  0.00    +0.000 NA
ATOM     24  C   UNL     1       4.936  -0.174  -0.704  0.00  0.00    +0.000 A 
ATOM     25  C   UNL     1       5.352   0.738  -1.643  0.00  0.00    +0.000 A 
ATOM     26  C   UNL     1       5.373   2.065  -1.369  0.00  0.00    +0.000 A 
ATOM     27  C   UNL     1       4.978   2.533  -0.144  0.00  0.00    +0.000 A 
ATOM     28  C   UNL     1       4.559   1.619   0.802  0.00  0.00    +0.000 A 
ATOM     29  C   UNL     1       4.533   0.274   0.540  0.00  0.00    +0.000 A 
ATOM     30  N   UNL     1       4.181  -0.807   1.263  0.00  0.00    +0.000 NA
ENDBRANCH  21  22
ENDBRANCH  20  21
ENDBRANCH  19  20
ENDBRANCH  18  19
ENDBRANCH  17  18
ENDBRANCH  16  17
ENDBRANCH   4  16
TORSDOF 9
