REMARK  Name = 
REMARK  7 active torsions:
REMARK  status: ('A' for Active; 'I' for Inactive)
REMARK    1  A    between atoms: C_2  and  O_3
REMARK    2  A    between atoms: O_3  and  C_4
REMARK    3  A    between atoms: C_7  and  N_8
REMARK    4  A    between atoms: C_11  and  N_12
REMARK    5  A    between atoms: N_12  and  C_13
REMARK    6  A    between atoms: C_21  and  S_22
REMARK    7  A    between atoms: S_22  and  C_23
REMARK                            x       y       z     vdW  Elec       q    Type
REMARK                         _______ _______ _______ _____ _____    ______ ____
ROOT
ATOM      1  N   UNL     1       1.868   0.097   0.050  0.00  0.00    +0.000 N 
ATOM      2  C   UNL     1       0.709   0.353  -0.736  0.00  0.00    +0.000 C 
ATOM      3  O   UNL     1       0.678   0.282  -1.994  0.00  0.00    +0.000 OA
ATOM      4  C   UNL     1      -0.369   0.695   0.183  0.00  0.00    +0.000 C 
ATOM      5  C   UNL     1       0.048   0.664   1.437  0.00  0.00    +0.000 C 
ATOM      6  C   UNL     1       1.478   0.285   1.405  0.00  0.00    +0.000 C 
ATOM      7  O   UNL     1       2.223   0.152   2.410  0.00  0.00    +0.000 OA
ENDROOT
BRANCH   1  11
ATOM      8  C   UNL     1       5.757  -0.910  -1.189  0.00  0.00    +0.000 A 
ATOM      9  C   UNL     1       5.571   0.181  -0.359  0.00  0.00    +0.000 A 
ATOM     10  C   UNL     1       4.279   0.468   0.017  0.00  0.00    +0.000 A 
ATOM     11  C   UNL     1       3.182  -0.277  -0.393  0.00  0.00    +0.000 A 
ATOM     12  C   UNL     1       3.429  -1.344  -1.213  0.00  0.00    +0.000 A 
ATOM     13  C   UNL     1       4.699  -1.690  -1.630  0.00  0.00    +0.000 A 
BRANCH   8  14
ATOM     14  O   UNL     1       7.050  -1.208  -1.573  0.00  0.00    +0.000 OA
BRANCH  14  16
ATOM     15  C   UNL     1       8.352  -0.448   0.336  0.00  0.00    +0.000 C 
ATOM     16  C   UNL     1       8.166  -0.473  -1.172  0.00  0.00    +0.000 C 
ENDBRANCH  14  16
ENDBRANCH   8  14
ENDBRANCH   1  11
BRANCH   4  17
ATOM     17  N   UNL     1      -1.710   1.018  -0.235  0.00  0.00    +0.000 NA
BRANCH  17  18
ATOM     18  C   UNL     1      -2.555  -0.018  -0.745  0.00  0.00    +0.000 A 
ATOM     19  C   UNL     1      -2.093  -1.314  -0.831  0.00  0.00    +0.000 A 
ATOM     20  C   UNL     1      -2.954  -2.271  -1.328  0.00  0.00    +0.000 A 
ATOM     21  C   UNL     1      -4.229  -1.925  -1.720  0.00  0.00    +0.000 A 
ATOM     22  C   UNL     1      -5.096  -3.035  -2.250  0.00  0.00    +0.000 C 
ATOM     23  C   UNL     1      -4.707  -0.638  -1.641  0.00  0.00    +0.000 A 
ATOM     24  C   UNL     1      -6.085  -0.293  -2.070  0.00  0.00    +0.000 C 
ATOM     25  C   UNL     1      -3.829   0.326  -1.136  0.00  0.00    +0.000 A 
ENDBRANCH  17  18
ENDBRANCH   4  17
BRANCH   5  26
ATOM     26  S   UNL     1      -0.841   0.995   2.948  0.00  0.00    +0.000 S 
BRANCH  26  27
ATOM     27  C   UNL     1      -2.511   1.429   2.544  0.00  0.00    +0.000 A 
ATOM     28  C   UNL     1      -2.901   2.715   2.297  0.00  0.00    +0.000 A 
ATOM     29  C   UNL     1      -4.197   3.010   1.997  0.00  0.00    +0.000 A 
ATOM     30  C   UNL     1      -5.170   2.017   1.931  0.00  0.00    +0.000 A 
ATOM     31  C   UNL     1      -4.772   0.722   2.181  0.00  0.00    +0.000 A 
ATOM     32  C   UNL     1      -3.471   0.436   2.481  0.00  0.00    +0.000 A 
ENDBRANCH  26  27
ENDBRANCH   5  26
TORSDOF 7
