REMARK  Name = 
REMARK  7 active torsions:
REMARK  status: ('A' for Active; 'I' for Inactive)
REMARK    1  A    between atoms: C_5  and  C_6
REMARK    2  A    between atoms: C_9  and  S_10
REMARK    3  A    between atoms: S_10  and  C_11
REMARK    4  A    between atoms: C_11  and  C_12
REMARK    5  A    between atoms: C_15  and  C_16
REMARK    6  A    between atoms: N_18  and  C_19
REMARK    7  A    between atoms: C_19  and  C_20
REMARK                            x       y       z     vdW  Elec       q    Type
REMARK                         _______ _______ _______ _____ _____    ______ ____
ROOT
ATOM      1  S   UNL     1      -0.506  -3.093   2.548  0.00  0.00    +0.000 S 
ENDROOT
BRANCH   1   5
ATOM      2  C   UNL     1      -3.477  -0.153   0.656  0.00  0.00    +0.000 A 
ATOM      3  C   UNL     1      -2.288   0.317   1.168  0.00  0.00    +0.000 A 
ATOM      4  C   UNL     1      -1.367  -0.558   1.749  0.00  0.00    +0.000 A 
ATOM      5  C   UNL     1      -1.646  -1.906   1.813  0.00  0.00    +0.000 A 
ATOM      6  N   UNL     1      -2.825  -2.312   1.298  0.00  0.00    +0.000 NA
ATOM      7  N   UNL     1      -3.695  -1.476   0.747  0.00  0.00    +0.000 NA
BRANCH   2  12
ATOM      8  C   UNL     1      -7.542   3.059  -1.824  0.00  0.00    +0.000 C 
ATOM      9  C   UNL     1      -6.455   2.280  -1.171  0.00  0.00    +0.000 A 
ATOM     10  C   UNL     1      -5.291   2.873  -0.692  0.00  0.00    +0.000 A 
ATOM     11  C   UNL     1      -4.314   2.070  -0.092  0.00  0.00    +0.000 A 
ATOM     12  C   UNL     1      -4.475   0.709   0.037  0.00  0.00    +0.000 A 
ATOM     13  C   UNL     1      -5.650   0.183  -0.458  0.00  0.00    +0.000 A 
ATOM     14  C   UNL     1      -6.626   0.927  -1.049  0.00  0.00    +0.000 A 
ENDBRANCH   2  12
ENDBRANCH   1   5
BRANCH   1  15
ATOM     15  C   UNL     1       0.632  -3.735   1.292  0.00  0.00    +0.000 C 
BRANCH  15  16
ATOM     16  C   UNL     1       1.509  -2.605   0.843  0.00  0.00    +0.000 A 
ATOM     17  C   UNL     1       1.216  -1.772  -0.190  0.00  0.00    +0.000 A 
ATOM     18  C   UNL     1       2.055  -0.747  -0.564  0.00  0.00    +0.000 A 
ATOM     19  C   UNL     1       3.229  -0.559   0.131  0.00  0.00    +0.000 A 
ATOM     20  C   UNL     1       3.526  -1.409   1.183  0.00  0.00    +0.000 A 
ATOM     21  C   UNL     1       2.692  -2.421   1.548  0.00  0.00    +0.000 A 
BRANCH  19  22
ATOM     22  C   UNL     1       4.171   0.529  -0.229  0.00  0.00    +0.000 C 
ATOM     23  O   UNL     1       3.847   1.317  -1.141  0.00  0.00    +0.000 OA
ATOM     24  N   UNL     1       5.400   0.667   0.446  0.00  0.00    +0.000 NA
BRANCH  24  25
ATOM     25  C   UNL     1       6.404   1.635   0.224  0.00  0.00    +0.000 C 
BRANCH  25  26
ATOM     26  C   UNL     1       7.058   1.667  -1.111  0.00  0.00    +0.000 C 
ATOM     27  C   UNL     1       6.180   1.925  -2.280  0.00  0.00    +0.000 C 
ATOM     28  C   UNL     1       8.236   2.589  -1.134  0.00  0.00    +0.000 C 
ENDBRANCH  25  26
ENDBRANCH  24  25
ENDBRANCH  19  22
ENDBRANCH  15  16
ENDBRANCH   1  15
TORSDOF 7
