REMARK  Name = 
REMARK  8 active torsions:
REMARK  status: ('A' for Active; 'I' for Inactive)
REMARK    1  A    between atoms: C_2  and  C_3
REMARK    2  A    between atoms: C_3  and  C_4
REMARK    3  A    between atoms: C_4  and  C_5
REMARK    4  A    between atoms: C_5  and  C_6
REMARK    5  A    between atoms: C_6  and  O_7
REMARK    6  A    between atoms: O_7  and  C_8
REMARK    7  A    between atoms: C_11  and  C_12
REMARK    8  A    between atoms: C_22  and  C_23
REMARK                            x       y       z     vdW  Elec       q    Type
REMARK                         _______ _______ _______ _____ _____    ______ ____
ROOT
ATOM      1  C   UNL     1      -1.053  -1.201  -0.163  0.00  0.00    +0.000 C 
ATOM      2  O   UNL     1      -1.093  -2.781  -0.019  0.00  0.00    +0.000 OA
ATOM      3  C   UNL     1      -2.387  -3.198  -0.027  0.00  0.00    +0.000 A 
ATOM      4  C   UNL     1      -2.844  -4.312  -0.724  0.00  0.00    +0.000 A 
ATOM      5  C   UNL     1      -4.205  -4.650  -0.660  0.00  0.00    +0.000 A 
ATOM      6  C   UNL     1      -5.081  -3.885   0.085  0.00  0.00    +0.000 A 
ATOM      7  C   UNL     1      -4.601  -2.768   0.779  0.00  0.00    +0.000 A 
ATOM      8  C   UNL     1      -3.231  -2.473   0.683  0.00  0.00    +0.000 A 
ATOM      9  C   UNL     1      -2.863  -1.220   1.515  0.00  0.00    +0.000 C 
ATOM     10  C   UNL     1      -3.327  -0.103   0.520  0.00  0.00    +0.000 C 
ATOM     11  C   UNL     1      -2.452   0.839   0.593  0.00  0.00    +0.000 C 
ATOM     12  N   UNL     1      -1.460   0.427   1.494  0.00  0.00    +0.000 NA
ATOM     13  N   UNL     1      -1.356  -1.015   1.384  0.00  0.00    +0.000 NA
ENDROOT
BRANCH   1  17
ATOM     14  C   UNL     1       3.274  -0.814   0.058  0.00  0.00    +0.000 A 
ATOM     15  C   UNL     1       2.629  -1.627   0.942  0.00  0.00    +0.000 A 
ATOM     16  C   UNL     1       1.267  -1.734   0.855  0.00  0.00    +0.000 A 
ATOM     17  C   UNL     1       0.514  -1.101  -0.034  0.00  0.00    +0.000 A 
ATOM     18  C   UNL     1       1.194  -0.291  -0.909  0.00  0.00    +0.000 A 
ATOM     19  C   UNL     1       2.561  -0.132  -0.883  0.00  0.00    +0.000 A 
BRANCH  14  20
ATOM     20  O   UNL     1       4.691  -0.684   0.127  0.00  0.00    +0.000 OA
BRANCH  20  21
ATOM     21  C   UNL     1       5.291   0.172  -0.816  0.00  0.00    +0.000 C 
BRANCH  21  22
ATOM     22  C   UNL     1       4.788   1.597  -0.713  0.00  0.00    +0.000 C 
BRANCH  22  23
ATOM     23  C   UNL     1       5.113   2.098   0.679  0.00  0.00    +0.000 C 
BRANCH  23  24
ATOM     24  C   UNL     1       6.613   2.027   0.839  0.00  0.00    +0.000 C 
BRANCH  24  26
ATOM     25  C   UNL     1       6.745   4.309   0.021  0.00  0.00    +0.000 C 
ATOM     26  C   UNL     1       7.256   2.903  -0.215  0.00  0.00    +0.000 C 
ENDBRANCH  24  26
ENDBRANCH  23  24
ENDBRANCH  22  23
ENDBRANCH  21  22
ENDBRANCH  20  21
ENDBRANCH  14  20
ENDBRANCH   1  17
BRANCH  11  27
ATOM     27  C   UNL     1      -2.533   2.100  -0.203  0.00  0.00    +0.000 A 
ATOM     28  C   UNL     1      -3.577   2.320  -1.078  0.00  0.00    +0.000 A 
ATOM     29  C   UNL     1      -3.740   3.437  -1.849  0.00  0.00    +0.000 A 
ATOM     30  C   UNL     1      -2.794   4.420  -1.750  0.00  0.00    +0.000 A 
ATOM     31  C   UNL     1      -1.736   4.251  -0.893  0.00  0.00    +0.000 A 
ATOM     32  C   UNL     1      -1.604   3.089  -0.119  0.00  0.00    +0.000 A 
ENDBRANCH  11  27
TORSDOF 8
