REMARK  Name = 
REMARK  8 active torsions:
REMARK  status: ('A' for Active; 'I' for Inactive)
REMARK    1  A    between atoms: C_2  and  C_3
REMARK    2  A    between atoms: C_6  and  N_7
REMARK    3  A    between atoms: C_8  and  C_10
REMARK    4  A    between atoms: C_10  and  C_11
REMARK    5  A    between atoms: C_10  and  N_18
REMARK    6  A    between atoms: C_11  and  C_12
REMARK    7  A    between atoms: C_19  and  C_21
REMARK    8  A    between atoms: C_24  and  C_25
REMARK                            x       y       z     vdW  Elec       q    Type
REMARK                         _______ _______ _______ _____ _____    ______ ____
ROOT
ATOM      1  C   UNL     1      -0.995  -1.054   1.333  0.00  0.00    +0.000 C 
ENDROOT
BRANCH   1   3
ATOM      2  N   UNL     1      -2.879   0.452   0.600  0.00  0.00    +0.000 NA
ATOM      3  C   UNL     1      -1.719  -0.207   0.201  0.00  0.00    +0.000 C 
ATOM      4  O   UNL     1      -1.312  -0.142  -0.934  0.00  0.00    +0.000 OA
BRANCH   2   8
ATOM      5  C   UNL     1      -5.700   2.634  -1.724  0.00  0.00    +0.000 A 
ATOM      6  C   UNL     1      -5.296   3.063  -0.473  0.00  0.00    +0.000 A 
ATOM      7  C   UNL     1      -4.358   2.396   0.298  0.00  0.00    +0.000 A 
ATOM      8  C   UNL     1      -3.778   1.230  -0.198  0.00  0.00    +0.000 A 
ATOM      9  C   UNL     1      -4.203   0.835  -1.450  0.00  0.00    +0.000 A 
ATOM     10  C   UNL     1      -5.139   1.481  -2.240  0.00  0.00    +0.000 A 
BRANCH   5  12
ATOM     11  C   UNL     1      -6.033   4.373  -3.409  0.00  0.00    +0.000 C 
ATOM     12  C   UNL     1      -6.709   3.350  -2.535  0.00  0.00    +0.000 C 
ENDBRANCH   5  12
ENDBRANCH   2   8
ENDBRANCH   1   3
BRANCH   1  13
ATOM     13  N   UNL     1       0.490  -0.865   0.845  0.00  0.00    +0.000 NA
ATOM     14  C   UNL     1       1.006   0.342   0.541  0.00  0.00    +0.000 C 
ATOM     15  O   UNL     1       0.201   1.358   0.696  0.00  0.00    +0.000 OA
BRANCH  14  16
ATOM     16  C   UNL     1       2.324   0.617   0.084  0.00  0.00    +0.000 A 
ATOM     17  C   UNL     1       3.098  -0.454  -0.330  0.00  0.00    +0.000 A 
ATOM     18  C   UNL     1       4.376  -0.330  -0.753  0.00  0.00    +0.000 A 
ATOM     19  C   UNL     1       4.983   0.915  -0.790  0.00  0.00    +0.000 A 
ATOM     20  C   UNL     1       4.213   1.989  -0.383  0.00  0.00    +0.000 A 
ATOM     21  C   UNL     1       2.922   1.835   0.043  0.00  0.00    +0.000 A 
BRANCH  19  22
ATOM     22  C   UNL     1       6.363   1.127  -1.218  0.00  0.00    +0.000 C 
ATOM     23  C   UNL     1       7.307   0.091  -0.593  0.00  0.00    +0.000 C 
ATOM     24  C   UNL     1       6.833   2.484  -0.732  0.00  0.00    +0.000 C 
ATOM     25  C   UNL     1       6.517   1.015  -2.724  0.00  0.00    +0.000 C 
ENDBRANCH  19  22
ENDBRANCH  14  16
ENDBRANCH   1  13
BRANCH   1  26
ATOM     26  C   UNL     1      -1.172  -2.527   0.507  0.00  0.00    +0.000 C 
BRANCH  26  27
ATOM     27  C   UNL     1      -0.614  -3.451   1.520  0.00  0.00    +0.000 A 
ATOM     28  C   UNL     1      -1.551  -4.223   2.260  0.00  0.00    +0.000 A 
ATOM     29  C   UNL     1      -1.141  -5.074   3.259  0.00  0.00    +0.000 A 
ATOM     30  C   UNL     1       0.203  -5.195   3.571  0.00  0.00    +0.000 A 
ATOM     31  C   UNL     1       1.101  -4.455   2.865  0.00  0.00    +0.000 A 
ATOM     32  C   UNL     1       0.662  -3.609   1.863  0.00  0.00    +0.000 A 
ENDBRANCH  26  27
ENDBRANCH   1  26
TORSDOF 8
