REMARK  Name = 
REMARK  7 active torsions:
REMARK  status: ('A' for Active; 'I' for Inactive)
REMARK    1  A    between atoms: C_6  and  C_7
REMARK    2  A    between atoms: C_7  and  S_8
REMARK    3  A    between atoms: S_8  and  C_9
REMARK    4  A    between atoms: N_20  and  C_21
REMARK    5  A    between atoms: C_21  and  C_22
REMARK    6  A    between atoms: C_22  and  C_23
REMARK    7  A    between atoms: C_23  and  C_24
REMARK                            x       y       z     vdW  Elec       q    Type
REMARK                         _______ _______ _______ _____ _____    ______ ____
ROOT
ATOM      1  C   UNL     1       0.166   0.460   1.430  0.00  0.00    +0.000 A 
ATOM      2  N   UNL     1      -0.036   1.549   2.230  0.00  0.00    +0.000 NA
ATOM      3  C   UNL     1      -0.276   2.627   1.471  0.00  0.00    +0.000 A 
ATOM      4  C   UNL     1      -0.227   2.226   0.160  0.00  0.00    +0.000 A 
ATOM      5  C   UNL     1      -0.441   3.146  -0.845  0.00  0.00    +0.000 A 
ATOM      6  O   UNL     1      -0.400   2.796  -2.049  0.00  0.00    +0.000 OA
ATOM      7  N   UNL     1      -0.696   4.431  -0.546  0.00  0.00    +0.000 NA
ATOM      8  C   UNL     1      -0.748   4.844   0.751  0.00  0.00    +0.000 A 
ATOM      9  O   UNL     1      -0.990   6.061   1.016  0.00  0.00    +0.000 OA
ATOM     10  N   UNL     1      -0.536   3.929   1.703  0.00  0.00    +0.000 N 
ATOM     11  C   UNL     1      -0.586   4.347   3.091  0.00  0.00    +0.000 C 
ATOM     12  N   UNL     1       0.046   0.895   0.179  0.00  0.00    +0.000 N 
ENDROOT
BRANCH   1  13
ATOM     13  S   UNL     1       0.481  -1.192   2.062  0.00  0.00    +0.000 S 
BRANCH  13  14
ATOM     14  C   UNL     1      -1.102  -2.087   2.300  0.00  0.00    +0.000 C 
BRANCH  14  20
ATOM     15  C   UNL     1      -4.074  -0.380  -1.291  0.00  0.00    +0.000 C 
ATOM     16  C   UNL     1      -3.163  -1.432  -0.764  0.00  0.00    +0.000 A 
ATOM     17  C   UNL     1      -2.891  -2.573  -1.506  0.00  0.00    +0.000 A 
ATOM     18  C   UNL     1      -2.057  -3.567  -1.059  0.00  0.00    +0.000 A 
ATOM     19  C   UNL     1      -1.458  -3.425   0.192  0.00  0.00    +0.000 A 
ATOM     20  C   UNL     1      -1.706  -2.303   0.959  0.00  0.00    +0.000 A 
ATOM     21  C   UNL     1      -2.552  -1.329   0.469  0.00  0.00    +0.000 A 
ENDBRANCH  14  20
ENDBRANCH  13  14
ENDBRANCH   1  13
BRANCH  12  22
ATOM     22  C   UNL     1       0.133   0.130  -1.022  0.00  0.00    +0.000 C 
BRANCH  22  23
ATOM     23  C   UNL     1       1.325   0.074  -1.792  0.00  0.00    +0.000 C 
BRANCH  23  24
ATOM     24  C   UNL     1       2.621  -0.396  -1.495  0.00  0.00    +0.000 C 
BRANCH  24  25
ATOM     25  C   UNL     1       2.897  -1.788  -1.169  0.00  0.00    +0.000 A 
ATOM     26  C   UNL     1       3.127  -2.671  -2.223  0.00  0.00    +0.000 A 
ATOM     27  C   UNL     1       3.419  -3.993  -2.007  0.00  0.00    +0.000 A 
ATOM     28  C   UNL     1       3.483  -4.452  -0.712  0.00  0.00    +0.000 A 
ATOM     29  C   UNL     1       3.264  -3.623   0.378  0.00  0.00    +0.000 A 
ATOM     30  C   UNL     1       2.976  -2.303   0.089  0.00  0.00    +0.000 A 
ENDBRANCH  24  25
ENDBRANCH  23  24
ENDBRANCH  22  23
ENDBRANCH  12  22
TORSDOF 7
