REMARK  Name = 
REMARK  6 active torsions:
REMARK  status: ('A' for Active; 'I' for Inactive)
REMARK    1  A    between atoms: O_2  and  C_3
REMARK    2  A    between atoms: C_6  and  C_7
REMARK    3  A    between atoms: C_7  and  C_8
REMARK    4  A    between atoms: C_8  and  N_9
REMARK    5  A    between atoms: C_12  and  C_13
REMARK    6  A    between atoms: N_15  and  C_16
REMARK                            x       y       z     vdW  Elec       q    Type
REMARK                         _______ _______ _______ _____ _____    ______ ____
ROOT
ATOM      1  N   UNL     1       1.212  -0.547  -0.633  0.00  0.00    +0.000 N 
ATOM      2  C   UNL     1       0.021  -0.177  -0.154  0.00  0.00    +0.000 A 
ATOM      3  C   UNL     1      -0.328   1.076   0.607  0.00  0.00    +0.000 C 
ATOM      4  C   UNL     1      -0.912  -1.144  -0.459  0.00  0.00    +0.000 A 
ATOM      5  C   UNL     1      -0.189  -2.116  -1.154  0.00  0.00    +0.000 A 
ATOM      6  C   UNL     1      -0.555  -3.328  -1.723  0.00  0.00    +0.000 A 
ATOM      7  C   UNL     1       0.333  -4.149  -2.376  0.00  0.00    +0.000 A 
ATOM      8  O   UNL     1      -0.094  -5.368  -2.935  0.00  0.00    +0.000 OA
ATOM      9  C   UNL     1       1.665  -3.765  -2.482  0.00  0.00    +0.000 A 
ATOM     10  C   UNL     1       2.018  -2.562  -1.914  0.00  0.00    +0.000 A 
ATOM     11  C   UNL     1       1.125  -1.735  -1.256  0.00  0.00    +0.000 A 
ENDROOT
BRANCH   4  12
ATOM     12  C   UNL     1      -2.335  -1.219  -0.185  0.00  0.00    +0.000 C 
ATOM     13  O   UNL     1      -2.969  -2.246  -0.530  0.00  0.00    +0.000 OA
ATOM     14  N   UNL     1      -2.938  -0.116   0.462  0.00  0.00    +0.000 NA
BRANCH  14  15
ATOM     15  C   UNL     1      -4.499  -0.304   0.705  0.00  0.00    +0.000 C 
ATOM     16  C   UNL     1      -4.347  -0.031   2.337  0.00  0.00    +0.000 C 
ATOM     17  C   UNL     1      -5.689   0.256   2.851  0.00  0.00    +0.000 C 
ATOM     18  C   UNL     1      -6.709   0.667   1.841  0.00  0.00    +0.000 C 
ATOM     19  C   UNL     1      -6.009   1.629   0.920  0.00  0.00    +0.000 A 
ATOM     20  C   UNL     1      -6.476   2.904   0.681  0.00  0.00    +0.000 A 
ATOM     21  C   UNL     1      -5.774   3.721  -0.185  0.00  0.00    +0.000 A 
ATOM     22  C   UNL     1      -4.627   3.221  -0.777  0.00  0.00    +0.000 A 
ATOM     23  C   UNL     1      -4.172   1.926  -0.519  0.00  0.00    +0.000 A 
ATOM     24  C   UNL     1      -4.890   1.180   0.327  0.00  0.00    +0.000 A 
ENDBRANCH  14  15
ENDBRANCH   4  12
BRANCH   1  25
ATOM     25  C   UNL     1       2.427   0.226  -0.486  0.00  0.00    +0.000 C 
BRANCH  25  26
ATOM     26  C   UNL     1       3.181  -0.179   0.772  0.00  0.00    +0.000 C 
BRANCH  26  30
ATOM     27  C   UNL     1       6.920   1.930   1.041  0.00  0.00    +0.000 A 
ATOM     28  C   UNL     1       5.797   2.449   1.646  0.00  0.00    +0.000 A 
ATOM     29  C   UNL     1       4.564   1.792   1.579  0.00  0.00    +0.000 A 
ATOM     30  C   UNL     1       4.437   0.606   0.906  0.00  0.00    +0.000 A 
ATOM     31  C   UNL     1       5.584   0.095   0.300  0.00  0.00    +0.000 A 
ATOM     32  C   UNL     1       6.797   0.736   0.362  0.00  0.00    +0.000 A 
BRANCH  27  34
ATOM     33  C   UNL     1       9.281   2.007   0.466  0.00  0.00    +0.000 C 
ATOM     34  O   UNL     1       8.152   2.566   1.094  0.00  0.00    +0.000 OA
ENDBRANCH  27  34
ENDBRANCH  26  30
ENDBRANCH  25  26
ENDBRANCH   1  25
TORSDOF 6
