REMARK  Name = 
REMARK  8 active torsions:
REMARK  status: ('A' for Active; 'I' for Inactive)
REMARK    1  A    between atoms: C_2  and  C_3
REMARK    2  A    between atoms: C_3  and  C_6
REMARK    3  A    between atoms: C_9  and  O_10
REMARK    4  A    between atoms: O_10  and  C_11
REMARK    5  A    between atoms: C_14  and  N_15
REMARK    6  A    between atoms: C_16  and  C_18
REMARK    7  A    between atoms: C_18  and  C_19
REMARK    8  A    between atoms: C_24  and  N_25
REMARK                            x       y       z     vdW  Elec       q    Type
REMARK                         _______ _______ _______ _____ _____    ______ ____
ROOT
ATOM      1  C   UNL     1      -1.453  -1.579  -1.004  0.00  0.00    +0.000 A 
ATOM      2  C   UNL     1      -0.716  -1.976   0.070  0.00  0.00    +0.000 A 
ATOM      3  C   UNL     1       0.455  -1.320   0.408  0.00  0.00    +0.000 A 
ATOM      4  C   UNL     1       0.908  -0.229  -0.350  0.00  0.00    +0.000 A 
ATOM      5  C   UNL     1       0.157   0.159  -1.436  0.00  0.00    +0.000 A 
ATOM      6  C   UNL     1      -1.007  -0.508  -1.758  0.00  0.00    +0.000 A 
ENDROOT
BRANCH   4   7
ATOM      7  N   UNL     1       2.078   0.476   0.093  0.00  0.00    +0.000 NA
ATOM      8  C   UNL     1       3.090  -0.076   0.886  0.00  0.00    +0.000 C 
ATOM      9  O   UNL     1       2.928  -1.318   1.165  0.00  0.00    +0.000 OA
BRANCH   8  10
ATOM     10  C   UNL     1       4.281   0.555   1.435  0.00  0.00    +0.000 C 
BRANCH  10  11
ATOM     11  C   UNL     1       5.578   0.335   0.842  0.00  0.00    +0.000 A 
ATOM     12  C   UNL     1       6.323  -0.795   1.220  0.00  0.00    +0.000 A 
ATOM     13  C   UNL     1       7.534  -1.016   0.603  0.00  0.00    +0.000 A 
ATOM     14  C   UNL     1       8.035  -0.179  -0.357  0.00  0.00    +0.000 A 
ATOM     15  C   UNL     1       7.333   0.916  -0.737  0.00  0.00    +0.000 A 
ATOM     16  C   UNL     1       6.085   1.178  -0.128  0.00  0.00    +0.000 A 
BRANCH  16  17
ATOM     17  N   UNL     1       5.396   2.369  -0.474  0.00  0.00    +0.000 N 
ATOM     18  O   UNL     1       4.163   2.506  -0.512  0.00  0.00    +0.000 OA
ATOM     19  O   UNL     1       6.168   3.498  -0.797  0.00  0.00    +0.000 OA
ENDBRANCH  16  17
ENDBRANCH  10  11
ENDBRANCH   8  10
ENDBRANCH   4   7
BRANCH   1  20
ATOM     20  O   UNL     1      -2.636  -2.228  -1.316  0.00  0.00    +0.000 OA
BRANCH  20  24
ATOM     21  C   UNL     1      -6.015  -0.308   0.284  0.00  0.00    +0.000 A 
ATOM     22  C   UNL     1      -6.141  -1.470  -0.418  0.00  0.00    +0.000 A 
ATOM     23  C   UNL     1      -5.046  -2.141  -0.967  0.00  0.00    +0.000 A 
ATOM     24  C   UNL     1      -3.813  -1.628  -0.801  0.00  0.00    +0.000 A 
ATOM     25  C   UNL     1      -3.665  -0.455  -0.095  0.00  0.00    +0.000 A 
ATOM     26  C   UNL     1      -4.714   0.198   0.439  0.00  0.00    +0.000 A 
BRANCH  21  27
ATOM     27  C   UNL     1      -7.143   0.450   0.900  0.00  0.00    +0.000 C 
ATOM     28  C   UNL     1      -8.447  -0.249   0.641  0.00  0.00    +0.000 C 
ATOM     29  C   UNL     1      -6.821   0.473   2.402  0.00  0.00    +0.000 C 
BRANCH  27  31
ATOM     30  C   UNL     1      -5.763   2.485   0.652  0.00  0.00    +0.000 C 
ATOM     31  C   UNL     1      -7.132   1.879   0.342  0.00  0.00    +0.000 C 
ENDBRANCH  27  31
ENDBRANCH  21  27
ENDBRANCH  20  24
ENDBRANCH   1  20
TORSDOF 8
