REMARK  Name = 
REMARK  6 active torsions:
REMARK  status: ('A' for Active; 'I' for Inactive)
REMARK    1  A    between atoms: C_2  and  C_3
REMARK    2  A    between atoms: C_6  and  C_7
REMARK    3  A    between atoms: C_17  and  O_18
REMARK    4  A    between atoms: O_18  and  C_19
REMARK    5  A    between atoms: C_19  and  C_20
REMARK    6  A    between atoms: C_28  and  O_29
REMARK                            x       y       z     vdW  Elec       q    Type
REMARK                         _______ _______ _______ _____ _____    ______ ____
ROOT
ATOM      1  C   UNL     1      -2.359  -1.469  -1.843  0.00  0.00    +0.000 C 
ATOM      2  N   UNL     1      -2.354  -0.500  -3.071  0.00  0.00    +0.000 NA
ATOM      3  C   UNL     1      -2.426   0.833  -2.716  0.00  0.00    +0.000 C 
ATOM      4  C   UNL     1      -1.126   1.374  -2.222  0.00  0.00    +0.000 C 
ATOM      5  C   UNL     1      -0.553   0.299  -1.342  0.00  0.00    +0.000 A 
ATOM      6  C   UNL     1      -1.035  -0.910  -1.151  0.00  0.00    +0.000 A 
ATOM      7  N   UNL     1      -0.272  -1.608  -0.303  0.00  0.00    +0.000 NA
ATOM      8  C   UNL     1       0.761  -0.804   0.074  0.00  0.00    +0.000 A 
ATOM      9  C   UNL     1       1.836  -0.969   0.908  0.00  0.00    +0.000 A 
ATOM     10  C   UNL     1       2.712   0.050   1.080  0.00  0.00    +0.000 A 
ATOM     11  C   UNL     1       2.613   1.282   0.467  0.00  0.00    +0.000 A 
ATOM     12  C   UNL     1       1.522   1.427  -0.370  0.00  0.00    +0.000 A 
ATOM     13  C   UNL     1       0.608   0.403  -0.565  0.00  0.00    +0.000 A 
ENDROOT
BRANCH   1  17
ATOM     14  C   UNL     1      -5.396   0.433   0.590  0.00  0.00    +0.000 A 
ATOM     15  C   UNL     1      -5.280   0.735  -0.746  0.00  0.00    +0.000 A 
ATOM     16  C   UNL     1      -4.266   0.091  -1.495  0.00  0.00    +0.000 A 
ATOM     17  C   UNL     1      -3.428  -0.801  -0.915  0.00  0.00    +0.000 A 
ATOM     18  C   UNL     1      -3.543  -1.096   0.391  0.00  0.00    +0.000 A 
ATOM     19  C   UNL     1      -4.543  -0.467   1.150  0.00  0.00    +0.000 A 
BRANCH  14  21
ATOM     20  C   UNL     1      -7.767   0.371   1.321  0.00  0.00    +0.000 C 
ATOM     21  C   UNL     1      -6.478   1.133   1.347  0.00  0.00    +0.000 C 
ENDBRANCH  14  21
BRANCH  18  22
ATOM     22  O   UNL     1      -2.707  -1.995   0.997  0.00  0.00    +0.000 OA
ATOM     23  C   UNL     1      -2.825  -2.301   2.351  0.00  0.00    +0.000 C 
ENDBRANCH  18  22
ENDBRANCH   1  17
BRANCH  11  24
ATOM     24  O   UNL     1       3.527   2.306   0.664  0.00  0.00    +0.000 OA
BRANCH  24  25
ATOM     25  C   UNL     1       4.622   2.148   1.505  0.00  0.00    +0.000 C 
BRANCH  25  26
ATOM     26  C   UNL     1       5.530   1.062   1.089  0.00  0.00    +0.000 A 
ATOM     27  C   UNL     1       5.311   0.404  -0.095  0.00  0.00    +0.000 A 
ATOM     28  C   UNL     1       6.098  -0.602  -0.549  0.00  0.00    +0.000 A 
ATOM     29  C   UNL     1       7.177  -0.995   0.205  0.00  0.00    +0.000 A 
ATOM     30  C   UNL     1       7.434  -0.363   1.397  0.00  0.00    +0.000 A 
ATOM     31  C   UNL     1       6.608   0.673   1.846  0.00  0.00    +0.000 A 
ENDBRANCH  25  26
ENDBRANCH  24  25
ENDBRANCH  11  24
TORSDOF 6
