REMARK  Name = 
REMARK  9 active torsions:
REMARK  status: ('A' for Active; 'I' for Inactive)
REMARK    1  A    between atoms: C_11  and  C_13
REMARK    2  A    between atoms: C_13  and  O_15
REMARK    3  A    between atoms: C_17  and  C_18
REMARK    4  A    between atoms: C_18  and  C_19
REMARK    5  A    between atoms: C_19  and  C_20
REMARK    6  A    between atoms: C_24  and  C_25
REMARK    7  A    between atoms: C_25  and  N_26
REMARK    8  A    between atoms: N_26  and  C_27
REMARK    9  A    between atoms: C_27  and  C_28
REMARK                            x       y       z     vdW  Elec       q    Type
REMARK                         _______ _______ _______ _____ _____    ______ ____
ROOT
ATOM      1  C   UNL     1       0.037  -2.436   0.531  0.00  0.00    +0.000 C 
ATOM      2  C   UNL     1       0.758  -1.364   0.225  0.00  0.00    +0.000 C 
ATOM      3  C   UNL     1       0.753  -0.758  -1.117  0.00  0.00    +0.000 C 
ATOM      4  C   UNL     1       2.042   0.040  -1.171  0.00  0.00    +0.000 C 
ATOM      5  C   UNL     1       3.075  -1.156  -0.740  0.00  0.00    +0.000 C 
ATOM      6  C   UNL     1       3.126  -0.740   0.831  0.00  0.00    +0.000 C 
ATOM      7  C   UNL     1       3.768  -1.909   1.559  0.00  0.00    +0.000 C 
ATOM      8  C   UNL     1       3.747   0.535   1.078  0.00  0.00    +0.000 C 
ATOM      9  C   UNL     1       3.654   1.580   0.029  0.00  0.00    +0.000 C 
ATOM     10  C   UNL     1       4.359   1.045  -1.171  0.00  0.00    +0.000 C 
ATOM     11  C   UNL     1       4.468  -0.392  -1.132  0.00  0.00    +0.000 C 
ATOM     12  C   UNL     1       4.633  -0.906  -2.573  0.00  0.00    +0.000 C 
ATOM     13  C   UNL     1       1.632  -0.754   1.414  0.00  0.00    +0.000 C 
ENDROOT
BRANCH  11  14
ATOM     14  C   UNL     1       5.524  -0.931  -0.275  0.00  0.00    +0.000 C 
ATOM     15  O   UNL     1       6.208  -0.163   0.445  0.00  0.00    +0.000 OA
BRANCH  14  16
ATOM     16  O   UNL     1       5.850  -2.281  -0.193  0.00  0.00    +0.000 OA
ATOM     17  C   UNL     1       6.900  -2.739   0.672  0.00  0.00    +0.000 C 
ENDBRANCH  14  16
ENDBRANCH  11  14
BRANCH  13  18
ATOM     18  C   UNL     1       1.288   0.859   0.990  0.00  0.00    +0.000 C 
BRANCH  18  19
ATOM     19  C   UNL     1      -0.145   0.880   1.281  0.00  0.00    +0.000 C 
BRANCH  19  20
ATOM     20  C   UNL     1      -0.958   2.058   0.968  0.00  0.00    +0.000 A 
ATOM     21  C   UNL     1      -0.940   3.384   1.252  0.00  0.00    +0.000 A 
ATOM     22  C   UNL     1      -1.942   4.026   0.590  0.00  0.00    +0.000 A 
ATOM     23  O   UNL     1      -2.598   3.130  -0.122  0.00  0.00    +0.000 OA
ATOM     24  C   UNL     1      -2.077   1.957   0.049  0.00  0.00    +0.000 A 
BRANCH  24  25
ATOM     25  C   UNL     1      -2.427   0.660  -0.511  0.00  0.00    +0.000 C 
BRANCH  25  26
ATOM     26  N   UNL     1      -3.817   0.729  -1.116  0.00  0.00    +0.000 NA
BRANCH  26  27
ATOM     27  C   UNL     1      -4.524   0.479   0.187  0.00  0.00    +0.000 C 
BRANCH  27  28
ATOM     28  C   UNL     1      -5.849  -0.073   0.102  0.00  0.00    +0.000 A 
ATOM     29  C   UNL     1      -7.031   0.545  -0.080  0.00  0.00    +0.000 A 
ATOM     30  C   UNL     1      -8.241  -0.159  -0.029  0.00  0.00    +0.000 A 
ATOM     31  C   UNL     1      -8.308  -1.502   0.202  0.00  0.00    +0.000 A 
ATOM     32  C   UNL     1      -7.068  -2.163   0.390  0.00  0.00    +0.000 A 
ATOM     33  C   UNL     1      -5.899  -1.481   0.348  0.00  0.00    +0.000 A 
ENDBRANCH  27  28
ENDBRANCH  26  27
ENDBRANCH  25  26
ENDBRANCH  24  25
ENDBRANCH  19  20
ENDBRANCH  18  19
ENDBRANCH  13  18
TORSDOF 9
