REMARK  Name = 
REMARK  6 active torsions:
REMARK  status: ('A' for Active; 'I' for Inactive)
REMARK    1  A    between atoms: O_2  and  C_3
REMARK    2  A    between atoms: C_9  and  N_10
REMARK    3  A    between atoms: C_11  and  C_13
REMARK    4  A    between atoms: C_13  and  S_14
REMARK    5  A    between atoms: S_14  and  C_15
REMARK    6  A    between atoms: C_17  and  C_18
REMARK                            x       y       z     vdW  Elec       q    Type
REMARK                         _______ _______ _______ _____ _____    ______ ____
ROOT
ATOM      1  C   UNL     1      -1.820   0.760  -0.813  0.00  0.00    +0.000 A 
ATOM      2  N   UNL     1      -2.498  -0.314  -1.329  0.00  0.00    +0.000 NA
ATOM      3  C   UNL     1      -3.286  -1.076  -0.554  0.00  0.00    +0.000 A 
ATOM      4  N   UNL     1      -3.418  -0.783   0.757  0.00  0.00    +0.000 NA
ATOM      5  C   UNL     1      -2.782   0.249   1.301  0.00  0.00    +0.000 A 
ATOM      6  C   UNL     1      -2.918   0.581   2.636  0.00  0.00    +0.000 A 
ATOM      7  C   UNL     1      -2.274   1.666   3.202  0.00  0.00    +0.000 A 
ATOM      8  C   UNL     1      -1.460   2.466   2.433  0.00  0.00    +0.000 A 
ATOM      9  C   UNL     1      -0.753   3.643   3.039  0.00  0.00    +0.000 C 
ATOM     10  C   UNL     1      -1.326   2.134   1.112  0.00  0.00    +0.000 A 
ATOM     11  C   UNL     1      -1.968   1.041   0.522  0.00  0.00    +0.000 A 
ENDROOT
BRANCH   3  12
ATOM     12  C   UNL     1      -4.018  -2.219  -1.079  0.00  0.00    +0.000 A 
ATOM     13  C   UNL     1      -4.788  -3.012  -0.281  0.00  0.00    +0.000 A 
ATOM     14  C   UNL     1      -5.498  -4.102  -0.733  0.00  0.00    +0.000 A 
ATOM     15  C   UNL     1      -5.446  -4.433  -2.059  0.00  0.00    +0.000 A 
ATOM     16  C   UNL     1      -4.679  -3.663  -2.913  0.00  0.00    +0.000 A 
ATOM     17  C   UNL     1      -3.976  -2.573  -2.430  0.00  0.00    +0.000 A 
ENDBRANCH   3  12
BRANCH   1  18
ATOM     18  S   UNL     1      -0.804   1.768  -1.865  0.00  0.00    +0.000 S 
BRANCH  18  19
ATOM     19  C   UNL     1       0.836   1.191  -2.135  0.00  0.00    +0.000 C 
BRANCH  19  21
ATOM     20  N   UNL     1       3.057   0.596  -1.254  0.00  0.00    +0.000 NA
ATOM     21  C   UNL     1       1.790   1.203  -1.044  0.00  0.00    +0.000 C 
ATOM     22  O   UNL     1       1.578   1.707   0.063  0.00  0.00    +0.000 OA
BRANCH  20  29
ATOM     23  C   UNL     1       5.218  -0.062  -0.436  0.00  0.00    +0.000 A 
ATOM     24  C   UNL     1       6.170  -0.083   0.551  0.00  0.00    +0.000 A 
ATOM     25  C   UNL     1       5.994   0.519   1.773  0.00  0.00    +0.000 A 
ATOM     26  C   UNL     1       4.790   1.159   1.965  0.00  0.00    +0.000 A 
ATOM     27  C   UNL     1       4.491   1.853   3.266  0.00  0.00    +0.000 C 
ATOM     28  C   UNL     1       3.794   1.216   1.016  0.00  0.00    +0.000 A 
ATOM     29  C   UNL     1       4.010   0.600  -0.194  0.00  0.00    +0.000 A 
BRANCH  23  31
ATOM     30  C   UNL     1       6.581  -1.354  -1.995  0.00  0.00    +0.000 C 
ATOM     31  O   UNL     1       5.401  -0.679  -1.689  0.00  0.00    +0.000 OA
ENDBRANCH  23  31
ENDBRANCH  20  29
ENDBRANCH  19  21
ENDBRANCH  18  19
ENDBRANCH   1  18
TORSDOF 6
