REMARK  Name = 
REMARK  6 active torsions:
REMARK  status: ('A' for Active; 'I' for Inactive)
REMARK    1  A    between atoms: C_6  and  C_7
REMARK    2  A    between atoms: N_9  and  C_10
REMARK    3  A    between atoms: N_9  and  C_21
REMARK    4  A    between atoms: C_10  and  C_11
REMARK    5  A    between atoms: C_11  and  C_12
REMARK    6  A    between atoms: C_21  and  C_22
REMARK                            x       y       z     vdW  Elec       q    Type
REMARK                         _______ _______ _______ _____ _____    ______ ____
ROOT
ATOM      1  C   UNL     1       0.227   2.111   0.409  0.00  0.00    +0.000 C 
ATOM      2  O   UNL     1       1.033   2.259   1.443  0.00  0.00    +0.000 OA
ATOM      3  N   UNL     1       0.338   0.931  -0.258  0.00  0.00    +0.000 N 
ENDROOT
BRANCH   1   9
ATOM      4  C   UNL     1      -2.562   6.849   0.721  0.00  0.00    +0.000 C 
ATOM      5  C   UNL     1      -1.919   5.529   0.435  0.00  0.00    +0.000 A 
ATOM      6  N   UNL     1      -2.174   4.756  -0.591  0.00  0.00    +0.000 NA
ATOM      7  C   UNL     1      -1.555   3.620  -0.749  0.00  0.00    +0.000 A 
ATOM      8  C   UNL     1      -1.844   2.752  -1.973  0.00  0.00    +0.000 C 
ATOM      9  C   UNL     1      -0.633   3.252   0.183  0.00  0.00    +0.000 A 
ATOM     10  S   UNL     1      -0.733   4.630   1.256  0.00  0.00    +0.000 S 
ENDBRANCH   1   9
BRANCH   3  11
ATOM     11  C   UNL     1       1.366  -0.046   0.184  0.00  0.00    +0.000 C 
BRANCH  11  12
ATOM     12  C   UNL     1       2.629   0.271  -0.591  0.00  0.00    +0.000 C 
BRANCH  12  13
ATOM     13  C   UNL     1       3.706  -0.672  -0.196  0.00  0.00    +0.000 A 
ATOM     14  C   UNL     1       4.799  -0.457   0.624  0.00  0.00    +0.000 A 
ATOM     15  N   UNL     1       5.528  -1.583   0.716  0.00  0.00    +0.000 NA
ATOM     16  C   UNL     1       4.939  -2.558  -0.033  0.00  0.00    +0.000 A 
ATOM     17  C   UNL     1       5.298  -3.868  -0.257  0.00  0.00    +0.000 A 
ATOM     18  C   UNL     1       4.509  -4.637  -1.069  0.00  0.00    +0.000 A 
ATOM     19  C   UNL     1       3.388  -4.093  -1.636  0.00  0.00    +0.000 A 
ATOM     20  C   UNL     1       3.040  -2.787  -1.405  0.00  0.00    +0.000 A 
ATOM     21  C   UNL     1       3.803  -1.993  -0.603  0.00  0.00    +0.000 A 
ENDBRANCH  12  13
ENDBRANCH  11  12
ENDBRANCH   3  11
BRANCH   3  22
ATOM     22  C   UNL     1      -0.480   0.472  -1.331  0.00  0.00    +0.000 C 
BRANCH  22  23
ATOM     23  C   UNL     1      -1.645  -0.329  -0.860  0.00  0.00    +0.000 A 
ATOM     24  C   UNL     1      -2.632  -0.904  -1.630  0.00  0.00    +0.000 A 
ATOM     25  C   UNL     1      -3.519  -1.555  -0.821  0.00  0.00    +0.000 A 
ATOM     26  C   UNL     1      -4.665  -2.281  -1.054  0.00  0.00    +0.000 A 
ATOM     27  C   UNL     1      -5.379  -2.841  -0.016  0.00  0.00    +0.000 A 
ATOM     28  C   UNL     1      -4.923  -2.659   1.285  0.00  0.00    +0.000 A 
ATOM     29  C   UNL     1      -3.771  -1.927   1.510  0.00  0.00    +0.000 A 
ATOM     30  C   UNL     1      -3.062  -1.371   0.465  0.00  0.00    +0.000 A 
ATOM     31  N   UNL     1      -1.923  -0.624   0.421  0.00  0.00    +0.000 N 
ATOM     32  C   UNL     1      -1.185  -0.249   1.617  0.00  0.00    +0.000 C 
ENDBRANCH  22  23
ENDBRANCH   3  22
TORSDOF 6
