REMARK  Name = 
REMARK  6 active torsions:
REMARK  status: ('A' for Active; 'I' for Inactive)
REMARK    1  A    between atoms: C_2  and  O_3
REMARK    2  A    between atoms: O_3  and  C_4
REMARK    3  A    between atoms: C_9  and  C_10
REMARK    4  A    between atoms: C_10  and  N_11
REMARK    5  A    between atoms: C_12  and  C_14
REMARK    6  A    between atoms: C_16  and  C_17
REMARK                            x       y       z     vdW  Elec       q    Type
REMARK                         _______ _______ _______ _____ _____    ______ ____
ROOT
ATOM      1  C   UNL     1       0.570   0.152  -0.007  0.00  0.00    +0.000 A 
ATOM      2  C   UNL     1       1.863  -0.316  -0.009  0.00  0.00    +0.000 A 
ATOM      3  C   UNL     1       2.884   0.592  -0.185  0.00  0.00    +0.000 A 
ATOM      4  N   UNL     1       2.596   1.904  -0.350  0.00  0.00    +0.000 NA
ATOM      5  C   UNL     1       1.339   2.368  -0.350  0.00  0.00    +0.000 A 
ATOM      6  C   UNL     1       1.076   3.729  -0.523  0.00  0.00    +0.000 A 
ATOM      7  C   UNL     1      -0.234   4.163  -0.516  0.00  0.00    +0.000 A 
ATOM      8  C   UNL     1      -1.278   3.264  -0.339  0.00  0.00    +0.000 A 
ATOM      9  C   UNL     1      -1.031   1.922  -0.168  0.00  0.00    +0.000 A 
ATOM     10  C   UNL     1       0.294   1.493  -0.176  0.00  0.00    +0.000 A 
ENDROOT
BRANCH   3  11
ATOM     11  C   UNL     1       4.289   0.191  -0.202  0.00  0.00    +0.000 A 
ATOM     12  C   UNL     1       5.310   1.100  -0.379  0.00  0.00    +0.000 A 
ATOM     13  C   UNL     1       6.645   0.743  -0.398  0.00  0.00    +0.000 A 
ATOM     14  C   UNL     1       6.935  -0.595  -0.229  0.00  0.00    +0.000 A 
ATOM     15  C   UNL     1       8.362  -1.067  -0.237  0.00  0.00    +0.000 C 
ATOM     16  C   UNL     1       5.960  -1.561  -0.047  0.00  0.00    +0.000 A 
ATOM     17  C   UNL     1       6.312  -3.008   0.133  0.00  0.00    +0.000 C 
ATOM     18  C   UNL     1       4.649  -1.131  -0.039  0.00  0.00    +0.000 A 
ENDBRANCH   3  11
BRANCH   1  20
ATOM     19  N   UNL     1      -1.905  -0.359   0.190  0.00  0.00    +0.000 NA
ATOM     20  C   UNL     1      -0.567  -0.774   0.178  0.00  0.00    +0.000 C 
ATOM     21  O   UNL     1      -0.329  -2.005   0.335  0.00  0.00    +0.000 OA
BRANCH  19  22
ATOM     22  C   UNL     1      -3.001  -1.291   0.373  0.00  0.00    +0.000 C 
BRANCH  22  28
ATOM     23  C   UNL     1      -5.440  -1.188   0.484  0.00  0.00    +0.000 A 
ATOM     24  C   UNL     1      -6.612  -0.464   0.445  0.00  0.00    +0.000 A 
ATOM     25  C   UNL     1      -6.665   0.902   0.260  0.00  0.00    +0.000 A 
ATOM     26  C   UNL     1      -5.459   1.551   0.110  0.00  0.00    +0.000 A 
ATOM     27  C   UNL     1      -4.251   0.888   0.139  0.00  0.00    +0.000 A 
ATOM     28  C   UNL     1      -4.258  -0.496   0.329  0.00  0.00    +0.000 A 
BRANCH  23  29
ATOM     29  O   UNL     1      -5.419  -2.559   0.671  0.00  0.00    +0.000 OA
BRANCH  29  31
ATOM     30  C   UNL     1      -6.083  -4.793   1.010  0.00  0.00    +0.000 C 
ATOM     31  C   UNL     1      -6.551  -3.354   0.837  0.00  0.00    +0.000 C 
ENDBRANCH  29  31
ENDBRANCH  23  29
ENDBRANCH  22  28
ENDBRANCH  19  22
ENDBRANCH   1  20
TORSDOF 6
