REMARK  Name = 
REMARK  8 active torsions:
REMARK  status: ('A' for Active; 'I' for Inactive)
REMARK    1  A    between atoms: O_2  and  C_3
REMARK    2  A    between atoms: C_7  and  N_8
REMARK    3  A    between atoms: N_8  and  C_9
REMARK    4  A    between atoms: C_10  and  S_11
REMARK    5  A    between atoms: S_11  and  C_12
REMARK    6  A    between atoms: N_21  and  C_22
REMARK    7  A    between atoms: C_22  and  C_23
REMARK    8  A    between atoms: C_23  and  C_24
REMARK                            x       y       z     vdW  Elec       q    Type
REMARK                         _______ _______ _______ _____ _____    ______ ____
ROOT
ATOM      1  C   UNL     1       0.503   1.176  -0.924  0.00  0.00    +0.000 C 
ATOM      2  C   UNL     1       1.301   0.209  -0.413  0.00  0.00    +0.000 C 
ATOM      3  C   UNL     1       0.430  -0.792   0.150  0.00  0.00    +0.000 C 
ATOM      4  O   UNL     1       0.739  -1.864   0.727  0.00  0.00    +0.000 OA
ATOM      5  N   UNL     1      -0.963  -0.414  -0.028  0.00  0.00    +0.000 N 
ATOM      6  C   UNL     1      -0.878   0.827  -0.705  0.00  0.00    +0.000 C 
ATOM      7  O   UNL     1      -1.921   1.469  -1.033  0.00  0.00    +0.000 OA
ENDROOT
BRANCH   1   8
ATOM      8  N   UNL     1       0.962   2.341  -1.568  0.00  0.00    +0.000 NA
BRANCH   8  13
ATOM      9  C   UNL     1      -0.907   5.221  -0.106  0.00  0.00    +0.000 A 
ATOM     10  C   UNL     1      -0.334   6.234  -0.843  0.00  0.00    +0.000 A 
ATOM     11  C   UNL     1       0.639   6.012  -1.798  0.00  0.00    +0.000 A 
ATOM     12  C   UNL     1       1.036   4.699  -2.002  0.00  0.00    +0.000 A 
ATOM     13  C   UNL     1       0.489   3.653  -1.286  0.00  0.00    +0.000 A 
ATOM     14  C   UNL     1      -0.472   3.938  -0.353  0.00  0.00    +0.000 A 
BRANCH   9  16
ATOM     15  C   UNL     1      -2.478   4.531   1.595  0.00  0.00    +0.000 C 
ATOM     16  O   UNL     1      -1.865   5.535   0.819  0.00  0.00    +0.000 OA
ENDBRANCH   9  16
ENDBRANCH   8  13
ENDBRANCH   1   8
BRANCH   2  17
ATOM     17  S   UNL     1       3.068   0.229  -0.461  0.00  0.00    +0.000 S 
BRANCH  17  18
ATOM     18  C   UNL     1       3.862  -1.155   0.278  0.00  0.00    +0.000 A 
ATOM     19  C   UNL     1       5.269  -1.159   0.251  0.00  0.00    +0.000 A 
ATOM     20  C   UNL     1       5.987  -2.184   0.795  0.00  0.00    +0.000 A 
ATOM     21  C   UNL     1       5.412  -3.268   1.399  0.00  0.00    +0.000 A 
ATOM     22  C   UNL     1       6.181  -4.383   1.992  0.00  0.00    +0.000 C 
ATOM     23  C   UNL     1       4.013  -3.266   1.427  0.00  0.00    +0.000 A 
ATOM     24  C   UNL     1       3.293  -2.233   0.878  0.00  0.00    +0.000 A 
ENDBRANCH  17  18
ENDBRANCH   2  17
BRANCH   5  25
ATOM     25  C   UNL     1      -2.129  -1.161   0.403  0.00  0.00    +0.000 C 
BRANCH  25  26
ATOM     26  C   UNL     1      -2.502  -2.080  -0.749  0.00  0.00    +0.000 C 
BRANCH  26  27
ATOM     27  C   UNL     1      -3.697  -2.904  -0.418  0.00  0.00    +0.000 A 
ATOM     28  C   UNL     1      -3.485  -4.135   0.185  0.00  0.00    +0.000 A 
ATOM     29  C   UNL     1      -4.606  -4.881   0.483  0.00  0.00    +0.000 A 
ATOM     30  C   UNL     1      -5.889  -4.475   0.217  0.00  0.00    +0.000 A 
ATOM     31  C   UNL     1      -6.082  -3.238  -0.389  0.00  0.00    +0.000 A 
ATOM     32  C   UNL     1      -4.978  -2.481  -0.692  0.00  0.00    +0.000 A 
ENDBRANCH  26  27
ENDBRANCH  25  26
ENDBRANCH   5  25
TORSDOF 8
