REMARK  Name = 
REMARK  7 active torsions:
REMARK  status: ('A' for Active; 'I' for Inactive)
REMARK    1  A    between atoms: C_2  and  O_3
REMARK    2  A    between atoms: O_3  and  C_4
REMARK    3  A    between atoms: N_6  and  N_7
REMARK    4  A    between atoms: N_6  and  C_26
REMARK    5  A    between atoms: C_8  and  C_10
REMARK    6  A    between atoms: C_10  and  C_12
REMARK    7  A    between atoms: C_10  and  C_19
REMARK                            x       y       z     vdW  Elec       q    Type
REMARK                         _______ _______ _______ _____ _____    ______ ____
ROOT
ATOM      1  C   UNL     1      -1.637   0.865   0.576  0.00  0.00    +0.000 C 
ATOM      2  O   UNL     1      -2.276   1.811   1.395  0.00  0.00    +0.000 OA
ENDROOT
BRANCH   1   3
ATOM      3  C   UNL     1      -2.112   0.976  -0.831  0.00  0.00    +0.000 A 
ATOM      4  C   UNL     1      -3.450   0.851  -1.141  0.00  0.00    +0.000 A 
ATOM      5  C   UNL     1      -3.885   0.963  -2.467  0.00  0.00    +0.000 A 
ATOM      6  C   UNL     1      -3.006   1.199  -3.499  0.00  0.00    +0.000 A 
ATOM      7  C   UNL     1      -3.492   1.317  -4.914  0.00  0.00    +0.000 C 
ATOM      8  C   UNL     1      -1.669   1.322  -3.185  0.00  0.00    +0.000 A 
ATOM      9  C   UNL     1      -1.239   1.209  -1.858  0.00  0.00    +0.000 A 
ENDBRANCH   1   3
BRANCH   1  10
ATOM     10  C   UNL     1      -1.962  -0.512   1.079  0.00  0.00    +0.000 A 
ATOM     11  C   UNL     1      -3.276  -0.912   1.166  0.00  0.00    +0.000 A 
ATOM     12  C   UNL     1      -3.589  -2.196   1.636  0.00  0.00    +0.000 A 
ATOM     13  C   UNL     1      -2.608  -3.082   2.021  0.00  0.00    +0.000 A 
ATOM     14  C   UNL     1      -2.914  -4.449   2.524  0.00  0.00    +0.000 C 
ATOM     15  C   UNL     1      -1.299  -2.677   1.932  0.00  0.00    +0.000 A 
ATOM     16  C   UNL     1      -0.988  -1.405   1.465  0.00  0.00    +0.000 A 
ENDBRANCH   1  10
BRANCH   1  18
ATOM     17  N   UNL     1       0.690   0.220  -0.035  0.00  0.00    +0.000 NA
ATOM     18  C   UNL     1      -0.186   1.059   0.687  0.00  0.00    +0.000 C 
ATOM     19  O   UNL     1       0.268   1.963   1.419  0.00  0.00    +0.000 OA
BRANCH  17  22
ATOM     20  C   UNL     1       2.780   1.548  -0.113  0.00  0.00    +0.000 C 
ATOM     21  O   UNL     1       4.041   1.517  -0.066  0.00  0.00    +0.000 OA
ATOM     22  N   UNL     1       2.073   0.321   0.003  0.00  0.00    +0.000 N 
BRANCH  22  23
ATOM     23  C   UNL     1       2.786  -0.918   0.172  0.00  0.00    +0.000 A 
ATOM     24  C   UNL     1       2.588  -1.702   1.278  0.00  0.00    +0.000 A 
ATOM     25  C   UNL     1       3.266  -2.881   1.439  0.00  0.00    +0.000 A 
ATOM     26  C   UNL     1       4.162  -3.308   0.494  0.00  0.00    +0.000 A 
ATOM     27  C   UNL     1       4.358  -2.512  -0.622  0.00  0.00    +0.000 A 
ATOM     28  C   UNL     1       3.683  -1.332  -0.788  0.00  0.00    +0.000 A 
ENDBRANCH  22  23
BRANCH  20  29
ATOM     29  O   UNL     1       2.148   2.765  -0.275  0.00  0.00    +0.000 OA
BRANCH  29  31
ATOM     30  C   UNL     1       3.778   4.044   0.892  0.00  0.00    +0.000 C 
ATOM     31  C   UNL     1       2.964   3.936  -0.382  0.00  0.00    +0.000 C 
ENDBRANCH  29  31
ENDBRANCH  20  29
ENDBRANCH  17  22
ENDBRANCH   1  18
TORSDOF 7
