REMARK  Name = 
REMARK  7 active torsions:
REMARK  status: ('A' for Active; 'I' for Inactive)
REMARK    1  A    between atoms: C_3  and  C_4
REMARK    2  A    between atoms: C_4  and  C_5
REMARK    3  A    between atoms: C_5  and  C_6
REMARK    4  A    between atoms: C_17  and  S_18
REMARK    5  A    between atoms: S_18  and  C_19
REMARK    6  A    between atoms: C_19  and  C_20
REMARK    7  A    between atoms: C_23  and  C_24
REMARK                            x       y       z     vdW  Elec       q    Type
REMARK                         _______ _______ _______ _____ _____    ______ ____
ROOT
ATOM      1  C   UNL     1      -1.079  -0.332   2.676  0.00  0.00    +0.000 C 
ATOM      2  N   UNL     1      -0.550   0.491   1.609  0.00  0.00    +0.000 N 
ATOM      3  C   UNL     1      -1.253   0.982   0.611  0.00  0.00    +0.000 A 
ATOM      4  N   UNL     1      -0.406   1.684  -0.178  0.00  0.00    +0.000 NA
ATOM      5  N   UNL     1       0.822   1.613   0.350  0.00  0.00    +0.000 NA
ATOM      6  C   UNL     1       0.753   0.883   1.452  0.00  0.00    +0.000 A 
ENDROOT
BRANCH   3   7
ATOM      7  C   UNL     1      -2.700   0.869   0.364  0.00  0.00    +0.000 C 
BRANCH   7   8
ATOM      8  C   UNL     1      -3.023  -0.358  -0.474  0.00  0.00    +0.000 C 
BRANCH   8   9
ATOM      9  C   UNL     1      -4.532  -0.364  -0.643  0.00  0.00    +0.000 A 
ATOM     10  N   UNL     1      -5.248   0.216  -1.624  0.00  0.00    +0.000 NA
ATOM     11  C   UNL     1      -6.570  -0.004  -1.374  0.00  0.00    +0.000 A 
ATOM     12  C   UNL     1      -7.747   0.343  -2.016  0.00  0.00    +0.000 A 
ATOM     13  C   UNL     1      -8.972  -0.045  -1.487  0.00  0.00    +0.000 A 
ATOM     14  C   UNL     1      -9.041  -0.791  -0.308  0.00  0.00    +0.000 A 
ATOM     15  C   UNL     1      -7.853  -1.123   0.305  0.00  0.00    +0.000 A 
ATOM     16  C   UNL     1      -6.629  -0.727  -0.227  0.00  0.00    +0.000 A 
ATOM     17  N   UNL     1      -5.366  -0.949   0.219  0.00  0.00    +0.000 NA
ENDBRANCH   8   9
ENDBRANCH   7   8
ENDBRANCH   3   7
BRANCH   6  18
ATOM     18  S   UNL     1       1.966   0.417   2.639  0.00  0.00    +0.000 S 
BRANCH  18  19
ATOM     19  C   UNL     1       3.571   0.980   2.504  0.00  0.00    +0.000 C 
BRANCH  19  20
ATOM     20  C   UNL     1       4.509   0.583   1.448  0.00  0.00    +0.000 A 
ATOM     21  C   UNL     1       4.684   1.267   0.277  0.00  0.00    +0.000 A 
ATOM     22  C   UNL     1       5.613   0.934  -0.712  0.00  0.00    +0.000 A 
ATOM     23  C   UNL     1       6.432  -0.170  -0.518  0.00  0.00    +0.000 A 
ATOM     24  C   UNL     1       6.260  -0.856   0.649  0.00  0.00    +0.000 A 
ATOM     25  C   UNL     1       5.349  -0.541   1.632  0.00  0.00    +0.000 A 
BRANCH  23  26
ATOM     26  C   UNL     1       7.458  -0.552  -1.531  0.00  0.00    +0.000 C 
ATOM     27  C   UNL     1       8.541   0.482  -1.640  0.00  0.00    +0.000 C 
ATOM     28  C   UNL     1       6.859  -0.840  -2.881  0.00  0.00    +0.000 C 
ATOM     29  C   UNL     1       8.150  -1.849  -1.121  0.00  0.00    +0.000 C 
ENDBRANCH  23  26
ENDBRANCH  19  20
ENDBRANCH  18  19
ENDBRANCH   6  18
TORSDOF 7
