REMARK  Name = 
REMARK  7 active torsions:
REMARK  status: ('A' for Active; 'I' for Inactive)
REMARK    1  A    between atoms: C_2  and  O_3
REMARK    2  A    between atoms: O_3  and  C_4
REMARK    3  A    between atoms: C_7  and  N_8
REMARK    4  A    between atoms: C_9  and  C_11
REMARK    5  A    between atoms: C_13  and  C_14
REMARK    6  A    between atoms: C_17  and  O_18
REMARK    7  A    between atoms: O_18  and  C_19
REMARK                            x       y       z     vdW  Elec       q    Type
REMARK                         _______ _______ _______ _____ _____    ______ ____
ROOT
ATOM      1  C   UNL     1      -0.200  -0.211   0.399  0.00  0.00    +0.000 A 
ATOM      2  C   UNL     1      -1.283  -0.015  -0.413  0.00  0.00    +0.000 A 
ATOM      3  C   UNL     1      -2.477  -0.597  -0.041  0.00  0.00    +0.000 A 
ATOM      4  N   UNL     1      -2.566  -1.328   1.080  0.00  0.00    +0.000 NA
ATOM      5  C   UNL     1      -1.529  -1.544   1.901  0.00  0.00    +0.000 A 
ATOM      6  C   UNL     1      -1.651  -2.305   3.054  0.00  0.00    +0.000 A 
ATOM      7  C   UNL     1      -0.554  -2.492   3.857  0.00  0.00    +0.000 A 
ATOM      8  C   UNL     1       0.659  -1.926   3.518  0.00  0.00    +0.000 A 
ATOM      9  C   UNL     1       0.790  -1.169   2.376  0.00  0.00    +0.000 A 
ATOM     10  C   UNL     1      -0.322  -0.975   1.555  0.00  0.00    +0.000 A 
ENDROOT
BRANCH   3  11
ATOM     11  C   UNL     1      -3.666  -0.411  -0.883  0.00  0.00    +0.000 A 
ATOM     12  C   UNL     1      -3.635   0.327  -2.040  0.00  0.00    +0.000 A 
ATOM     13  C   UNL     1      -4.782   0.476  -2.806  0.00  0.00    +0.000 A 
ATOM     14  C   UNL     1      -5.983  -0.099  -2.448  0.00  0.00    +0.000 A 
ATOM     15  C   UNL     1      -6.002  -0.838  -1.283  0.00  0.00    +0.000 A 
ATOM     16  C   UNL     1      -4.862  -0.988  -0.519  0.00  0.00    +0.000 A 
BRANCH  14  17
ATOM     17  O   UNL     1      -7.144   0.051  -3.221  0.00  0.00    +0.000 OA
BRANCH  17  18
ATOM     18  C   UNL     1      -7.080   0.813  -4.402  0.00  0.00    +0.000 C 
ATOM     19  C   UNL     1      -6.043   0.133  -5.302  0.00  0.00    +0.000 C 
ENDBRANCH  17  18
ENDBRANCH  14  17
ENDBRANCH   3  11
BRANCH   1  21
ATOM     20  N   UNL     1       2.233   0.150   0.948  0.00  0.00    +0.000 NA
ATOM     21  C   UNL     1       1.123   0.346   0.123  0.00  0.00    +0.000 C 
ATOM     22  O   UNL     1       1.244   1.038  -0.917  0.00  0.00    +0.000 OA
BRANCH  20  26
ATOM     23  C   UNL     1       6.145   1.663   0.352  0.00  0.00    +0.000 A 
ATOM     24  C   UNL     1       5.826   0.885   1.439  0.00  0.00    +0.000 A 
ATOM     25  C   UNL     1       4.529   0.394   1.620  0.00  0.00    +0.000 A 
ATOM     26  C   UNL     1       3.532   0.677   0.710  0.00  0.00    +0.000 A 
ATOM     27  C   UNL     1       3.872   1.456  -0.370  0.00  0.00    +0.000 A 
ATOM     28  C   UNL     1       5.154   1.948  -0.559  0.00  0.00    +0.000 A 
BRANCH  23  29
ATOM     29  O   UNL     1       7.426   2.175   0.129  0.00  0.00    +0.000 OA
BRANCH  29  31
ATOM     30  C   UNL     1       8.748   0.443   1.123  0.00  0.00    +0.000 C 
ATOM     31  C   UNL     1       8.496   1.924   1.021  0.00  0.00    +0.000 C 
ENDBRANCH  29  31
ENDBRANCH  23  29
ENDBRANCH  20  26
ENDBRANCH   1  21
TORSDOF 7
