REMARK  Name = 
REMARK  8 active torsions:
REMARK  status: ('A' for Active; 'I' for Inactive)
REMARK    1  A    between atoms: C_2  and  O_3
REMARK    2  A    between atoms: O_3  and  C_4
REMARK    3  A    between atoms: C_7  and  N_8
REMARK    4  A    between atoms: C_11  and  C_12
REMARK    5  A    between atoms: C_12  and  O_14
REMARK    6  A    between atoms: O_14  and  C_15
REMARK    7  A    between atoms: C_15  and  C_16
REMARK    8  A    between atoms: C_16  and  C_18
REMARK                            x       y       z     vdW  Elec       q    Type
REMARK                         _______ _______ _______ _____ _____    ______ ____
ROOT
ATOM      1  N   UNL     1       0.847   0.597   0.041  0.00  0.00    +0.000 N 
ATOM      2  C   UNL     1      -0.219   1.402   0.201  0.00  0.00    +0.000 A 
ATOM      3  N   UNL     1      -0.149   2.824   0.128  0.00  0.00    +0.000 NA
ATOM      4  C   UNL     1      -1.376   0.699   0.442  0.00  0.00    +0.000 A 
ATOM      5  C   UNL     1      -0.984  -0.637   0.427  0.00  0.00    +0.000 A 
ATOM      6  N   UNL     1      -1.699  -1.748   0.605  0.00  0.00    +0.000 NA
ATOM      7  C   UNL     1      -1.042  -2.941   0.536  0.00  0.00    +0.000 A 
ATOM      8  C   UNL     1      -1.741  -4.131   0.714  0.00  0.00    +0.000 A 
ATOM      9  C   UNL     1      -1.091  -5.338   0.647  0.00  0.00    +0.000 A 
ATOM     10  C   UNL     1       0.251  -5.361   0.403  0.00  0.00    +0.000 A 
ATOM     11  C   UNL     1       0.937  -4.185   0.228  0.00  0.00    +0.000 A 
ATOM     12  C   UNL     1       0.311  -2.957   0.290  0.00  0.00    +0.000 A 
ATOM     13  N   UNL     1       1.036  -1.810   0.109  0.00  0.00    +0.000 NA
ATOM     14  C   UNL     1       0.372  -0.649   0.180  0.00  0.00    +0.000 A 
ENDROOT
BRANCH   1  18
ATOM     15  C   UNL     1       4.803   1.706  -0.846  0.00  0.00    +0.000 A 
ATOM     16  C   UNL     1       4.484   1.380   0.453  0.00  0.00    +0.000 A 
ATOM     17  C   UNL     1       3.179   1.018   0.729  0.00  0.00    +0.000 A 
ATOM     18  C   UNL     1       2.191   0.966  -0.220  0.00  0.00    +0.000 A 
ATOM     19  C   UNL     1       2.530   1.295  -1.509  0.00  0.00    +0.000 A 
ATOM     20  C   UNL     1       3.837   1.666  -1.824  0.00  0.00    +0.000 A 
BRANCH  15  21
ATOM     21  O   UNL     1       6.106   2.086  -1.212  0.00  0.00    +0.000 OA
BRANCH  21  23
ATOM     22  C   UNL     1       7.294   0.770   0.385  0.00  0.00    +0.000 C 
ATOM     23  C   UNL     1       7.124   2.138  -0.230  0.00  0.00    +0.000 C 
ENDBRANCH  21  23
ENDBRANCH  15  21
ENDBRANCH   1  18
BRANCH   4  24
ATOM     24  C   UNL     1      -2.733   1.232   0.666  0.00  0.00    +0.000 C 
ATOM     25  O   UNL     1      -2.866   2.475   0.638  0.00  0.00    +0.000 OA
BRANCH  24  26
ATOM     26  O   UNL     1      -3.823   0.454   0.898  0.00  0.00    +0.000 OA
BRANCH  26  27
ATOM     27  C   UNL     1      -5.089   0.689   1.106  0.00  0.00    +0.000 C 
BRANCH  27  28
ATOM     28  C   UNL     1      -6.007   1.290  -0.054  0.00  0.00    +0.000 C 
ATOM     29  C   UNL     1      -5.753   0.003  -1.086  0.00  0.00    +0.000 C 
BRANCH  28  30
ATOM     30  C   UNL     1      -4.957   2.231  -0.860  0.00  0.00    +0.000 C 
ATOM     31  C   UNL     1      -5.772   2.837  -1.984  0.00  0.00    +0.000 C 
ENDBRANCH  28  30
ENDBRANCH  27  28
ENDBRANCH  26  27
ENDBRANCH  24  26
ENDBRANCH   4  24
TORSDOF 8
