REMARK  Name = 
REMARK  11 active torsions:
REMARK  status: ('A' for Active; 'I' for Inactive)
REMARK    1  A    between atoms: O_2  and  C_3
REMARK    2  A    between atoms: C_6  and  C_7
REMARK    3  A    between atoms: C_7  and  C_8
REMARK    4  A    between atoms: C_7  and  C_10
REMARK    5  A    between atoms: C_7  and  C_29
REMARK    6  A    between atoms: C_10  and  C_11
REMARK    7  A    between atoms: C_11  and  C_12
REMARK    8  A    between atoms: C_12  and  N_13
REMARK    9  A    between atoms: N_13  and  C_14
REMARK   10  A    between atoms: C_14  and  C_15
REMARK   11  A    between atoms: C_33  and  O_34
REMARK                            x       y       z     vdW  Elec       q    Type
REMARK                         _______ _______ _______ _____ _____    ______ ____
ROOT
ATOM      1  C   UNL     1       0.141  -2.548  -0.283  0.00  0.00    +0.000 C 
ENDROOT
BRANCH   1   2
ATOM      2  C   UNL     1       1.071  -1.549   0.458  0.00  0.00    +0.000 C 
BRANCH   2   3
ATOM      3  C   UNL     1       2.266  -1.431  -0.409  0.00  0.00    +0.000 C 
BRANCH   3   7
ATOM      4  C   UNL     1       5.547   1.049   0.736  0.00  0.00    +0.000 A 
ATOM      5  C   UNL     1       5.673  -0.295   0.716  0.00  0.00    +0.000 A 
ATOM      6  C   UNL     1       4.614  -1.135   0.366  0.00  0.00    +0.000 A 
ATOM      7  C   UNL     1       3.373  -0.575   0.023  0.00  0.00    +0.000 A 
ATOM      8  C   UNL     1       3.290   0.800   0.062  0.00  0.00    +0.000 A 
ATOM      9  C   UNL     1       4.317   1.645   0.403  0.00  0.00    +0.000 A 
BRANCH   4  11
ATOM     10  C   UNL     1       7.834   1.290   1.468  0.00  0.00    +0.000 C 
ATOM     11  O   UNL     1       6.594   1.916   1.067  0.00  0.00    +0.000 OA
ENDBRANCH   4  11
BRANCH   9  12
ATOM     12  O   UNL     1       4.212   3.028   0.441  0.00  0.00    +0.000 OA
ATOM     13  C   UNL     1       2.982   3.656   0.125  0.00  0.00    +0.000 C 
ENDBRANCH   9  12
ENDBRANCH   3   7
BRANCH   3  14
ATOM     14  C   UNL     1       1.822  -0.919  -1.799  0.00  0.00    +0.000 C 
ATOM     15  C   UNL     1       3.108  -1.109  -2.649  0.00  0.00    +0.000 C 
ATOM     16  C   UNL     1       1.726   0.608  -1.649  0.00  0.00    +0.000 C 
ENDBRANCH   3  14
BRANCH   3  17
ATOM     17  C   UNL     1       2.779  -2.817  -0.623  0.00  0.00    +0.000 C 
ATOM     18  N   UNL     1       3.175  -3.876  -0.794  0.00  0.00    +0.000 NA
ENDBRANCH   3  17
ENDBRANCH   2   3
ENDBRANCH   1   2
BRANCH   1  19
ATOM     19  C   UNL     1      -0.277  -1.982  -1.615  0.00  0.00    +0.000 C 
BRANCH  19  20
ATOM     20  N   UNL     1      -1.139  -0.803  -1.287  0.00  0.00    +0.000 NA
BRANCH  20  21
ATOM     21  C   UNL     1      -2.343  -1.462  -0.764  0.00  0.00    +0.000 C 
BRANCH  21  22
ATOM     22  C   UNL     1      -3.337  -0.441  -0.414  0.00  0.00    +0.000 A 
ATOM     23  C   UNL     1      -4.584  -0.889   0.072  0.00  0.00    +0.000 A 
ATOM     24  C   UNL     1      -4.748  -2.252   0.138  0.00  0.00    +0.000 A 
ATOM     25  C   UNL     1      -5.984  -2.766   0.585  0.00  0.00    +0.000 A 
ATOM     26  C   UNL     1      -6.932  -1.865   0.927  0.00  0.00    +0.000 A 
ATOM     27  C   UNL     1      -6.766  -0.501   0.863  0.00  0.00    +0.000 A 
ATOM     28  C   UNL     1      -5.543   0.006   0.417  0.00  0.00    +0.000 A 
ATOM     29  C   UNL     1      -5.325   1.379   0.303  0.00  0.00    +0.000 A 
ATOM     30  C   UNL     1      -4.103   1.853  -0.175  0.00  0.00    +0.000 A 
ATOM     31  C   UNL     1      -3.916   3.230  -0.290  0.00  0.00    +0.000 A 
ATOM     32  C   UNL     1      -2.687   3.672  -0.786  0.00  0.00    +0.000 A 
ATOM     33  C   UNL     1      -1.756   2.757  -1.119  0.00  0.00    +0.000 A 
ATOM     34  C   UNL     1      -1.929   1.407  -1.009  0.00  0.00    +0.000 A 
ATOM     35  C   UNL     1      -3.156   0.919  -0.515  0.00  0.00    +0.000 A 
ENDBRANCH  21  22
ENDBRANCH  20  21
ENDBRANCH  19  20
ENDBRANCH   1  19
TORSDOF 11
