REMARK  Name = 
REMARK  7 active torsions:
REMARK  status: ('A' for Active; 'I' for Inactive)
REMARK    1  A    between atoms: O_2  and  C_3
REMARK    2  A    between atoms: C_5  and  C_6
REMARK    3  A    between atoms: C_16  and  O_17
REMARK    4  A    between atoms: O_17  and  C_18
REMARK    5  A    between atoms: C_18  and  C_19
REMARK    6  A    between atoms: C_28  and  O_29
REMARK    7  A    between atoms: C_31  and  O_32
REMARK                            x       y       z     vdW  Elec       q    Type
REMARK                         _______ _______ _______ _____ _____    ______ ____
ROOT
ATOM      1  C   UNL     1      -2.497  -0.065  -1.998  0.00  0.00    +0.000 C 
ATOM      2  N   UNL     1      -2.456  -1.597  -2.338  0.00  0.00    +0.000 NA
ATOM      3  C   UNL     1      -2.141  -2.374  -1.280  0.00  0.00    +0.000 C 
ATOM      4  C   UNL     1      -0.732  -2.355  -0.761  0.00  0.00    +0.000 C 
ATOM      5  C   UNL     1      -0.308  -0.933  -0.983  0.00  0.00    +0.000 A 
ATOM      6  C   UNL     1      -0.995   0.055  -1.490  0.00  0.00    +0.000 A 
ATOM      7  N   UNL     1      -0.246   1.172  -1.515  0.00  0.00    +0.000 NA
ATOM      8  C   UNL     1       0.980   0.907  -1.004  0.00  0.00    +0.000 A 
ATOM      9  C   UNL     1       2.130   1.641  -0.784  0.00  0.00    +0.000 A 
ATOM     10  C   UNL     1       3.196   0.985  -0.229  0.00  0.00    +0.000 A 
ATOM     11  C   UNL     1       3.237  -0.341   0.135  0.00  0.00    +0.000 A 
ATOM     12  C   UNL     1       2.083  -1.042  -0.096  0.00  0.00    +0.000 A 
ATOM     13  C   UNL     1       0.953  -0.430  -0.662  0.00  0.00    +0.000 A 
ENDROOT
BRANCH   1  16
ATOM     14  C   UNL     1      -3.573  -0.914   1.647  0.00  0.00    +0.000 A 
ATOM     15  C   UNL     1      -2.937  -0.911   0.419  0.00  0.00    +0.000 A 
ATOM     16  C   UNL     1      -3.217  -0.084  -0.579  0.00  0.00    +0.000 A 
ATOM     17  C   UNL     1      -4.223   0.861  -0.401  0.00  0.00    +0.000 A 
ATOM     18  C   UNL     1      -4.896   0.905   0.810  0.00  0.00    +0.000 A 
ATOM     19  C   UNL     1      -4.568   0.010   1.841  0.00  0.00    +0.000 A 
BRANCH  14  21
ATOM     20  C   UNL     1      -2.367  -2.781   2.799  0.00  0.00    +0.000 C 
ATOM     21  O   UNL     1      -3.269  -1.780   2.671  0.00  0.00    +0.000 OA
ENDBRANCH  14  21
BRANCH  18  22
ATOM     22  O   UNL     1      -5.905   1.839   1.014  0.00  0.00    +0.000 OA
ATOM     23  C   UNL     1      -6.217   2.727  -0.039  0.00  0.00    +0.000 C 
ENDBRANCH  18  22
BRANCH  19  24
ATOM     24  O   UNL     1      -5.294   0.126   3.022  0.00  0.00    +0.000 OA
ATOM     25  C   UNL     1      -6.487  -0.565   3.282  0.00  0.00    +0.000 C 
ENDBRANCH  19  24
ENDBRANCH   1  16
BRANCH  11  26
ATOM     26  O   UNL     1       4.389  -0.921   0.701  0.00  0.00    +0.000 OA
BRANCH  26  27
ATOM     27  C   UNL     1       5.553  -0.133   0.910  0.00  0.00    +0.000 C 
BRANCH  27  28
ATOM     28  C   UNL     1       6.060   0.412  -0.359  0.00  0.00    +0.000 A 
ATOM     29  C   UNL     1       5.576   0.154  -1.613  0.00  0.00    +0.000 A 
ATOM     30  C   UNL     1       6.127   0.721  -2.749  0.00  0.00    +0.000 A 
ATOM     31  C   UNL     1       7.206   1.582  -2.637  0.00  0.00    +0.000 A 
ATOM     32  C   UNL     1       7.696   1.847  -1.402  0.00  0.00    +0.000 A 
ATOM     33  C   UNL     1       7.146   1.282  -0.280  0.00  0.00    +0.000 A 
ENDBRANCH  27  28
ENDBRANCH  26  27
ENDBRANCH  11  26
TORSDOF 7
