REMARK  Name = 
REMARK  7 active torsions:
REMARK  status: ('A' for Active; 'I' for Inactive)
REMARK    1  A    between atoms: C_5  and  C_6
REMARK    2  A    between atoms: N_8  and  C_9
REMARK    3  A    between atoms: C_9  and  C_16
REMARK    4  A    between atoms: C_10  and  C_11
REMARK    5  A    between atoms: N_18  and  C_19
REMARK    6  A    between atoms: C_19  and  C_20
REMARK    7  A    between atoms: C_20  and  C_21
REMARK                            x       y       z     vdW  Elec       q    Type
REMARK                         _______ _______ _______ _____ _____    ______ ____
ROOT
ATOM      1  C   UNL     1       0.685   1.332   0.529  0.00  0.00    +0.000 C 
ATOM      2  C   UNL     1       0.656   2.491   1.099  0.00  0.00    +0.000 C 
ENDROOT
BRANCH   2   3
ATOM      3  C   UNL     1      -0.477   3.270   1.526  0.00  0.00    +0.000 A 
ATOM      4  C   UNL     1      -1.594   2.913   2.254  0.00  0.00    +0.000 A 
ATOM      5  C   UNL     1      -2.384   4.009   2.401  0.00  0.00    +0.000 A 
ATOM      6  C   UNL     1      -1.730   5.029   1.754  0.00  0.00    +0.000 A 
ATOM      7  O   UNL     1      -0.629   4.573   1.257  0.00  0.00    +0.000 OA
ENDBRANCH   2   3
BRANCH   1  10
ATOM      8  C   UNL     1       2.450  -0.408   0.807  0.00  0.00    +0.000 C 
ATOM      9  O   UNL     1       1.629  -0.995   1.545  0.00  0.00    +0.000 OA
ATOM     10  N   UNL     1       2.018   0.826   0.234  0.00  0.00    +0.000 NA
BRANCH   8  15
ATOM     11  C   UNL     1       7.711  -2.560  -0.237  0.00  0.00    +0.000 C 
ATOM     12  C   UNL     1       6.358  -1.985   0.018  0.00  0.00    +0.000 A 
ATOM     13  C   UNL     1       5.961  -0.772  -0.508  0.00  0.00    +0.000 A 
ATOM     14  C   UNL     1       4.691  -0.262  -0.251  0.00  0.00    +0.000 A 
ATOM     15  C   UNL     1       3.783  -0.940   0.532  0.00  0.00    +0.000 A 
ATOM     16  C   UNL     1       4.174  -2.150   1.058  0.00  0.00    +0.000 A 
ATOM     17  C   UNL     1       5.449  -2.669   0.804  0.00  0.00    +0.000 A 
ATOM     18  C   UNL     1       5.882  -3.976   1.367  0.00  0.00    +0.000 C 
ENDBRANCH   8  15
ENDBRANCH   1  10
BRANCH   1  19
ATOM     19  C   UNL     1      -0.486   0.593   0.181  0.00  0.00    +0.000 C 
ATOM     20  O   UNL     1      -0.431  -0.541  -0.396  0.00  0.00    +0.000 OA
ATOM     21  N   UNL     1      -1.784   1.059   0.445  0.00  0.00    +0.000 NA
BRANCH  21  22
ATOM     22  C   UNL     1      -3.017   0.372   0.120  0.00  0.00    +0.000 C 
BRANCH  22  23
ATOM     23  C   UNL     1      -3.048   0.189  -1.383  0.00  0.00    +0.000 C 
BRANCH  23  24
ATOM     24  C   UNL     1      -4.265  -0.501  -1.830  0.00  0.00    +0.000 A 
ATOM     25  C   UNL     1      -5.276   0.210  -2.409  0.00  0.00    +0.000 A 
ATOM     26  C   UNL     1      -6.428  -0.405  -2.834  0.00  0.00    +0.000 A 
ATOM     27  C   UNL     1      -6.561  -1.748  -2.675  0.00  0.00    +0.000 A 
ATOM     28  C   UNL     1      -5.536  -2.485  -2.086  0.00  0.00    +0.000 A 
ATOM     29  C   UNL     1      -4.390  -1.853  -1.666  0.00  0.00    +0.000 A 
ATOM     30  F   UNL     1      -3.409  -2.616  -1.093  0.00  0.00    +0.000 F 
ENDBRANCH  23  24
ENDBRANCH  22  23
ENDBRANCH  21  22
ENDBRANCH   1  19
TORSDOF 7
