REMARK  Name = 
REMARK  8 active torsions:
REMARK  status: ('A' for Active; 'I' for Inactive)
REMARK    1  A    between atoms: C_2  and  O_3
REMARK    2  A    between atoms: O_3  and  C_4
REMARK    3  A    between atoms: C_9  and  O_10
REMARK    4  A    between atoms: O_10  and  C_11
REMARK    5  A    between atoms: C_13  and  C_14
REMARK    6  A    between atoms: C_19  and  O_20
REMARK    7  A    between atoms: O_20  and  C_21
REMARK    8  A    between atoms: C_21  and  C_22
REMARK                            x       y       z     vdW  Elec       q    Type
REMARK                         _______ _______ _______ _____ _____    ______ ____
ROOT
ATOM      1  C   UNL     1      -3.838   0.096  -0.685  0.00  0.00    +0.000 A 
ATOM      2  C   UNL     1      -2.588   0.285  -1.282  0.00  0.00    +0.000 A 
ATOM      3  C   UNL     1      -1.434  -0.080  -0.622  0.00  0.00    +0.000 A 
ATOM      4  C   UNL     1      -1.530  -0.607   0.577  0.00  0.00    +0.000 A 
ATOM      5  C   UNL     1      -2.717  -0.841   1.263  0.00  0.00    +0.000 A 
ATOM      6  C   UNL     1      -3.866  -0.464   0.575  0.00  0.00    +0.000 A 
ATOM      7  C   UNL     1      -0.217  -1.061   1.413  0.00  0.00    +0.000 C 
ATOM      8  N   UNL     1       0.452  -1.770   0.150  0.00  0.00    +0.000 NA
ATOM      9  C   UNL     1       0.813  -0.851  -0.809  0.00  0.00    +0.000 C 
ATOM     10  C   UNL     1      -0.153   0.147  -1.306  0.00  0.00    +0.000 C 
ENDROOT
BRANCH   7  11
ATOM     11  C   UNL     1       0.616   0.322   1.313  0.00  0.00    +0.000 A 
ATOM     12  C   UNL     1      -0.083   1.475   1.329  0.00  0.00    +0.000 A 
ATOM     13  C   UNL     1       0.601   2.670   1.234  0.00  0.00    +0.000 A 
ATOM     14  C   UNL     1       1.990   2.634   1.125  0.00  0.00    +0.000 A 
ATOM     15  C   UNL     1       2.663   1.434   1.112  0.00  0.00    +0.000 A 
ATOM     16  C   UNL     1       1.958   0.230   1.210  0.00  0.00    +0.000 A 
BRANCH  16  17
ATOM     17  O   UNL     1       2.610  -0.987   1.203  0.00  0.00    +0.000 OA
BRANCH  17  18
ATOM     18  C   UNL     1       3.969  -1.221   1.102  0.00  0.00    +0.000 C 
BRANCH  18  19
ATOM     19  C   UNL     1       4.504  -0.677  -0.169  0.00  0.00    +0.000 A 
ATOM     20  C   UNL     1       4.431  -1.379  -1.357  0.00  0.00    +0.000 A 
ATOM     21  C   UNL     1       4.955  -0.811  -2.500  0.00  0.00    +0.000 A 
ATOM     22  C   UNL     1       5.545   0.439  -2.468  0.00  0.00    +0.000 A 
ATOM     23  C   UNL     1       5.619   1.143  -1.284  0.00  0.00    +0.000 A 
ATOM     24  C   UNL     1       5.089   0.558  -0.149  0.00  0.00    +0.000 A 
ENDBRANCH  18  19
ENDBRANCH  17  18
ENDBRANCH  16  17
ENDBRANCH   7  11
BRANCH   1  25
ATOM     25  O   UNL     1      -5.021   0.450  -1.318  0.00  0.00    +0.000 OA
BRANCH  25  27
ATOM     26  C   UNL     1      -4.285   2.329  -2.645  0.00  0.00    +0.000 C 
ATOM     27  C   UNL     1      -5.044   1.020  -2.594  0.00  0.00    +0.000 C 
ENDBRANCH  25  27
ENDBRANCH   1  25
BRANCH   6  28
ATOM     28  O   UNL     1      -5.099  -0.653   1.170  0.00  0.00    +0.000 OA
BRANCH  28  29
ATOM     29  C   UNL     1      -5.250  -1.218   2.461  0.00  0.00    +0.000 C 
ATOM     30  C   UNL     1      -4.689  -2.612   2.554  0.00  0.00    +0.000 C 
ENDBRANCH  28  29
ENDBRANCH   6  28
TORSDOF 8
