REMARK  Name = 
REMARK  10 active torsions:
REMARK  status: ('A' for Active; 'I' for Inactive)
REMARK    1  A    between atoms: C_4  and  C_5
REMARK    2  A    between atoms: C_5  and  C_7
REMARK    3  A    between atoms: C_7  and  O_8
REMARK    4  A    between atoms: O_8  and  C_9
REMARK    5  A    between atoms: C_9  and  C_11
REMARK    6  A    between atoms: C_11  and  O_12
REMARK    7  A    between atoms: O_12  and  C_13
REMARK    8  A    between atoms: C_16  and  N_17
REMARK    9  A    between atoms: N_17  and  C_18
REMARK   10  A    between atoms: N_28  and  C_29
REMARK                            x       y       z     vdW  Elec       q    Type
REMARK                         _______ _______ _______ _____ _____    ______ ____
ROOT
ATOM      1  C   UNL     1      -1.429   1.101  -1.764  0.00  0.00    +0.000 C 
ATOM      2  O   UNL     1      -1.908   0.119  -2.396  0.00  0.00    +0.000 OA
ENDROOT
BRANCH   1   3
ATOM      3  O   UNL     1      -2.264   2.197  -1.592  0.00  0.00    +0.000 OA
BRANCH   3   4
ATOM      4  C   UNL     1      -3.566   2.299  -2.042  0.00  0.00    +0.000 C 
BRANCH   4   5
ATOM      5  C   UNL     1      -4.553   1.383  -1.482  0.00  0.00    +0.000 C 
ATOM      6  O   UNL     1      -5.706   1.425  -2.025  0.00  0.00    +0.000 OA
BRANCH   5  10
ATOM      7  C   UNL     1      -2.749  -1.297   2.440  0.00  0.00    +0.000 C 
ATOM      8  C   UNL     1      -3.599  -0.748   1.350  0.00  0.00    +0.000 A 
ATOM      9  C   UNL     1      -3.304   0.245   0.450  0.00  0.00    +0.000 A 
ATOM     10  C   UNL     1      -4.375   0.447  -0.395  0.00  0.00    +0.000 A 
ATOM     11  C   UNL     1      -5.325  -0.465   0.033  0.00  0.00    +0.000 A 
ATOM     12  C   UNL     1      -6.696  -0.667  -0.551  0.00  0.00    +0.000 C 
ATOM     13  N   UNL     1      -4.841  -1.158   1.065  0.00  0.00    +0.000 N 
BRANCH  13  14
ATOM     14  C   UNL     1      -5.560  -2.202   1.772  0.00  0.00    +0.000 C 
ATOM     15  C   UNL     1      -7.039  -2.242   1.704  0.00  0.00    +0.000 C 
ATOM     16  C   UNL     1      -6.367  -1.788   2.999  0.00  0.00    +0.000 C 
ENDBRANCH  13  14
ENDBRANCH   5  10
ENDBRANCH   4   5
ENDBRANCH   3   4
ENDBRANCH   1   3
BRANCH   1  17
ATOM     17  C   UNL     1      -0.032   1.085  -1.228  0.00  0.00    +0.000 C 
BRANCH  17  18
ATOM     18  O   UNL     1       0.541  -0.167  -1.572  0.00  0.00    +0.000 OA
BRANCH  18  19
ATOM     19  C   UNL     1       1.852  -0.442  -1.187  0.00  0.00    +0.000 A 
ATOM     20  C   UNL     1       2.617   0.462  -0.480  0.00  0.00    +0.000 A 
ATOM     21  C   UNL     1       3.911   0.165  -0.111  0.00  0.00    +0.000 A 
ATOM     22  C   UNL     1       4.497  -1.058  -0.438  0.00  0.00    +0.000 A 
ATOM     23  C   UNL     1       3.724  -1.946  -1.141  0.00  0.00    +0.000 A 
ATOM     24  C   UNL     1       2.433  -1.646  -1.507  0.00  0.00    +0.000 A 
BRANCH  22  25
ATOM     25  N   UNL     1       5.817  -1.367  -0.064  0.00  0.00    +0.000 NA
BRANCH  25  26
ATOM     26  C   UNL     1       6.582  -0.430   0.658  0.00  0.00    +0.000 A 
ATOM     27  C   UNL     1       7.869  -0.735   1.021  0.00  0.00    +0.000 A 
ATOM     28  C   UNL     1       8.600   0.195   1.727  0.00  0.00    +0.000 A 
ATOM     29  C   UNL     1       8.060   1.402   2.064  0.00  0.00    +0.000 A 
ATOM     30  C   UNL     1       6.776   1.700   1.699  0.00  0.00    +0.000 A 
ATOM     31  C   UNL     1       6.035   0.781   0.994  0.00  0.00    +0.000 A 
ENDBRANCH  25  26
ENDBRANCH  22  25
ENDBRANCH  18  19
ENDBRANCH  17  18
ENDBRANCH   1  17
TORSDOF 10
