REMARK  Name = 
REMARK  7 active torsions:
REMARK  status: ('A' for Active; 'I' for Inactive)
REMARK    1  A    between atoms: C_2  and  O_3
REMARK    2  A    between atoms: O_3  and  C_4
REMARK    3  A    between atoms: C_7  and  N_8
REMARK    4  A    between atoms: C_9  and  C_11
REMARK    5  A    between atoms: C_12  and  N_13
REMARK    6  A    between atoms: C_14  and  C_16
REMARK    7  A    between atoms: C_16  and  C_17
REMARK                            x       y       z     vdW  Elec       q    Type
REMARK                         _______ _______ _______ _____ _____    ______ ____
ROOT
ATOM      1  C   UNL     1       0.622  -1.740  -0.770  0.00  0.00    +0.000 A 
ATOM      2  C   UNL     1       1.714  -1.113  -1.277  0.00  0.00    +0.000 A 
ATOM      3  S   UNL     1       2.743  -2.477  -1.696  0.00  0.00    +0.000 S 
ATOM      4  C   UNL     1       1.743  -3.740  -1.197  0.00  0.00    +0.000 A 
ATOM      5  C   UNL     1       0.646  -3.111  -0.727  0.00  0.00    +0.000 A 
ATOM      6  C   UNL     1      -0.323  -4.189  -0.241  0.00  0.00    +0.000 C 
ATOM      7  C   UNL     1       0.103  -5.408  -1.023  0.00  0.00    +0.000 C 
ATOM      8  C   UNL     1       1.611  -5.255  -1.084  0.00  0.00    +0.000 C 
ENDROOT
BRANCH   1  10
ATOM      9  N   UNL     1      -1.760  -1.501   0.116  0.00  0.00    +0.000 NA
ATOM     10  C   UNL     1      -0.625  -0.934  -0.538  0.00  0.00    +0.000 C 
ATOM     11  O   UNL     1      -0.732   0.235  -0.895  0.00  0.00    +0.000 OA
BRANCH   9  15
ATOM     12  C   UNL     1      -5.194   0.927   0.474  0.00  0.00    +0.000 A 
ATOM     13  C   UNL     1      -4.093   1.291  -0.231  0.00  0.00    +0.000 A 
ATOM     14  C   UNL     1      -2.973   0.518  -0.340  0.00  0.00    +0.000 A 
ATOM     15  C   UNL     1      -2.939  -0.727   0.307  0.00  0.00    +0.000 A 
ATOM     16  C   UNL     1      -4.044  -1.065   1.003  0.00  0.00    +0.000 A 
ATOM     17  C   UNL     1      -5.187  -0.322   1.139  0.00  0.00    +0.000 A 
BRANCH  12  18
ATOM     18  O   UNL     1      -6.353   1.720   0.583  0.00  0.00    +0.000 OA
BRANCH  18  20
ATOM     19  C   UNL     1      -6.096   2.605  -1.617  0.00  0.00    +0.000 C 
ATOM     20  C   UNL     1      -6.290   2.958  -0.141  0.00  0.00    +0.000 C 
ENDBRANCH  18  20
ENDBRANCH  12  18
ENDBRANCH   9  15
ENDBRANCH   1  10
BRANCH   2  21
ATOM     21  N   UNL     1       2.218   0.207  -1.307  0.00  0.00    +0.000 NA
ATOM     22  C   UNL     1       1.991   1.231  -0.429  0.00  0.00    +0.000 C 
ATOM     23  O   UNL     1       1.321   1.178   0.594  0.00  0.00    +0.000 OA
BRANCH  22  24
ATOM     24  C   UNL     1       2.629   2.569  -0.736  0.00  0.00    +0.000 C 
BRANCH  24  25
ATOM     25  C   UNL     1       3.778   2.656   0.208  0.00  0.00    +0.000 A 
ATOM     26  C   UNL     1       4.999   2.153  -0.255  0.00  0.00    +0.000 A 
ATOM     27  C   UNL     1       6.097   2.195   0.567  0.00  0.00    +0.000 A 
ATOM     28  C   UNL     1       5.960   2.729   1.821  0.00  0.00    +0.000 A 
ATOM     29  C   UNL     1       4.779   3.225   2.293  0.00  0.00    +0.000 A 
ATOM     30  C   UNL     1       3.653   3.185   1.457  0.00  0.00    +0.000 A 
ENDBRANCH  24  25
ENDBRANCH  22  24
ENDBRANCH   2  21
TORSDOF 7
