REMARK  Name = 
REMARK  6 active torsions:
REMARK  status: ('A' for Active; 'I' for Inactive)
REMARK    1  A    between atoms: C_2  and  C_3
REMARK    2  A    between atoms: C_4  and  N_5
REMARK    3  A    between atoms: N_5  and  C_6
REMARK    4  A    between atoms: C_6  and  C_7
REMARK    5  A    between atoms: N_25  and  C_26
REMARK    6  A    between atoms: C_26  and  C_27
REMARK                            x       y       z     vdW  Elec       q    Type
REMARK                         _______ _______ _______ _____ _____    ______ ____
ROOT
ATOM      1  C   UNL     1      -0.856   1.674  -0.479  0.00  0.00    +0.000 A 
ATOM      2  C   UNL     1      -1.704   0.588  -0.497  0.00  0.00    +0.000 A 
ATOM      3  N   UNL     1      -1.215  -0.644  -0.691  0.00  0.00    +0.000 NA
ATOM      4  C   UNL     1       0.120  -0.866  -0.874  0.00  0.00    +0.000 A 
ATOM      5  N   UNL     1       0.616  -2.181  -1.078  0.00  0.00    +0.000 N 
ATOM      6  C   UNL     1      -0.278  -3.307  -1.095  0.00  0.00    +0.000 C 
ATOM      7  C   UNL     1       0.508  -4.529  -0.668  0.00  0.00    +0.000 C 
ATOM      8  C   UNL     1       1.548  -4.171   0.383  0.00  0.00    +0.000 C 
ATOM      9  C   UNL     1       2.584  -3.224  -0.132  0.00  0.00    +0.000 C 
ATOM     10  C   UNL     1       2.032  -2.388  -1.270  0.00  0.00    +0.000 C 
ATOM     11  C   UNL     1       1.002   0.209  -0.861  0.00  0.00    +0.000 A 
ATOM     12  C   UNL     1       0.501   1.471  -0.663  0.00  0.00    +0.000 A 
ATOM     13  C   UNL     1       1.439   2.640  -0.646  0.00  0.00    +0.000 C 
ATOM     14  C   UNL     1       2.775   2.117  -0.168  0.00  0.00    +0.000 C 
ATOM     15  N   UNL     1       3.234   1.099  -1.075  0.00  0.00    +0.000 NA
ATOM     16  C   UNL     1       2.438  -0.086  -1.065  0.00  0.00    +0.000 C 
ENDROOT
BRANCH   1  18
ATOM     17  N   UNL     1      -1.700   4.112  -0.119  0.00  0.00    +0.000 NA
ATOM     18  C   UNL     1      -1.314   3.018  -0.276  0.00  0.00    +0.000 C 
ENDBRANCH   1  18
BRANCH   2  19
ATOM     19  N   UNL     1      -3.089   0.846  -0.303  0.00  0.00    +0.000 NA
BRANCH  19  20
ATOM     20  C   UNL     1      -3.990  -0.288  -0.320  0.00  0.00    +0.000 C 
BRANCH  20  21
ATOM     21  C   UNL     1      -5.373   0.191  -0.102  0.00  0.00    +0.000 A 
ATOM     22  C   UNL     1      -5.723   1.492   0.082  0.00  0.00    +0.000 A 
ATOM     23  C   UNL     1      -7.004   1.926   0.283  0.00  0.00    +0.000 A 
ATOM     24  C   UNL     1      -8.008   0.959   0.296  0.00  0.00    +0.000 A 
ATOM     25  C   UNL     1      -7.683  -0.367   0.112  0.00  0.00    +0.000 A 
ATOM     26  C   UNL     1      -6.380  -0.769  -0.087  0.00  0.00    +0.000 A 
ENDBRANCH  20  21
ENDBRANCH  19  20
ENDBRANCH   2  19
BRANCH  15  27
ATOM     27  C   UNL     1       4.633   0.829  -0.957  0.00  0.00    +0.000 C 
BRANCH  27  28
ATOM     28  C   UNL     1       4.894   0.370   0.444  0.00  0.00    +0.000 A 
ATOM     29  C   UNL     1       6.189   0.044   0.807  0.00  0.00    +0.000 A 
ATOM     30  C   UNL     1       6.409  -0.378   2.106  0.00  0.00    +0.000 A 
ATOM     31  C   UNL     1       5.402  -0.486   3.042  0.00  0.00    +0.000 A 
ATOM     32  C   UNL     1       4.105  -0.160   2.679  0.00  0.00    +0.000 A 
ATOM     33  C   UNL     1       3.889   0.261   1.383  0.00  0.00    +0.000 A 
ENDBRANCH  27  28
ENDBRANCH  15  27
TORSDOF 6
