REMARK  Name = 
REMARK  6 active torsions:
REMARK  status: ('A' for Active; 'I' for Inactive)
REMARK    1  A    between atoms: O_2  and  C_3
REMARK    2  A    between atoms: C_6  and  C_7
REMARK    3  A    between atoms: C_17  and  O_18
REMARK    4  A    between atoms: O_18  and  C_19
REMARK    5  A    between atoms: C_19  and  C_20
REMARK    6  A    between atoms: C_29  and  O_30
REMARK                            x       y       z     vdW  Elec       q    Type
REMARK                         _______ _______ _______ _____ _____    ______ ____
ROOT
ATOM      1  C   UNL     1       3.003  -1.765  -1.243  0.00  0.00    +0.000 C 
ATOM      2  N   UNL     1       2.857  -2.608   0.070  0.00  0.00    +0.000 NA
ATOM      3  C   UNL     1       2.312  -1.883   1.104  0.00  0.00    +0.000 C 
ATOM      4  C   UNL     1       0.799  -1.798   0.992  0.00  0.00    +0.000 C 
ATOM      5  C   UNL     1       0.591  -1.336  -0.417  0.00  0.00    +0.000 A 
ATOM      6  C   UNL     1       1.506  -1.319  -1.352  0.00  0.00    +0.000 A 
ATOM      7  N   UNL     1       0.979  -0.850  -2.476  0.00  0.00    +0.000 NA
ATOM      8  C   UNL     1      -0.327  -0.532  -2.325  0.00  0.00    +0.000 A 
ATOM      9  C   UNL     1      -1.323  -0.023  -3.138  0.00  0.00    +0.000 A 
ATOM     10  C   UNL     1      -2.587   0.176  -2.616  0.00  0.00    +0.000 A 
ATOM     11  C   UNL     1      -2.891  -0.119  -1.303  0.00  0.00    +0.000 A 
ATOM     12  C   UNL     1      -1.868  -0.624  -0.531  0.00  0.00    +0.000 A 
ATOM     13  C   UNL     1      -0.590  -0.843  -0.994  0.00  0.00    +0.000 A 
ENDROOT
BRANCH   1  17
ATOM     14  C   UNL     1       4.771   1.725   0.676  0.00  0.00    +0.000 A 
ATOM     15  C   UNL     1       3.740   1.885  -0.224  0.00  0.00    +0.000 A 
ATOM     16  C   UNL     1       3.175   0.784  -0.832  0.00  0.00    +0.000 A 
ATOM     17  C   UNL     1       3.589  -0.438  -0.581  0.00  0.00    +0.000 A 
ATOM     18  C   UNL     1       4.614  -0.649   0.309  0.00  0.00    +0.000 A 
ATOM     19  C   UNL     1       5.193   0.436   0.927  0.00  0.00    +0.000 A 
BRANCH  14  21
ATOM     20  C   UNL     1       5.055   4.122   1.157  0.00  0.00    +0.000 C 
ATOM     21  O   UNL     1       5.395   2.775   1.330  0.00  0.00    +0.000 OA
ENDBRANCH  14  21
BRANCH  19  22
ATOM     22  O   UNL     1       6.245   0.284   1.847  0.00  0.00    +0.000 OA
ATOM     23  C   UNL     1       6.670  -1.040   2.097  0.00  0.00    +0.000 C 
ENDBRANCH  19  22
ENDBRANCH   1  17
BRANCH  11  24
ATOM     24  O   UNL     1      -4.149   0.070  -0.752  0.00  0.00    +0.000 OA
BRANCH  24  25
ATOM     25  C   UNL     1      -4.345  -0.267   0.607  0.00  0.00    +0.000 C 
BRANCH  25  26
ATOM     26  C   UNL     1      -5.756   0.023   0.953  0.00  0.00    +0.000 A 
ATOM     27  C   UNL     1      -6.116   1.256   1.431  0.00  0.00    +0.000 A 
ATOM     28  C   UNL     1      -7.438   1.567   1.768  0.00  0.00    +0.000 A 
ATOM     29  C   UNL     1      -8.373   0.585   1.602  0.00  0.00    +0.000 A 
ATOM     30  C   UNL     1      -8.029  -0.656   1.125  0.00  0.00    +0.000 A 
ATOM     31  C   UNL     1      -6.703  -0.963   0.788  0.00  0.00    +0.000 A 
ENDBRANCH  25  26
ENDBRANCH  24  25
ENDBRANCH  11  24
TORSDOF 6
