REMARK  Name = 
REMARK  7 active torsions:
REMARK  status: ('A' for Active; 'I' for Inactive)
REMARK    1  A    between atoms: S_2  and  N_4
REMARK    2  A    between atoms: S_2  and  C_19
REMARK    3  A    between atoms: N_4  and  C_5
REMARK    4  A    between atoms: C_9  and  C_10
REMARK    5  A    between atoms: C_10  and  C_11
REMARK    6  A    between atoms: C_11  and  C_12
REMARK    7  A    between atoms: C_22  and  C_23
REMARK                            x       y       z     vdW  Elec       q    Type
REMARK                         _______ _______ _______ _____ _____    ______ ____
ROOT
ATOM      1  O   UNL     1      -1.653   3.566  -0.682  0.00  0.00    +0.000 OA
ATOM      2  S   UNL     1      -0.997   2.272  -0.260  0.00  0.00    +0.000 S 
ATOM      3  O   UNL     1      -0.454   2.515   1.131  0.00  0.00    +0.000 OA
ENDROOT
BRANCH   2   4
ATOM      4  C   UNL     1      -2.153   0.974  -0.136  0.00  0.00    +0.000 A 
ATOM      5  C   UNL     1      -3.275   0.886  -0.931  0.00  0.00    +0.000 A 
ATOM      6  C   UNL     1      -4.160  -0.165  -0.793  0.00  0.00    +0.000 A 
ATOM      7  C   UNL     1      -3.975  -1.169   0.134  0.00  0.00    +0.000 A 
ATOM      8  C   UNL     1      -2.850  -1.077   0.930  0.00  0.00    +0.000 A 
ATOM      9  C   UNL     1      -1.957  -0.023   0.795  0.00  0.00    +0.000 A 
BRANCH   7  10
ATOM     10  C   UNL     1      -4.933  -2.297   0.278  0.00  0.00    +0.000 C 
ATOM     11  C   UNL     1      -5.770  -2.148   1.506  0.00  0.00    +0.000 C 
ATOM     12  C   UNL     1      -6.450  -0.791   1.517  0.00  0.00    +0.000 C 
ATOM     13  C   UNL     1      -6.913  -0.398   0.136  0.00  0.00    +0.000 C 
ATOM     14  C   UNL     1      -7.124  -1.618  -0.725  0.00  0.00    +0.000 C 
ATOM     15  C   UNL     1      -5.832  -2.374  -0.937  0.00  0.00    +0.000 C 
ENDBRANCH   7  10
ENDBRANCH   2   4
BRANCH   2  16
ATOM     16  N   UNL     1       0.262   1.942  -1.366  0.00  0.00    +0.000 NA
BRANCH  16  17
ATOM     17  C   UNL     1       1.120   0.833  -1.128  0.00  0.00    +0.000 A 
ATOM     18  C   UNL     1       1.403   0.019  -2.206  0.00  0.00    +0.000 A 
ATOM     19  C   UNL     1       2.225  -1.077  -2.065  0.00  0.00    +0.000 A 
ATOM     20  C   UNL     1       2.745  -1.325  -0.824  0.00  0.00    +0.000 A 
ATOM     21  C   UNL     1       2.508  -0.563   0.288  0.00  0.00    +0.000 A 
ATOM     22  C   UNL     1       1.665   0.540   0.089  0.00  0.00    +0.000 A 
BRANCH  21  23
ATOM     23  C   UNL     1       3.059  -0.819   1.622  0.00  0.00    +0.000 C 
BRANCH  23  24
ATOM     24  C   UNL     1       4.321  -0.125   1.950  0.00  0.00    +0.000 C 
BRANCH  24  25
ATOM     25  C   UNL     1       5.460  -0.471   1.100  0.00  0.00    +0.000 A 
ATOM     26  C   UNL     1       5.369  -1.413   0.107  0.00  0.00    +0.000 A 
ATOM     27  C   UNL     1       6.395  -1.778  -0.718  0.00  0.00    +0.000 A 
ATOM     28  C   UNL     1       7.612  -1.150  -0.535  0.00  0.00    +0.000 A 
ATOM     29  C   UNL     1       7.681  -0.215   0.460  0.00  0.00    +0.000 A 
ATOM     30  N   UNL     1       6.671   0.136   1.262  0.00  0.00    +0.000 NA
ENDBRANCH  24  25
ENDBRANCH  23  24
ENDBRANCH  21  23
ENDBRANCH  16  17
ENDBRANCH   2  16
TORSDOF 7
