REMARK  Name = 
REMARK  6 active torsions:
REMARK  status: ('A' for Active; 'I' for Inactive)
REMARK    1  A    between atoms: O_2  and  C_3
REMARK    2  A    between atoms: C_6  and  C_7
REMARK    3  A    between atoms: C_9  and  C_10
REMARK    4  A    between atoms: N_12  and  C_13
REMARK    5  A    between atoms: C_18  and  C_19
REMARK    6  A    between atoms: C_29  and  O_30
REMARK                            x       y       z     vdW  Elec       q    Type
REMARK                         _______ _______ _______ _____ _____    ______ ____
ROOT
ATOM      1  C   UNL     1       2.060  -0.232  -0.098  0.00  0.00    +0.000 A 
ATOM      2  C   UNL     1       0.970   0.543   0.191  0.00  0.00    +0.000 A 
ATOM      3  C   UNL     1      -0.344   0.076   0.149  0.00  0.00    +0.000 A 
ATOM      4  C   UNL     1      -0.531  -1.248  -0.207  0.00  0.00    +0.000 A 
ATOM      5  C   UNL     1      -1.784  -1.786  -0.271  0.00  0.00    +0.000 A 
ATOM      6  C   UNL     1      -1.929  -3.110  -0.628  0.00  0.00    +0.000 A 
ATOM      7  C   UNL     1      -0.831  -3.880  -0.917  0.00  0.00    +0.000 A 
ATOM      8  C   UNL     1       0.420  -3.350  -0.855  0.00  0.00    +0.000 A 
ATOM      9  C   UNL     1       0.584  -2.021  -0.498  0.00  0.00    +0.000 A 
ATOM     10  N   UNL     1       1.831  -1.512  -0.440  0.00  0.00    +0.000 NA
ENDROOT
BRANCH   1  14
ATOM     11  C   UNL     1       5.994   1.202   0.019  0.00  0.00    +0.000 A 
ATOM     12  C   UNL     1       4.950   2.060   0.348  0.00  0.00    +0.000 A 
ATOM     13  C   UNL     1       3.648   1.616   0.319  0.00  0.00    +0.000 A 
ATOM     14  C   UNL     1       3.408   0.314  -0.041  0.00  0.00    +0.000 A 
ATOM     15  C   UNL     1       4.451  -0.545  -0.370  0.00  0.00    +0.000 A 
ATOM     16  C   UNL     1       5.736  -0.092  -0.338  0.00  0.00    +0.000 A 
BRANCH  11  18
ATOM     17  C   UNL     1       7.619   2.947   0.402  0.00  0.00    +0.000 C 
ATOM     18  O   UNL     1       7.314   1.630   0.043  0.00  0.00    +0.000 OA
ENDBRANCH  11  18
BRANCH  15  19
ATOM     19  O   UNL     1       4.188  -1.870  -0.736  0.00  0.00    +0.000 OA
ATOM     20  C   UNL     1       5.277  -2.699  -1.059  0.00  0.00    +0.000 C 
ENDBRANCH  15  19
ENDBRANCH   1  14
BRANCH   3  21
ATOM     21  C   UNL     1      -1.463   0.947   0.460  0.00  0.00    +0.000 C 
ATOM     22  O   UNL     1      -1.274   2.126   0.835  0.00  0.00    +0.000 OA
ATOM     23  N   UNL     1      -2.768   0.460   0.338  0.00  0.00    +0.000 NA
BRANCH  23  24
ATOM     24  C   UNL     1      -3.942   1.164   0.599  0.00  0.00    +0.000 A 
ATOM     25  C   UNL     1      -3.889   2.462   1.044  0.00  0.00    +0.000 A 
ATOM     26  C   UNL     1      -5.033   3.191   1.327  0.00  0.00    +0.000 A 
ATOM     27  C   UNL     1      -6.250   2.604   1.159  0.00  0.00    +0.000 A 
ATOM     28  C   UNL     1      -6.345   1.322   0.721  0.00  0.00    +0.000 A 
ATOM     29  C   UNL     1      -5.176   0.591   0.436  0.00  0.00    +0.000 A 
BRANCH  29  30
ATOM     30  C   UNL     1      -5.306  -0.793  -0.050  0.00  0.00    +0.000 C 
ATOM     31  C   UNL     1      -6.773  -1.190   0.041  0.00  0.00    +0.000 C 
ATOM     32  C   UNL     1      -4.813  -0.924  -1.488  0.00  0.00    +0.000 C 
ENDBRANCH  29  30
ENDBRANCH  23  24
ENDBRANCH   3  21
TORSDOF 6
