REMARK  Name = 
REMARK  6 active torsions:
REMARK  status: ('A' for Active; 'I' for Inactive)
REMARK    1  A    between atoms: C_9  and  C_10
REMARK    2  A    between atoms: C_16  and  C_17
REMARK    3  A    between atoms: N_23  and  C_24
REMARK    4  A    between atoms: C_24  and  C_25
REMARK    5  A    between atoms: C_25  and  C_27
REMARK    6  A    between atoms: C_27  and  N_28
REMARK                            x       y       z     vdW  Elec       q    Type
REMARK                         _______ _______ _______ _____ _____    ______ ____
ROOT
ATOM      1  C   UNL     1      -2.631   5.017   0.014  0.00  0.00    +0.000 C 
ATOM      2  C   UNL     1      -1.841   3.774   0.132  0.00  0.00    +0.000 A 
ATOM      3  C   UNL     1      -0.497   3.807   0.344  0.00  0.00    +0.000 A 
ATOM      4  C   UNL     1       0.248   2.667   0.455  0.00  0.00    +0.000 A 
ATOM      5  C   UNL     1       1.667   2.828   0.731  0.00  0.00    +0.000 C 
ATOM      6  C   UNL     1      -0.299   1.397   0.360  0.00  0.00    +0.000 A 
ATOM      7  C   UNL     1      -1.666   1.369   0.145  0.00  0.00    +0.000 A 
ATOM      8  C   UNL     1      -2.416   2.523   0.034  0.00  0.00    +0.000 A 
ATOM      9  C   UNL     1      -2.046   0.044   0.098  0.00  0.00    +0.000 A 
ATOM     10  C   UNL     1      -0.924  -0.692   0.279  0.00  0.00    +0.000 A 
ATOM     11  N   UNL     1       0.146   0.145   0.437  0.00  0.00    +0.000 N 
ENDROOT
BRANCH   9  12
ATOM     12  C   UNL     1      -3.406  -0.449  -0.110  0.00  0.00    +0.000 A 
ATOM     13  C   UNL     1      -4.119  -0.161  -1.251  0.00  0.00    +0.000 A 
ATOM     14  C   UNL     1      -5.425  -0.650  -1.421  0.00  0.00    +0.000 A 
ATOM     15  C   UNL     1      -6.018  -1.424  -0.451  0.00  0.00    +0.000 A 
ATOM     16  C   UNL     1      -5.309  -1.712   0.688  0.00  0.00    +0.000 A 
ATOM     17  C   UNL     1      -4.010  -1.222   0.848  0.00  0.00    +0.000 A 
ENDBRANCH   9  12
BRANCH  10  18
ATOM     18  C   UNL     1      -0.821  -2.138   0.310  0.00  0.00    +0.000 A 
ATOM     19  C   UNL     1      -0.040  -2.754  -0.643  0.00  0.00    +0.000 A 
ATOM     20  C   UNL     1       0.105  -4.135  -0.674  0.00  0.00    +0.000 A 
ATOM     21  C   UNL     1      -0.536  -4.927   0.257  0.00  0.00    +0.000 A 
ATOM     22  C   UNL     1      -1.313  -4.295   1.203  0.00  0.00    +0.000 A 
ATOM     23  C   UNL     1      -1.461  -2.914   1.238  0.00  0.00    +0.000 A 
ENDBRANCH  10  18
BRANCH  11  24
ATOM     24  C   UNL     1       1.500  -0.277   0.685  0.00  0.00    +0.000 C 
BRANCH  24  25
ATOM     25  C   UNL     1       2.171  -0.711  -0.701  0.00  0.00    +0.000 C 
ATOM     26  O   UNL     1       2.110   0.553  -1.410  0.00  0.00    +0.000 OA
BRANCH  25  27
ATOM     27  C   UNL     1       3.683  -0.806  -0.336  0.00  0.00    +0.000 C 
BRANCH  27  28
ATOM     28  N   UNL     1       4.257   0.187   0.394  0.00  0.00    +0.000 NA
ATOM     29  C   UNL     1       4.439   1.434  -0.280  0.00  0.00    +0.000 C 
ATOM     30  C   UNL     1       5.643   1.478  -1.170  0.00  0.00    +0.000 C 
ATOM     31  C   UNL     1       6.840   1.440  -0.246  0.00  0.00    +0.000 C 
ATOM     32  C   UNL     1       6.544   0.790   1.051  0.00  0.00    +0.000 C 
ATOM     33  C   UNL     1       5.423  -0.184   1.068  0.00  0.00    +0.000 C 
ENDBRANCH  27  28
ENDBRANCH  25  27
ENDBRANCH  24  25
ENDBRANCH  11  24
TORSDOF 6
