REMARK  Name = 
REMARK  6 active torsions:
REMARK  status: ('A' for Active; 'I' for Inactive)
REMARK    1  A    between atoms: C_8  and  C_9
REMARK    2  A    between atoms: C_15  and  C_16
REMARK    3  A    between atoms: N_22  and  C_23
REMARK    4  A    between atoms: C_23  and  C_24
REMARK    5  A    between atoms: C_24  and  C_26
REMARK    6  A    between atoms: C_26  and  N_27
REMARK                            x       y       z     vdW  Elec       q    Type
REMARK                         _______ _______ _______ _____ _____    ______ ____
ROOT
ATOM      1  C   UNL     1      -0.138   4.394   3.213  0.00  0.00    +0.000 C 
ATOM      2  C   UNL     1       0.077   3.195   2.362  0.00  0.00    +0.000 A 
ATOM      3  C   UNL     1       1.358   2.726   2.100  0.00  0.00    +0.000 A 
ATOM      4  C   UNL     1       1.567   1.613   1.310  0.00  0.00    +0.000 A 
ATOM      5  C   UNL     1       0.523   0.926   0.755  0.00  0.00    +0.000 A 
ATOM      6  C   UNL     1      -0.764   1.403   1.023  0.00  0.00    +0.000 A 
ATOM      7  C   UNL     1      -0.977   2.512   1.809  0.00  0.00    +0.000 A 
ATOM      8  C   UNL     1      -1.644   0.538   0.353  0.00  0.00    +0.000 A 
ATOM      9  C   UNL     1      -0.888  -0.413  -0.286  0.00  0.00    +0.000 A 
ATOM     10  N   UNL     1       0.425  -0.144  -0.018  0.00  0.00    +0.000 N 
ENDROOT
BRANCH   8  11
ATOM     11  C   UNL     1      -3.076   0.649   0.357  0.00  0.00    +0.000 A 
ATOM     12  C   UNL     1      -3.890   0.845  -0.723  0.00  0.00    +0.000 A 
ATOM     13  C   UNL     1      -5.255   0.938  -0.602  0.00  0.00    +0.000 A 
ATOM     14  C   UNL     1      -5.885   0.837   0.619  0.00  0.00    +0.000 A 
ATOM     15  C   UNL     1      -5.086   0.636   1.741  0.00  0.00    +0.000 A 
ATOM     16  C   UNL     1      -3.745   0.554   1.555  0.00  0.00    +0.000 A 
ENDBRANCH   8  11
BRANCH   9  17
ATOM     17  C   UNL     1      -1.339  -1.507  -1.099  0.00  0.00    +0.000 A 
ATOM     18  C   UNL     1      -2.140  -2.541  -0.658  0.00  0.00    +0.000 A 
ATOM     19  C   UNL     1      -2.564  -3.585  -1.447  0.00  0.00    +0.000 A 
ATOM     20  C   UNL     1      -2.189  -3.647  -2.773  0.00  0.00    +0.000 A 
ATOM     21  C   UNL     1      -1.389  -2.640  -3.264  0.00  0.00    +0.000 A 
ATOM     22  C   UNL     1      -1.002  -1.637  -2.444  0.00  0.00    +0.000 A 
ENDBRANCH   9  17
BRANCH  10  23
ATOM     23  C   UNL     1       1.457  -0.986  -0.552  0.00  0.00    +0.000 C 
BRANCH  23  24
ATOM     24  C   UNL     1       1.875  -0.412  -2.009  0.00  0.00    +0.000 C 
ATOM     25  O   UNL     1       2.872  -1.554  -2.279  0.00  0.00    +0.000 OA
BRANCH  24  26
ATOM     26  C   UNL     1       3.106   0.542  -1.502  0.00  0.00    +0.000 C 
BRANCH  26  27
ATOM     27  N   UNL     1       3.776  -0.090  -0.427  0.00  0.00    +0.000 NA
ATOM     28  C   UNL     1       4.478  -1.298  -0.774  0.00  0.00    +0.000 C 
ATOM     29  C   UNL     1       5.694  -1.535   0.070  0.00  0.00    +0.000 C 
ATOM     30  C   UNL     1       5.356  -1.267   1.536  0.00  0.00    +0.000 C 
ATOM     31  C   UNL     1       4.809   0.142   1.701  0.00  0.00    +0.000 C 
ATOM     32  C   UNL     1       4.601   0.805   0.353  0.00  0.00    +0.000 C 
ENDBRANCH  26  27
ENDBRANCH  24  26
ENDBRANCH  23  24
ENDBRANCH  10  23
TORSDOF 6
