REMARK  Name = 
REMARK  9 active torsions:
REMARK  status: ('A' for Active; 'I' for Inactive)
REMARK    1  A    between atoms: C_2  and  O_3
REMARK    2  A    between atoms: O_3  and  C_4
REMARK    3  A    between atoms: C_4  and  C_6
REMARK    4  A    between atoms: C_7  and  C_8
REMARK    5  A    between atoms: C_8  and  S_9
REMARK    6  A    between atoms: S_9  and  C_10
REMARK    7  A    between atoms: N_16  and  C_17
REMARK    8  A    between atoms: C_28  and  C_29
REMARK    9  A    between atoms: C_29  and  N_30
REMARK                            x       y       z     vdW  Elec       q    Type
REMARK                         _______ _______ _______ _____ _____    ______ ____
ROOT
ATOM      1  C   UNL     1      -0.517  -0.603   0.143  0.00  0.00    +0.000 A 
ATOM      2  C   UNL     1       0.506   0.363   0.331  0.00  0.00    +0.000 A 
ATOM      3  N   UNL     1       0.161   1.419  -0.396  0.00  0.00    +0.000 N 
ATOM      4  C   UNL     1      -1.038   1.187  -1.067  0.00  0.00    +0.000 A 
ATOM      5  C   UNL     1      -1.799   1.848  -1.968  0.00  0.00    +0.000 A 
ATOM      6  C   UNL     1      -2.915   1.261  -2.552  0.00  0.00    +0.000 A 
ATOM      7  C   UNL     1      -3.246  -0.035  -2.168  0.00  0.00    +0.000 A 
ATOM      8  O   UNL     1      -4.376  -0.649  -2.758  0.00  0.00    +0.000 OA
ATOM      9  C   UNL     1      -2.557  -0.745  -1.264  0.00  0.00    +0.000 A 
ATOM     10  C   UNL     1      -1.424  -0.134  -0.686  0.00  0.00    +0.000 A 
ENDROOT
BRANCH   3  11
ATOM     11  C   UNL     1       0.645   2.732  -0.330  0.00  0.00    +0.000 A 
ATOM     12  C   UNL     1      -0.277   3.774  -0.058  0.00  0.00    +0.000 A 
ATOM     13  C   UNL     1      -0.024   5.042   0.165  0.00  0.00    +0.000 A 
ATOM     14  C   UNL     1       1.334   5.424   0.119  0.00  0.00    +0.000 A 
ATOM     15  C   UNL     1       2.305   4.492  -0.158  0.00  0.00    +0.000 A 
ATOM     16  C   UNL     1       1.954   3.177  -0.376  0.00  0.00    +0.000 A 
ENDBRANCH   3  11
BRANCH   1  17
ATOM     17  C   UNL     1      -0.554  -1.867   0.979  0.00  0.00    +0.000 C 
ATOM     18  O   UNL     1      -0.103  -2.886   0.728  0.00  0.00    +0.000 OA
BRANCH  17  19
ATOM     19  O   UNL     1      -1.219  -1.633   2.155  0.00  0.00    +0.000 OA
BRANCH  19  21
ATOM     20  C   UNL     1      -2.424  -0.049   3.336  0.00  0.00    +0.000 C 
ATOM     21  C   UNL     1      -1.812  -1.501   3.255  0.00  0.00    +0.000 C 
ENDBRANCH  19  21
ENDBRANCH  17  19
ENDBRANCH   1  17
BRANCH   2  22
ATOM     22  C   UNL     1       1.514   0.062   1.334  0.00  0.00    +0.000 C 
BRANCH  22  23
ATOM     23  S   UNL     1       3.177   0.684   1.119  0.00  0.00    +0.000 S 
BRANCH  23  24
ATOM     24  C   UNL     1       4.147  -0.676   0.367  0.00  0.00    +0.000 A 
ATOM     25  C   UNL     1       3.493  -1.921   0.217  0.00  0.00    +0.000 A 
ATOM     26  C   UNL     1       4.232  -3.005  -0.302  0.00  0.00    +0.000 A 
ATOM     27  C   UNL     1       5.528  -2.832  -0.646  0.00  0.00    +0.000 A 
ATOM     28  C   UNL     1       6.167  -1.656  -0.508  0.00  0.00    +0.000 A 
ATOM     29  C   UNL     1       5.436  -0.544   0.021  0.00  0.00    +0.000 A 
ENDBRANCH  23  24
ENDBRANCH  22  23
ENDBRANCH   2  22
BRANCH   9  30
ATOM     30  C   UNL     1      -2.884  -2.135  -0.932  0.00  0.00    +0.000 C 
BRANCH  30  31
ATOM     31  N   UNL     1      -4.188  -2.261  -0.204  0.00  0.00    +0.000 NA
ATOM     32  C   UNL     1      -4.209  -3.423   0.674  0.00  0.00    +0.000 C 
ATOM     33  C   UNL     1      -5.032  -2.907  -1.393  0.00  0.00    +0.000 C 
ENDBRANCH  30  31
ENDBRANCH   9  30
TORSDOF 9
