REMARK  Name = 
REMARK  7 active torsions:
REMARK  status: ('A' for Active; 'I' for Inactive)
REMARK    1  A    between atoms: C_5  and  N_6
REMARK    2  A    between atoms: N_6  and  C_7
REMARK    3  A    between atoms: C_8  and  S_9
REMARK    4  A    between atoms: S_9  and  C_10
REMARK    5  A    between atoms: N_18  and  C_19
REMARK    6  A    between atoms: C_19  and  C_20
REMARK    7  A    between atoms: C_20  and  C_21
REMARK                            x       y       z     vdW  Elec       q    Type
REMARK                         _______ _______ _______ _____ _____    ______ ____
ROOT
ATOM      1  C   UNL     1      -1.055  -0.750  -1.064  0.00  0.00    +0.000 C 
ATOM      2  C   UNL     1      -1.225   0.585  -1.134  0.00  0.00    +0.000 C 
ATOM      3  C   UNL     1       0.088   1.167  -0.939  0.00  0.00    +0.000 C 
ATOM      4  O   UNL     1       0.388   2.380  -0.929  0.00  0.00    +0.000 OA
ATOM      5  N   UNL     1       1.083   0.151  -0.746  0.00  0.00    +0.000 N 
ATOM      6  C   UNL     1       0.341  -1.056  -0.828  0.00  0.00    +0.000 C 
ATOM      7  O   UNL     1       0.845  -2.227  -0.710  0.00  0.00    +0.000 OA
ENDROOT
BRANCH   1   8
ATOM      8  N   UNL     1      -2.129  -1.685  -1.209  0.00  0.00    +0.000 NA
BRANCH   8  13
ATOM      9  C   UNL     1      -2.651  -5.752   2.817  0.00  0.00    +0.000 C 
ATOM     10  C   UNL     1      -2.501  -4.687   1.777  0.00  0.00    +0.000 A 
ATOM     11  C   UNL     1      -3.376  -4.614   0.713  0.00  0.00    +0.000 A 
ATOM     12  C   UNL     1      -3.256  -3.641  -0.254  0.00  0.00    +0.000 A 
ATOM     13  C   UNL     1      -2.249  -2.694  -0.200  0.00  0.00    +0.000 A 
ATOM     14  C   UNL     1      -1.382  -2.780   0.870  0.00  0.00    +0.000 A 
ATOM     15  C   UNL     1      -1.492  -3.747   1.842  0.00  0.00    +0.000 A 
ATOM     16  C   UNL     1      -0.559  -3.837   2.991  0.00  0.00    +0.000 C 
ENDBRANCH   8  13
ENDBRANCH   1   8
BRANCH   2  17
ATOM     17  S   UNL     1      -2.789   1.364  -1.412  0.00  0.00    +0.000 S 
BRANCH  17  18
ATOM     18  C   UNL     1      -2.792   3.098  -1.467  0.00  0.00    +0.000 A 
ATOM     19  C   UNL     1      -4.020   3.723  -1.686  0.00  0.00    +0.000 A 
ATOM     20  C   UNL     1      -4.154   5.069  -1.750  0.00  0.00    +0.000 A 
ATOM     21  C   UNL     1      -3.033   5.867  -1.593  0.00  0.00    +0.000 A 
ATOM     22  C   UNL     1      -1.811   5.256  -1.376  0.00  0.00    +0.000 A 
ATOM     23  C   UNL     1      -1.703   3.891  -1.315  0.00  0.00    +0.000 A 
ENDBRANCH  17  18
ENDBRANCH   2  17
BRANCH   5  24
ATOM     24  C   UNL     1       2.497   0.308  -0.521  0.00  0.00    +0.000 C 
BRANCH  24  25
ATOM     25  C   UNL     1       2.817   0.412   0.951  0.00  0.00    +0.000 C 
BRANCH  25  26
ATOM     26  C   UNL     1       4.293   0.572   1.076  0.00  0.00    +0.000 A 
ATOM     27  C   UNL     1       4.917   1.792   1.084  0.00  0.00    +0.000 A 
ATOM     28  C   UNL     1       6.277   1.969   1.198  0.00  0.00    +0.000 A 
ATOM     29  C   UNL     1       7.061   0.826   1.313  0.00  0.00    +0.000 A 
ATOM     30  C   UNL     1       6.467  -0.412   1.309  0.00  0.00    +0.000 A 
ATOM     31  C   UNL     1       5.104  -0.547   1.192  0.00  0.00    +0.000 A 
ENDBRANCH  25  26
ENDBRANCH  24  25
ENDBRANCH   5  24
TORSDOF 7
