REMARK  Name = 
REMARK  6 active torsions:
REMARK  status: ('A' for Active; 'I' for Inactive)
REMARK    1  A    between atoms: C_2  and  C_4
REMARK    2  A    between atoms: C_6  and  C_7
REMARK    3  A    between atoms: C_16  and  O_17
REMARK    4  A    between atoms: O_17  and  C_18
REMARK    5  A    between atoms: C_18  and  C_19
REMARK    6  A    between atoms: C_23  and  C_24
REMARK                            x       y       z     vdW  Elec       q    Type
REMARK                         _______ _______ _______ _____ _____    ______ ____
ROOT
ATOM      1  C   UNL     1      -2.989  -2.367  -0.376  0.00  0.00    +0.000 A 
ATOM      2  C   UNL     1      -3.889  -1.324  -0.592  0.00  0.00    +0.000 A 
ATOM      3  C   UNL     1      -3.667  -0.035  -0.159  0.00  0.00    +0.000 A 
ATOM      4  C   UNL     1      -2.487   0.217   0.517  0.00  0.00    +0.000 A 
ATOM      5  C   UNL     1      -2.232   1.503   0.961  0.00  0.00    +0.000 A 
ATOM      6  C   UNL     1      -1.057   1.755   1.634  0.00  0.00    +0.000 A 
ATOM      7  C   UNL     1      -0.109   0.758   1.888  0.00  0.00    +0.000 A 
ATOM      8  C   UNL     1      -0.355  -0.516   1.451  0.00  0.00    +0.000 A 
ATOM      9  C   UNL     1      -1.540  -0.775   0.769  0.00  0.00    +0.000 A 
ATOM     10  C   UNL     1      -1.836  -2.045   0.304  0.00  0.00    +0.000 A 
ENDROOT
BRANCH   3  11
ATOM     11  C   UNL     1      -4.677   1.024  -0.398  0.00  0.00    +0.000 A 
ATOM     12  C   UNL     1      -5.046   1.886   0.613  0.00  0.00    +0.000 A 
ATOM     13  C   UNL     1      -5.998   2.878   0.360  0.00  0.00    +0.000 A 
ATOM     14  C   UNL     1      -6.561   3.001  -0.878  0.00  0.00    +0.000 A 
ATOM     15  C   UNL     1      -6.189   2.139  -1.884  0.00  0.00    +0.000 A 
ATOM     16  C   UNL     1      -5.239   1.150  -1.626  0.00  0.00    +0.000 A 
ENDBRANCH   3  11
BRANCH   1  18
ATOM     17  C   UNL     1      -2.262  -4.779  -0.583  0.00  0.00    +0.000 C 
ATOM     18  C   UNL     1      -3.268  -3.721  -0.844  0.00  0.00    +0.000 C 
ATOM     19  O   UNL     1      -4.310  -3.987  -1.439  0.00  0.00    +0.000 OA
ENDBRANCH   1  18
BRANCH   7  20
ATOM     20  O   UNL     1       1.012   1.159   2.574  0.00  0.00    +0.000 OA
BRANCH  20  21
ATOM     21  C   UNL     1       2.101   0.420   2.976  0.00  0.00    +0.000 C 
BRANCH  21  22
ATOM     22  C   UNL     1       2.815  -0.177   1.838  0.00  0.00    +0.000 A 
ATOM     23  C   UNL     1       2.373  -1.325   1.238  0.00  0.00    +0.000 A 
ATOM     24  C   UNL     1       3.029  -1.933   0.177  0.00  0.00    +0.000 A 
ATOM     25  C   UNL     1       4.175  -1.339  -0.272  0.00  0.00    +0.000 A 
ATOM     26  C   UNL     1       4.685  -0.171   0.287  0.00  0.00    +0.000 A 
ATOM     27  C   UNL     1       3.985   0.388   1.336  0.00  0.00    +0.000 A 
BRANCH  26  28
ATOM     28  C   UNL     1       5.944   0.406  -0.255  0.00  0.00    +0.000 C 
ATOM     29  O   UNL     1       7.041   0.003   0.514  0.00  0.00    +0.000 OA
ATOM     30  C   UNL     1       5.863   1.900  -0.397  0.00  0.00    +0.000 C 
ATOM     31  C   UNL     1       4.694   2.237  -1.284  0.00  0.00    +0.000 C 
ATOM     32  O   UNL     1       4.333   1.208  -2.148  0.00  0.00    +0.000 OA
ATOM     33  C   UNL     1       5.491   0.663  -2.687  0.00  0.00    +0.000 C 
ATOM     34  C   UNL     1       6.170  -0.200  -1.639  0.00  0.00    +0.000 C 
ENDBRANCH  26  28
ENDBRANCH  21  22
ENDBRANCH  20  21
ENDBRANCH   7  20
TORSDOF 6
