REMARK  Name = 
REMARK  7 active torsions:
REMARK  status: ('A' for Active; 'I' for Inactive)
REMARK    1  A    between atoms: C_2  and  O_3
REMARK    2  A    between atoms: O_3  and  C_4
REMARK    3  A    between atoms: C_16  and  C_17
REMARK    4  A    between atoms: C_21  and  O_22
REMARK    5  A    between atoms: C_24  and  O_25
REMARK    6  A    between atoms: O_25  and  C_26
REMARK    7  A    between atoms: C_26  and  C_27
REMARK                            x       y       z     vdW  Elec       q    Type
REMARK                         _______ _______ _______ _____ _____    ______ ____
ROOT
ATOM      1  C   UNL     1       4.154  -0.460   0.475  0.00  0.00    +0.000 A 
ATOM      2  C   UNL     1       3.951   0.098  -0.768  0.00  0.00    +0.000 A 
ATOM      3  C   UNL     1       2.732   0.049  -1.419  0.00  0.00    +0.000 A 
ATOM      4  C   UNL     1       1.645  -0.571  -0.843  0.00  0.00    +0.000 A 
ATOM      5  N   UNL     1       0.350  -0.770  -1.245  0.00  0.00    +0.000 NA
ATOM      6  C   UNL     1      -0.291  -1.433  -0.315  0.00  0.00    +0.000 A 
ATOM      7  C   UNL     1       0.588  -1.672   0.713  0.00  0.00    +0.000 A 
ATOM      8  C   UNL     1       1.829  -1.136   0.404  0.00  0.00    +0.000 A 
ATOM      9  C   UNL     1       3.058  -1.077   1.041  0.00  0.00    +0.000 A 
ATOM     10  C   UNL     1       0.071  -2.401   1.877  0.00  0.00    +0.000 C 
ATOM     11  C   UNL     1      -1.330  -2.027   2.236  0.00  0.00    +0.000 C 
ATOM     12  N   UNL     1      -2.059  -1.315   1.215  0.00  0.00    +0.000 NA
ATOM     13  C   UNL     1      -1.729  -2.015  -0.130  0.00  0.00    +0.000 C 
ENDROOT
BRANCH  13  14
ATOM     14  C   UNL     1      -2.538  -1.070  -1.114  0.00  0.00    +0.000 A 
ATOM     15  C   UNL     1      -2.622  -1.609  -2.420  0.00  0.00    +0.000 A 
ATOM     16  C   UNL     1      -3.349  -0.911  -3.345  0.00  0.00    +0.000 A 
ATOM     17  C   UNL     1      -3.976   0.278  -3.012  0.00  0.00    +0.000 A 
ATOM     18  C   UNL     1      -3.856   0.752  -1.723  0.00  0.00    +0.000 A 
ATOM     19  C   UNL     1      -3.118   0.055  -0.764  0.00  0.00    +0.000 A 
BRANCH  18  20
ATOM     20  O   UNL     1      -4.465   1.935  -1.345  0.00  0.00    +0.000 OA
ATOM     21  C   UNL     1      -5.234   2.715  -2.237  0.00  0.00    +0.000 C 
ENDBRANCH  18  20
BRANCH  19  22
ATOM     22  O   UNL     1      -3.047   0.596   0.465  0.00  0.00    +0.000 OA
BRANCH  22  23
ATOM     23  C   UNL     1      -2.359   1.551   1.092  0.00  0.00    +0.000 C 
BRANCH  23  24
ATOM     24  C   UNL     1      -0.954   1.676   1.266  0.00  0.00    +0.000 A 
ATOM     25  C   UNL     1      -0.273   1.193   2.395  0.00  0.00    +0.000 A 
ATOM     26  C   UNL     1       1.081   1.372   2.539  0.00  0.00    +0.000 A 
ATOM     27  C   UNL     1       1.838   2.029   1.591  0.00  0.00    +0.000 A 
ATOM     28  C   UNL     1       1.204   2.508   0.482  0.00  0.00    +0.000 A 
ATOM     29  C   UNL     1      -0.143   2.337   0.326  0.00  0.00    +0.000 A 
ENDBRANCH  23  24
ENDBRANCH  22  23
ENDBRANCH  19  22
ENDBRANCH  13  14
BRANCH   1  30
ATOM     30  O   UNL     1       5.389  -0.399   1.109  0.00  0.00    +0.000 OA
BRANCH  30  32
ATOM     31  C   UNL     1       6.926  -0.468  -0.671  0.00  0.00    +0.000 C 
ATOM     32  C   UNL     1       6.529   0.190   0.626  0.00  0.00    +0.000 C 
ENDBRANCH  30  32
ENDBRANCH   1  30
TORSDOF 7
