REMARK  Name = 
REMARK  8 active torsions:
REMARK  status: ('A' for Active; 'I' for Inactive)
REMARK    1  A    between atoms: C_2  and  O_3
REMARK    2  A    between atoms: O_3  and  C_4
REMARK    3  A    between atoms: C_7  and  C_8
REMARK    4  A    between atoms: C_10  and  C_11
REMARK    5  A    between atoms: N_13  and  C_14
REMARK    6  A    between atoms: C_14  and  C_15
REMARK    7  A    between atoms: C_20  and  O_21
REMARK    8  A    between atoms: O_21  and  C_22
REMARK                            x       y       z     vdW  Elec       q    Type
REMARK                         _______ _______ _______ _____ _____    ______ ____
ROOT
ATOM      1  C   UNL     1      -2.392  -0.259  -0.532  0.00  0.00    +0.000 A 
ATOM      2  C   UNL     1      -1.218   0.081   0.130  0.00  0.00    +0.000 A 
ATOM      3  C   UNL     1      -0.002  -0.093  -0.482  0.00  0.00    +0.000 A 
ATOM      4  C   UNL     1       0.016  -0.607  -1.760  0.00  0.00    +0.000 A 
ATOM      5  C   UNL     1       1.187  -0.797  -2.452  0.00  0.00    +0.000 A 
ATOM      6  C   UNL     1       1.208  -1.302  -3.748  0.00  0.00    +0.000 A 
ATOM      7  C   UNL     1       0.048  -1.633  -4.395  0.00  0.00    +0.000 A 
ATOM      8  C   UNL     1      -1.128  -1.450  -3.722  0.00  0.00    +0.000 A 
ATOM      9  C   UNL     1      -1.173  -0.945  -2.418  0.00  0.00    +0.000 A 
ATOM     10  N   UNL     1      -2.315  -0.753  -1.770  0.00  0.00    +0.000 NA
ENDROOT
BRANCH   1  14
ATOM     11  C   UNL     1      -6.184   0.170   1.475  0.00  0.00    +0.000 A 
ATOM     12  C   UNL     1      -4.977   0.457   2.065  0.00  0.00    +0.000 A 
ATOM     13  C   UNL     1      -3.763   0.333   1.448  0.00  0.00    +0.000 A 
ATOM     14  C   UNL     1      -3.685  -0.114   0.117  0.00  0.00    +0.000 A 
ATOM     15  C   UNL     1      -4.876  -0.406  -0.488  0.00  0.00    +0.000 A 
ATOM     16  C   UNL     1      -6.097  -0.276   0.149  0.00  0.00    +0.000 A 
BRANCH  11  17
ATOM     17  O   UNL     1      -7.399   0.301   2.111  0.00  0.00    +0.000 OA
BRANCH  17  19
ATOM     18  C   UNL     1      -8.759   0.917   0.210  0.00  0.00    +0.000 C 
ATOM     19  C   UNL     1      -8.630  -0.011   1.434  0.00  0.00    +0.000 C 
ENDBRANCH  17  19
ENDBRANCH  11  17
ENDBRANCH   1  14
BRANCH   3  20
ATOM     20  C   UNL     1       1.252   0.181   0.214  0.00  0.00    +0.000 C 
ATOM     21  O   UNL     1       1.541   1.399   0.439  0.00  0.00    +0.000 OA
ATOM     22  N   UNL     1       2.139  -0.813   0.650  0.00  0.00    +0.000 NA
BRANCH  22  23
ATOM     23  C   UNL     1       3.369  -0.533   1.331  0.00  0.00    +0.000 C 
BRANCH  23  24
ATOM     24  C   UNL     1       4.342   0.051   0.369  0.00  0.00    +0.000 A 
ATOM     25  C   UNL     1       4.042   0.150  -0.991  0.00  0.00    +0.000 A 
ATOM     26  C   UNL     1       5.002   0.633  -1.884  0.00  0.00    +0.000 A 
ATOM     27  C   UNL     1       6.230   1.001  -1.401  0.00  0.00    +0.000 A 
ATOM     28  C   UNL     1       6.522   0.900  -0.038  0.00  0.00    +0.000 A 
ATOM     29  C   UNL     1       5.578   0.426   0.847  0.00  0.00    +0.000 A 
BRANCH  29  30
ATOM     30  O   UNL     1       5.792   0.303   2.203  0.00  0.00    +0.000 OA
BRANCH  30  31
ATOM     31  C   UNL     1       6.951   0.613   2.904  0.00  0.00    +0.000 C 
ATOM     32  C   UNL     1       7.375   2.071   2.784  0.00  0.00    +0.000 C 
ENDBRANCH  30  31
ENDBRANCH  29  30
ENDBRANCH  23  24
ENDBRANCH  22  23
ENDBRANCH   3  20
TORSDOF 8
