REMARK  Name = 
REMARK  6 active torsions:
REMARK  status: ('A' for Active; 'I' for Inactive)
REMARK    1  A    between atoms: C_3  and  N_4
REMARK    2  A    between atoms: C_3  and  C_28
REMARK    3  A    between atoms: N_4  and  N_5
REMARK    4  A    between atoms: C_6  and  C_8
REMARK    5  A    between atoms: C_10  and  C_11
REMARK    6  A    between atoms: C_14  and  C_15
REMARK                            x       y       z     vdW  Elec       q    Type
REMARK                         _______ _______ _______ _____ _____    ______ ____
ROOT
ATOM      1  C   UNL     1      -0.331  -0.396  -0.248  0.00  0.00    +0.000 A 
ATOM      2  C   UNL     1       0.995  -0.675  -0.097  0.00  0.00    +0.000 A 
ATOM      3  C   UNL     1       1.966   0.310  -0.269  0.00  0.00    +0.000 A 
ATOM      4  N   UNL     1       1.559   1.548  -0.585  0.00  0.00    +0.000 NA
ATOM      5  C   UNL     1       0.267   1.893  -0.750  0.00  0.00    +0.000 A 
ATOM      6  C   UNL     1      -0.125   3.168  -1.089  0.00  0.00    +0.000 A 
ATOM      7  C   UNL     1      -1.467   3.469  -1.258  0.00  0.00    +0.000 A 
ATOM      8  C   UNL     1      -2.431   2.485  -1.091  0.00  0.00    +0.000 A 
ATOM      9  C   UNL     1      -1.986   1.228  -0.752  0.00  0.00    +0.000 A 
ATOM     10  C   UNL     1      -0.663   0.929  -0.583  0.00  0.00    +0.000 A 
ENDROOT
BRANCH   3  11
ATOM     11  C   UNL     1       3.401   0.015  -0.129  0.00  0.00    +0.000 A 
ATOM     12  C   UNL     1       3.894  -1.228   0.172  0.00  0.00    +0.000 A 
ATOM     13  C   UNL     1       5.276  -1.453   0.269  0.00  0.00    +0.000 A 
ATOM     14  C   UNL     1       6.188  -0.412   0.061  0.00  0.00    +0.000 A 
ATOM     15  C   UNL     1       5.675   0.819  -0.234  0.00  0.00    +0.000 A 
ATOM     16  C   UNL     1       4.315   1.041  -0.331  0.00  0.00    +0.000 A 
BRANCH  14  17
ATOM     17  C   UNL     1       7.630  -0.692   0.146  0.00  0.00    +0.000 C 
ATOM     18  C   UNL     1       7.957  -1.322   1.474  0.00  0.00    +0.000 C 
ATOM     19  C   UNL     1       8.455   0.603   0.062  0.00  0.00    +0.000 C 
ATOM     20  C   UNL     1       8.015  -1.609  -1.017  0.00  0.00    +0.000 C 
ENDBRANCH  14  17
ENDBRANCH   3  11
BRANCH   1  22
ATOM     21  N   UNL     1      -2.767  -0.887  -0.045  0.00  0.00    +0.000 NA
ATOM     22  C   UNL     1      -1.429  -1.343  -0.060  0.00  0.00    +0.000 C 
ATOM     23  O   UNL     1      -1.243  -2.570   0.094  0.00  0.00    +0.000 OA
BRANCH  21  24
ATOM     24  N   UNL     1      -3.922  -1.625   0.118  0.00  0.00    +0.000 NA
BRANCH  24  27
ATOM     25  C   UNL     1      -4.964  -1.210  -2.520  0.00  0.00    +0.000 C 
ATOM     26  C   UNL     1      -5.667  -0.761  -1.310  0.00  0.00    +0.000 C 
ATOM     27  C   UNL     1      -5.181  -0.955  -0.107  0.00  0.00    +0.000 C 
BRANCH  27  28
ATOM     28  C   UNL     1      -5.977  -0.409   1.017  0.00  0.00    +0.000 A 
ATOM     29  C   UNL     1      -5.776  -0.524   2.370  0.00  0.00    +0.000 A 
ATOM     30  C   UNL     1      -6.641   0.106   3.161  0.00  0.00    +0.000 A 
ATOM     31  C   UNL     1      -7.644   0.809   2.600  0.00  0.00    +0.000 A 
ATOM     32  S   UNL     1      -7.378   0.584   0.930  0.00  0.00    +0.000 S 
ENDBRANCH  27  28
ENDBRANCH  24  27
ENDBRANCH  21  24
ENDBRANCH   1  22
TORSDOF 6
