REMARK  Name = 
REMARK  9 active torsions:
REMARK  status: ('A' for Active; 'I' for Inactive)
REMARK    1  A    between atoms: C_2  and  C_4
REMARK    2  A    between atoms: C_4  and  N_5
REMARK    3  A    between atoms: N_5  and  C_6
REMARK    4  A    between atoms: N_5  and  C_10
REMARK    5  A    between atoms: C_6  and  C_7
REMARK    6  A    between atoms: C_10  and  O_12
REMARK    7  A    between atoms: O_12  and  C_13
REMARK    8  A    between atoms: C_17  and  C_18
REMARK    9  A    between atoms: N_20  and  C_21
REMARK                            x       y       z     vdW  Elec       q    Type
REMARK                         _______ _______ _______ _____ _____    ______ ____
ROOT
ATOM      1  C   UNL     1      -1.793  -0.412  -0.770  0.00  0.00    +0.000 A 
ATOM      2  C   UNL     1      -1.969   0.822  -1.371  0.00  0.00    +0.000 A 
ATOM      3  C   UNL     1      -0.840   1.597  -1.536  0.00  0.00    +0.000 A 
ATOM      4  C   UNL     1       0.419   1.196  -1.133  0.00  0.00    +0.000 A 
ATOM      5  C   UNL     1       0.596  -0.031  -0.535  0.00  0.00    +0.000 A 
ATOM      6  C   UNL     1      -0.531  -0.809  -0.369  0.00  0.00    +0.000 A 
ENDROOT
BRANCH   5   7
ATOM      7  C   UNL     1       1.903  -0.512  -0.090  0.00  0.00    +0.000 C 
ATOM      8  O   UNL     1       1.999  -1.653   0.408  0.00  0.00    +0.000 OA
ATOM      9  N   UNL     1       3.089   0.254  -0.192  0.00  0.00    +0.000 NA
BRANCH   9  10
ATOM     10  C   UNL     1       4.356  -0.248   0.254  0.00  0.00    +0.000 A 
ATOM     11  C   UNL     1       4.423  -1.518   0.786  0.00  0.00    +0.000 A 
ATOM     12  C   UNL     1       5.639  -2.051   1.231  0.00  0.00    +0.000 A 
ATOM     13  C   UNL     1       6.789  -1.299   1.137  0.00  0.00    +0.000 A 
ATOM     14  C   UNL     1       6.711  -0.011   0.596  0.00  0.00    +0.000 A 
ATOM     15  C   UNL     1       7.849   0.763   0.491  0.00  0.00    +0.000 A 
ATOM     16  C   UNL     1       7.755   2.029  -0.044  0.00  0.00    +0.000 A 
ATOM     17  C   UNL     1       6.533   2.529  -0.477  0.00  0.00    +0.000 A 
ATOM     18  C   UNL     1       5.377   1.769  -0.381  0.00  0.00    +0.000 A 
ATOM     19  C   UNL     1       5.495   0.498   0.161  0.00  0.00    +0.000 A 
ENDBRANCH   9  10
ENDBRANCH   5   7
BRANCH   1  20
ATOM     20  O   UNL     1      -2.806  -1.307  -0.530  0.00  0.00    +0.000 OA
BRANCH  20  21
ATOM     21  C   UNL     1      -4.139  -1.136  -0.839  0.00  0.00    +0.000 C 
ATOM     22  S   UNL     1      -4.714  -1.784  -2.219  0.00  0.00    +0.000 S 
BRANCH  21  23
ATOM     23  N   UNL     1      -4.956  -0.405   0.056  0.00  0.00    +0.000 N 
BRANCH  23  24
ATOM     24  C   UNL     1      -6.371  -0.184  -0.200  0.00  0.00    +0.000 C 
BRANCH  24  26
ATOM     25  C   UNL     1      -8.606  -0.759   0.585  0.00  0.00    +0.000 C 
ATOM     26  C   UNL     1      -7.146  -0.982   0.846  0.00  0.00    +0.000 C 
ATOM     27  C   UNL     1      -6.771  -2.439   0.830  0.00  0.00    +0.000 C 
ENDBRANCH  24  26
ENDBRANCH  23  24
BRANCH  23  28
ATOM     28  C   UNL     1      -4.397   0.143   1.254  0.00  0.00    +0.000 C 
BRANCH  28  29
ATOM     29  C   UNL     1      -4.354   1.668   1.227  0.00  0.00    +0.000 C 
ATOM     30  C   UNL     1      -3.744   2.119   2.549  0.00  0.00    +0.000 C 
ATOM     31  C   UNL     1      -5.798   2.152   1.199  0.00  0.00    +0.000 C 
ENDBRANCH  28  29
ENDBRANCH  23  28
ENDBRANCH  21  23
ENDBRANCH  20  21
ENDBRANCH   1  20
TORSDOF 9
