REMARK  Name = 
REMARK  7 active torsions:
REMARK  status: ('A' for Active; 'I' for Inactive)
REMARK    1  A    between atoms: C_2  and  C_3
REMARK    2  A    between atoms: C_3  and  O_4
REMARK    3  A    between atoms: O_4  and  C_5
REMARK    4  A    between atoms: C_8  and  O_9
REMARK    5  A    between atoms: O_9  and  C_10
REMARK    6  A    between atoms: N_18  and  C_19
REMARK    7  A    between atoms: C_22  and  N_23
REMARK                            x       y       z     vdW  Elec       q    Type
REMARK                         _______ _______ _______ _____ _____    ______ ____
ROOT
ATOM      1  O   UNL     1      -1.644  -1.302   1.521  0.00  0.00    +0.000 OA
ATOM      2  C   UNL     1      -0.934  -0.652   0.681  0.00  0.00    +0.000 C 
ATOM      3  N   UNL     1      -1.629   0.137  -0.251  0.00  0.00    +0.000 NA
ENDROOT
BRANCH   3   4
ATOM      4  C   UNL     1      -3.059   0.194  -0.242  0.00  0.00    +0.000 A 
ATOM      5  C   UNL     1      -3.813  -0.512   0.669  0.00  0.00    +0.000 A 
ATOM      6  C   UNL     1      -5.190  -0.449   0.667  0.00  0.00    +0.000 A 
ATOM      7  C   UNL     1      -5.894   0.327  -0.247  0.00  0.00    +0.000 A 
ATOM      8  C   UNL     1      -5.122   1.027  -1.152  0.00  0.00    +0.000 A 
ATOM      9  C   UNL     1      -3.745   0.966  -1.154  0.00  0.00    +0.000 A 
BRANCH   7  10
ATOM     10  N   UNL     1      -7.311   0.387  -0.243  0.00  0.00    +0.000 N 
ATOM     11  C   UNL     1      -7.991   1.207  -1.214  0.00  0.00    +0.000 C 
ATOM     12  C   UNL     1      -8.773   2.256  -0.439  0.00  0.00    +0.000 C 
ATOM     13  C   UNL     1      -8.599   2.105   1.048  0.00  0.00    +0.000 C 
ATOM     14  C   UNL     1      -8.848   0.718   1.545  0.00  0.00    +0.000 C 
ATOM     15  C   UNL     1      -8.130  -0.337   0.693  0.00  0.00    +0.000 C 
ENDBRANCH   7  10
ENDBRANCH   3   4
BRANCH   2  16
ATOM     16  C   UNL     1       0.560  -0.755   0.726  0.00  0.00    +0.000 C 
BRANCH  16  17
ATOM     17  O   UNL     1       1.089   0.048  -0.292  0.00  0.00    +0.000 OA
BRANCH  17  18
ATOM     18  C   UNL     1       2.451   0.150  -0.493  0.00  0.00    +0.000 A 
ATOM     19  C   UNL     1       3.023   0.918  -1.471  0.00  0.00    +0.000 A 
ATOM     20  C   UNL     1       4.402   0.974  -1.616  0.00  0.00    +0.000 A 
ATOM     21  C   UNL     1       5.234   0.266  -0.791  0.00  0.00    +0.000 A 
ATOM     22  C   UNL     1       4.661  -0.509   0.195  0.00  0.00    +0.000 A 
ATOM     23  C   UNL     1       3.289  -0.559   0.333  0.00  0.00    +0.000 A 
BRANCH  21  24
ATOM     24  O   UNL     1       6.621   0.321  -0.935  0.00  0.00    +0.000 OA
BRANCH  24  25
ATOM     25  C   UNL     1       7.420  -0.416  -0.073  0.00  0.00    +0.000 A 
ATOM     26  C   UNL     1       7.797  -1.716  -0.364  0.00  0.00    +0.000 A 
ATOM     27  C   UNL     1       8.592  -2.452   0.493  0.00  0.00    +0.000 A 
ATOM     28  C   UNL     1       9.030  -1.890   1.674  0.00  0.00    +0.000 A 
ATOM     29  C   UNL     1       8.654  -0.598   1.961  0.00  0.00    +0.000 A 
ATOM     30  C   UNL     1       7.858   0.148   1.109  0.00  0.00    +0.000 A 
ENDBRANCH  24  25
ENDBRANCH  21  24
ENDBRANCH  17  18
ENDBRANCH  16  17
ENDBRANCH   2  16
TORSDOF 7
