REMARK  Name = 
REMARK  7 active torsions:
REMARK  status: ('A' for Active; 'I' for Inactive)
REMARK    1  A    between atoms: C_5  and  C_6
REMARK    2  A    between atoms: C_11  and  C_12
REMARK    3  A    between atoms: C_12  and  O_14
REMARK    4  A    between atoms: O_14  and  C_15
REMARK    5  A    between atoms: C_15  and  C_16
REMARK    6  A    between atoms: N_18  and  C_19
REMARK    7  A    between atoms: C_22  and  C_23
REMARK                            x       y       z     vdW  Elec       q    Type
REMARK                         _______ _______ _______ _____ _____    ______ ____
ROOT
ATOM      1  C   UNL     1      -1.748   0.162   0.015  0.00  0.00    +0.000 C 
ATOM      2  O   UNL     1      -2.419   0.976  -0.642  0.00  0.00    +0.000 OA
ENDROOT
BRANCH   1   8
ATOM      3  C   UNL     1      -3.687  -0.939   1.062  0.00  0.00    +0.000 A 
ATOM      4  C   UNL     1      -4.121  -1.902   1.985  0.00  0.00    +0.000 A 
ATOM      5  C   UNL     1      -3.266  -2.697   2.701  0.00  0.00    +0.000 A 
ATOM      6  C   UNL     1      -1.904  -2.582   2.541  0.00  0.00    +0.000 A 
ATOM      7  C   UNL     1      -1.457  -1.645   1.643  0.00  0.00    +0.000 A 
ATOM      8  C   UNL     1      -2.328  -0.823   0.905  0.00  0.00    +0.000 A 
BRANCH   3  13
ATOM      9  C   UNL     1      -7.731   2.062  -1.753  0.00  0.00    +0.000 C 
ATOM     10  C   UNL     1      -6.672   1.290  -1.049  0.00  0.00    +0.000 A 
ATOM     11  C   UNL     1      -6.612   1.280   0.329  0.00  0.00    +0.000 A 
ATOM     12  C   UNL     1      -5.642   0.573   1.007  0.00  0.00    +0.000 A 
ATOM     13  C   UNL     1      -4.676  -0.166   0.318  0.00  0.00    +0.000 A 
ATOM     14  C   UNL     1      -4.745  -0.150  -1.052  0.00  0.00    +0.000 A 
ATOM     15  C   UNL     1      -5.720   0.561  -1.730  0.00  0.00    +0.000 A 
ENDBRANCH   3  13
ENDBRANCH   1   8
BRANCH   1  16
ATOM     16  O   UNL     1      -0.371   0.220  -0.129  0.00  0.00    +0.000 OA
BRANCH  16  17
ATOM     17  C   UNL     1       0.193   1.175  -0.992  0.00  0.00    +0.000 C 
BRANCH  17  18
ATOM     18  C   UNL     1       1.665   1.030  -0.968  0.00  0.00    +0.000 C 
ATOM     19  O   UNL     1       2.326   1.824  -1.698  0.00  0.00    +0.000 OA
ATOM     20  N   UNL     1       2.351   0.066  -0.182  0.00  0.00    +0.000 NA
BRANCH  20  21
ATOM     21  C   UNL     1       3.782  -0.019  -0.208  0.00  0.00    +0.000 A 
ATOM     22  C   UNL     1       4.466  -0.947   0.546  0.00  0.00    +0.000 A 
ATOM     23  C   UNL     1       5.844  -1.021   0.516  0.00  0.00    +0.000 A 
ATOM     24  C   UNL     1       6.603  -0.171  -0.270  0.00  0.00    +0.000 A 
ATOM     25  C   UNL     1       5.916   0.758  -1.024  0.00  0.00    +0.000 A 
ATOM     26  C   UNL     1       4.538   0.828  -0.990  0.00  0.00    +0.000 A 
BRANCH  24  27
ATOM     27  C   UNL     1       8.089  -0.252  -0.301  0.00  0.00    +0.000 C 
ATOM     28  C   UNL     1       8.619  -0.570   1.104  0.00  0.00    +0.000 C 
ATOM     29  C   UNL     1       8.707   1.078  -0.686  0.00  0.00    +0.000 C 
ENDBRANCH  24  27
ENDBRANCH  20  21
ENDBRANCH  17  18
ENDBRANCH  16  17
ENDBRANCH   1  16
TORSDOF 7
