REMARK  Name = 
REMARK  6 active torsions:
REMARK  status: ('A' for Active; 'I' for Inactive)
REMARK    1  A    between atoms: C_2  and  C_3
REMARK    2  A    between atoms: C_4  and  C_5
REMARK    3  A    between atoms: N_21  and  C_22
REMARK    4  A    between atoms: C_22  and  C_23
REMARK    5  A    between atoms: C_23  and  C_24
REMARK    6  A    between atoms: C_24  and  C_25
REMARK                            x       y       z     vdW  Elec       q    Type
REMARK                         _______ _______ _______ _____ _____    ______ ____
ROOT
ATOM      1  C   UNL     1      -2.040   0.346  -0.810  0.00  0.00    +0.000 C 
ATOM      2  C   UNL     1      -3.149   0.017  -0.210  0.00  0.00    +0.000 C 
ATOM      3  C   UNL     1      -4.359   0.239  -1.035  0.00  0.00    +0.000 A 
ATOM      4  C   UNL     1      -4.153   1.103  -2.084  0.00  0.00    +0.000 A 
ATOM      5  C   UNL     1      -5.215   1.386  -2.920  0.00  0.00    +0.000 A 
ATOM      6  C   UNL     1      -6.446   0.809  -2.697  0.00  0.00    +0.000 A 
ATOM      7  C   UNL     1      -6.632  -0.052  -1.643  0.00  0.00    +0.000 A 
ATOM      8  C   UNL     1      -5.599  -0.357  -0.791  0.00  0.00    +0.000 A 
ATOM      9  C   UNL     1      -5.984  -1.309   0.292  0.00  0.00    +0.000 C 
ATOM     10  C   UNL     1      -5.624  -0.834   1.665  0.00  0.00    +0.000 C 
ATOM     11  C   UNL     1      -4.170  -0.873   1.943  0.00  0.00    +0.000 A 
ATOM     12  C   UNL     1      -3.942  -1.357   3.211  0.00  0.00    +0.000 A 
ATOM     13  C   UNL     1      -2.666  -1.476   3.674  0.00  0.00    +0.000 A 
ATOM     14  C   UNL     1      -1.614  -1.118   2.885  0.00  0.00    +0.000 A 
ATOM     15  C   UNL     1      -1.824  -0.624   1.595  0.00  0.00    +0.000 A 
ATOM     16  C   UNL     1      -3.111  -0.510   1.144  0.00  0.00    +0.000 A 
ENDROOT
BRANCH   1  18
ATOM     17  C   UNL     1       0.345   0.489  -0.660  0.00  0.00    +0.000 C 
ATOM     18  C   UNL     1      -0.788   0.161  -0.069  0.00  0.00    +0.000 C 
BRANCH  17  20
ATOM     19  O   UNL     1       1.675  -0.116   1.167  0.00  0.00    +0.000 OA
ATOM     20  C   UNL     1       1.645   0.337   0.007  0.00  0.00    +0.000 C 
ATOM     21  N   UNL     1       2.810   0.715  -0.707  0.00  0.00    +0.000 NA
BRANCH  21  22
ATOM     22  C   UNL     1       4.113   0.579  -0.078  0.00  0.00    +0.000 C 
BRANCH  22  23
ATOM     23  C   UNL     1       4.338  -0.878   0.273  0.00  0.00    +0.000 C 
BRANCH  23  24
ATOM     24  C   UNL     1       5.698  -0.991   0.925  0.00  0.00    +0.000 C 
BRANCH  24  25
ATOM     25  C   UNL     1       6.784  -0.529   0.007  0.00  0.00    +0.000 A 
ATOM     26  C   UNL     1       7.191   0.783  -0.012  0.00  0.00    +0.000 A 
ATOM     27  C   UNL     1       8.194   1.171  -0.872  0.00  0.00    +0.000 A 
ATOM     28  C   UNL     1       8.776   0.244  -1.700  0.00  0.00    +0.000 A 
ATOM     29  N   UNL     1       8.361  -1.029  -1.662  0.00  0.00    +0.000 NA
ATOM     30  C   UNL     1       7.387  -1.435  -0.837  0.00  0.00    +0.000 A 
ENDBRANCH  24  25
ENDBRANCH  23  24
ENDBRANCH  22  23
ENDBRANCH  21  22
ENDBRANCH  17  20
ENDBRANCH   1  18
TORSDOF 6
