REMARK  Name = 
REMARK  7 active torsions:
REMARK  status: ('A' for Active; 'I' for Inactive)
REMARK    1  A    between atoms: C_2  and  O_3
REMARK    2  A    between atoms: O_3  and  C_4
REMARK    3  A    between atoms: C_7  and  N_8
REMARK    4  A    between atoms: N_8  and  C_9
REMARK    5  A    between atoms: C_10  and  S_11
REMARK    6  A    between atoms: S_11  and  C_12
REMARK    7  A    between atoms: N_21  and  C_22
REMARK                            x       y       z     vdW  Elec       q    Type
REMARK                         _______ _______ _______ _____ _____    ______ ____
ROOT
ATOM      1  C   UNL     1      -1.051   0.236   0.071  0.00  0.00    +0.000 C 
ATOM      2  C   UNL     1      -1.819   0.772  -0.863  0.00  0.00    +0.000 C 
ATOM      3  C   UNL     1      -2.944  -0.101  -1.146  0.00  0.00    +0.000 C 
ATOM      4  O   UNL     1      -3.884   0.051  -1.960  0.00  0.00    +0.000 OA
ATOM      5  N   UNL     1      -2.817  -1.244  -0.299  0.00  0.00    +0.000 N 
ATOM      6  C   UNL     1      -1.631  -1.034   0.465  0.00  0.00    +0.000 C 
ATOM      7  O   UNL     1      -1.180  -1.837   1.335  0.00  0.00    +0.000 OA
ENDROOT
BRANCH   5   8
ATOM      8  C   UNL     1      -3.686  -2.373  -0.219  0.00  0.00    +0.000 A 
ATOM      9  C   UNL     1      -3.216  -3.654  -0.382  0.00  0.00    +0.000 A 
ATOM     10  C   UNL     1      -4.130  -4.708  -0.290  0.00  0.00    +0.000 A 
ATOM     11  C   UNL     1      -5.471  -4.504  -0.043  0.00  0.00    +0.000 A 
ATOM     12  C   UNL     1      -5.918  -3.216   0.117  0.00  0.00    +0.000 A 
ATOM     13  C   UNL     1      -5.025  -2.154   0.029  0.00  0.00    +0.000 A 
ENDBRANCH   5   8
BRANCH   1  14
ATOM     14  N   UNL     1       0.136   0.817   0.593  0.00  0.00    +0.000 NA
BRANCH  14  18
ATOM     15  C   UNL     1       3.863  -1.216   0.314  0.00  0.00    +0.000 A 
ATOM     16  C   UNL     1       3.776   0.021   0.916  0.00  0.00    +0.000 A 
ATOM     17  C   UNL     1       2.550   0.690   1.007  0.00  0.00    +0.000 A 
ATOM     18  C   UNL     1       1.397   0.139   0.502  0.00  0.00    +0.000 A 
ATOM     19  C   UNL     1       1.484  -1.098  -0.100  0.00  0.00    +0.000 A 
ATOM     20  C   UNL     1       2.695  -1.753  -0.187  0.00  0.00    +0.000 A 
BRANCH  15  21
ATOM     21  O   UNL     1       5.059  -1.922   0.197  0.00  0.00    +0.000 OA
BRANCH  21  23
ATOM     22  C   UNL     1       6.596  -0.139  -0.023  0.00  0.00    +0.000 C 
ATOM     23  C   UNL     1       6.281  -1.452   0.676  0.00  0.00    +0.000 C 
ENDBRANCH  21  23
ENDBRANCH  15  21
ENDBRANCH  14  18
ENDBRANCH   1  14
BRANCH   2  24
ATOM     24  S   UNL     1      -1.510   2.344  -1.660  0.00  0.00    +0.000 S 
BRANCH  24  25
ATOM     25  C   UNL     1      -0.022   3.107  -1.042  0.00  0.00    +0.000 A 
ATOM     26  C   UNL     1      -0.044   3.964   0.051  0.00  0.00    +0.000 A 
ATOM     27  C   UNL     1       1.086   4.567   0.547  0.00  0.00    +0.000 A 
ATOM     28  C   UNL     1       2.313   4.336  -0.038  0.00  0.00    +0.000 A 
ATOM     29  C   UNL     1       3.545   4.989   0.498  0.00  0.00    +0.000 C 
ATOM     30  C   UNL     1       2.354   3.487  -1.124  0.00  0.00    +0.000 A 
ATOM     31  C   UNL     1       1.211   2.883  -1.619  0.00  0.00    +0.000 A 
ENDBRANCH  24  25
ENDBRANCH   2  24
TORSDOF 7
