REMARK  Name = 
REMARK  9 active torsions:
REMARK  status: ('A' for Active; 'I' for Inactive)
REMARK    1  A    between atoms: O_2  and  C_3
REMARK    2  A    between atoms: C_5  and  C_6
REMARK    3  A    between atoms: N_7  and  N_8
REMARK    4  A    between atoms: C_9  and  C_11
REMARK    5  A    between atoms: C_11  and  O_12
REMARK    6  A    between atoms: O_12  and  C_13
REMARK    7  A    between atoms: C_23  and  O_24
REMARK    8  A    between atoms: O_24  and  C_25
REMARK    9  A    between atoms: C_25  and  C_26
REMARK                            x       y       z     vdW  Elec       q    Type
REMARK                         _______ _______ _______ _____ _____    ______ ____
ROOT
ATOM      1  C   UNL     1       2.381  -0.951  -0.638  0.00  0.00    +0.000 A 
ATOM      2  C   UNL     1       1.074  -0.894  -0.179  0.00  0.00    +0.000 A 
ATOM      3  C   UNL     1       0.655   0.082   0.687  0.00  0.00    +0.000 A 
ATOM      4  C   UNL     1       1.590   1.014   1.090  0.00  0.00    +0.000 A 
ATOM      5  C   UNL     1       2.905   0.965   0.635  0.00  0.00    +0.000 A 
ATOM      6  C   UNL     1       3.324  -0.016  -0.236  0.00  0.00    +0.000 A 
ENDROOT
BRANCH   1   8
ATOM      7  C   UNL     1       1.853  -2.900  -1.934  0.00  0.00    +0.000 C 
ATOM      8  O   UNL     1       2.807  -1.942  -1.518  0.00  0.00    +0.000 OA
ENDBRANCH   1   8
BRANCH   3   9
ATOM      9  C   UNL     1      -0.733   0.106   1.146  0.00  0.00    +0.000 C 
ATOM     10  N   UNL     1      -1.205   0.970   1.946  0.00  0.00    +0.000 NA
BRANCH  10  11
ATOM     11  N   UNL     1      -2.522   1.012   2.396  0.00  0.00    +0.000 NA
ATOM     12  C   UNL     1      -3.575   0.283   1.683  0.00  0.00    +0.000 C 
ATOM     13  O   UNL     1      -3.120  -0.330   0.685  0.00  0.00    +0.000 OA
BRANCH  12  14
ATOM     14  C   UNL     1      -4.939   0.337   2.164  0.00  0.00    +0.000 C 
BRANCH  14  15
ATOM     15  O   UNL     1      -5.931  -0.337   1.573  0.00  0.00    +0.000 OA
BRANCH  15  16
ATOM     16  C   UNL     1      -6.348  -0.226   0.265  0.00  0.00    +0.000 A 
ATOM     17  C   UNL     1      -6.012  -1.062  -0.766  0.00  0.00    +0.000 A 
ATOM     18  C   UNL     1      -5.162  -2.270  -0.469  0.00  0.00    +0.000 C 
ATOM     19  C   UNL     1      -6.484  -0.843  -2.042  0.00  0.00    +0.000 A 
ATOM     20  C   UNL     1      -7.304   0.226  -2.278  0.00  0.00    +0.000 A 
ATOM     21  C   UNL     1      -7.682   1.104  -1.285  0.00  0.00    +0.000 A 
ATOM     22  C   UNL     1      -7.195   0.861  -0.028  0.00  0.00    +0.000 A 
ATOM     23  C   UNL     1      -7.562   1.775   1.112  0.00  0.00    +0.000 C 
ENDBRANCH  15  16
ENDBRANCH  14  15
ENDBRANCH  12  14
ENDBRANCH  10  11
ENDBRANCH   3   9
BRANCH   6  24
ATOM     24  O   UNL     1       4.625  -0.094  -0.708  0.00  0.00    +0.000 OA
BRANCH  24  25
ATOM     25  C   UNL     1       5.561   0.883  -0.272  0.00  0.00    +0.000 C 
BRANCH  25  26
ATOM     26  C   UNL     1       6.893   0.652  -0.870  0.00  0.00    +0.000 A 
ATOM     27  C   UNL     1       7.295   1.206  -2.074  0.00  0.00    +0.000 A 
ATOM     28  C   UNL     1       8.575   0.911  -2.529  0.00  0.00    +0.000 A 
ATOM     29  C   UNL     1       9.428   0.096  -1.817  0.00  0.00    +0.000 A 
ATOM     30  C   UNL     1       9.039  -0.457  -0.624  0.00  0.00    +0.000 A 
ATOM     31  C   UNL     1       7.768  -0.165  -0.171  0.00  0.00    +0.000 A 
ENDBRANCH  25  26
ENDBRANCH  24  25
ENDBRANCH   6  24
TORSDOF 9
