REMARK  Name = 
REMARK  7 active torsions:
REMARK  status: ('A' for Active; 'I' for Inactive)
REMARK    1  A    between atoms: C_2  and  O_3
REMARK    2  A    between atoms: O_3  and  C_4
REMARK    3  A    between atoms: C_9  and  N_10
REMARK    4  A    between atoms: C_11  and  C_13
REMARK    5  A    between atoms: C_14  and  N_15
REMARK    6  A    between atoms: C_16  and  C_18
REMARK    7  A    between atoms: C_18  and  C_19
REMARK                            x       y       z     vdW  Elec       q    Type
REMARK                         _______ _______ _______ _____ _____    ______ ____
ROOT
ATOM      1  C   UNL     1      -0.070   1.030  -1.165  0.00  0.00    +0.000 A 
ATOM      2  C   UNL     1       1.162   0.734  -1.656  0.00  0.00    +0.000 A 
ATOM      3  S   UNL     1       1.563   2.242  -2.496  0.00  0.00    +0.000 S 
ATOM      4  C   UNL     1       0.167   3.122  -2.160  0.00  0.00    +0.000 A 
ATOM      5  C   UNL     1      -0.584   2.269  -1.421  0.00  0.00    +0.000 A 
ATOM      6  C   UNL     1      -1.863   3.041  -1.080  0.00  0.00    +0.000 C 
ATOM      7  C   UNL     1      -1.433   4.482  -1.152  0.00  0.00    +0.000 C 
ATOM      8  C   UNL     1      -0.532   4.450  -2.361  0.00  0.00    +0.000 C 
ENDROOT
BRANCH   1  10
ATOM      9  N   UNL     1      -2.203   0.275   0.036  0.00  0.00    +0.000 NA
ATOM     10  C   UNL     1      -0.925  -0.053  -0.552  0.00  0.00    +0.000 C 
ATOM     11  O   UNL     1      -0.616  -1.226  -0.519  0.00  0.00    +0.000 OA
BRANCH   9  17
ATOM     12  C   UNL     1      -4.241  -0.406   1.101  0.00  0.00    +0.000 A 
ATOM     13  C   UNL     1      -5.040  -1.403   1.641  0.00  0.00    +0.000 A 
ATOM     14  C   UNL     1      -4.639  -2.719   1.688  0.00  0.00    +0.000 A 
ATOM     15  C   UNL     1      -3.396  -3.065   1.181  0.00  0.00    +0.000 A 
ATOM     16  C   UNL     1      -2.571  -2.101   0.635  0.00  0.00    +0.000 A 
ATOM     17  C   UNL     1      -3.013  -0.780   0.606  0.00  0.00    +0.000 A 
BRANCH  12  18
ATOM     18  O   UNL     1      -4.707   0.889   1.088  0.00  0.00    +0.000 OA
BRANCH  18  20
ATOM     19  C   UNL     1      -6.100   2.783   1.390  0.00  0.00    +0.000 C 
ATOM     20  C   UNL     1      -5.950   1.284   1.586  0.00  0.00    +0.000 C 
ENDBRANCH  18  20
ENDBRANCH  12  18
ENDBRANCH   9  17
ENDBRANCH   1  10
BRANCH   2  21
ATOM     21  N   UNL     1       2.124  -0.281  -1.504  0.00  0.00    +0.000 NA
ATOM     22  C   UNL     1       2.465  -1.228  -0.610  0.00  0.00    +0.000 C 
ATOM     23  O   UNL     1       1.859  -1.332   0.477  0.00  0.00    +0.000 OA
BRANCH  22  24
ATOM     24  C   UNL     1       3.579  -2.239  -0.807  0.00  0.00    +0.000 C 
BRANCH  24  25
ATOM     25  C   UNL     1       4.715  -1.920   0.126  0.00  0.00    +0.000 A 
ATOM     26  C   UNL     1       4.710  -2.222   1.458  0.00  0.00    +0.000 A 
ATOM     27  C   UNL     1       5.800  -1.945   2.293  0.00  0.00    +0.000 A 
ATOM     28  C   UNL     1       6.921  -1.345   1.743  0.00  0.00    +0.000 A 
ATOM     29  C   UNL     1       6.950  -1.027   0.391  0.00  0.00    +0.000 A 
ATOM     30  C   UNL     1       5.870  -1.311  -0.389  0.00  0.00    +0.000 A 
ENDBRANCH  24  25
ENDBRANCH  22  24
ENDBRANCH   2  21
TORSDOF 7
