REMARK  Name = 
REMARK  8 active torsions:
REMARK  status: ('A' for Active; 'I' for Inactive)
REMARK    1  A    between atoms: O_2  and  C_3
REMARK    2  A    between atoms: C_3  and  C_4
REMARK    3  A    between atoms: C_4  and  O_6
REMARK    4  A    between atoms: O_6  and  C_7
REMARK    5  A    between atoms: C_7  and  C_9
REMARK    6  A    between atoms: N_12  and  C_13
REMARK    7  A    between atoms: C_13  and  C_14
REMARK    8  A    between atoms: C_14  and  C_15
REMARK                            x       y       z     vdW  Elec       q    Type
REMARK                         _______ _______ _______ _____ _____    ______ ____
ROOT
ATOM      1  C   UNL     1      -1.457  -0.042   0.138  0.00  0.00    +0.000 A 
ATOM      2  C   UNL     1      -0.457   0.862   0.282  0.00  0.00    +0.000 A 
ATOM      3  N   UNL     1      -0.633   2.269   0.448  0.00  0.00    +0.000 NA
ATOM      4  N   UNL     1       0.726   0.178   0.238  0.00  0.00    +0.000 N 
ATOM      5  C   UNL     1       0.485  -1.132   0.070  0.00  0.00    +0.000 A 
ATOM      6  N   UNL     1       1.305  -2.187  -0.031  0.00  0.00    +0.000 NA
ATOM      7  C   UNL     1       0.791  -3.441  -0.202  0.00  0.00    +0.000 A 
ATOM      8  C   UNL     1       1.589  -4.552  -0.310  0.00  0.00    +0.000 A 
ATOM      9  C   UNL     1       1.051  -5.829  -0.484  0.00  0.00    +0.000 A 
ATOM     10  C   UNL     1      -0.305  -5.997  -0.550  0.00  0.00    +0.000 A 
ATOM     11  C   UNL     1      -1.113  -4.899  -0.444  0.00  0.00    +0.000 A 
ATOM     12  C   UNL     1      -0.575  -3.625  -0.270  0.00  0.00    +0.000 A 
ATOM     13  N   UNL     1      -1.367  -2.545  -0.165  0.00  0.00    +0.000 NA
ATOM     14  C   UNL     1      -0.890  -1.291   0.004  0.00  0.00    +0.000 A 
ENDROOT
BRANCH   1  15
ATOM     15  C   UNL     1      -2.886   0.245   0.125  0.00  0.00    +0.000 C 
ATOM     16  O   UNL     1      -3.716  -0.717  -0.021  0.00  0.00    +0.000 OA
BRANCH  15  17
ATOM     17  O   UNL     1      -3.366   1.527   0.265  0.00  0.00    +0.000 OA
BRANCH  17  18
ATOM     18  C   UNL     1      -4.917   1.583   0.220  0.00  0.00    +0.000 C 
ATOM     19  C   UNL     1      -5.045   1.313   1.870  0.00  0.00    +0.000 C 
BRANCH  18  20
ATOM     20  C   UNL     1      -4.946   3.239   0.421  0.00  0.00    +0.000 C 
BRANCH  20  22
ATOM     21  C   UNL     1      -4.882   3.150  -1.855  0.00  0.00    +0.000 C 
ATOM     22  O   UNL     1      -4.213   3.610  -0.725  0.00  0.00    +0.000 OA
ENDBRANCH  20  22
ENDBRANCH  18  20
ENDBRANCH  17  18
ENDBRANCH  15  17
ENDBRANCH   1  15
BRANCH   4  23
ATOM     23  C   UNL     1       1.983   0.873   0.365  0.00  0.00    +0.000 C 
BRANCH  23  24
ATOM     24  C   UNL     1       2.536   1.322  -0.962  0.00  0.00    +0.000 C 
BRANCH  24  25
ATOM     25  C   UNL     1       3.831   2.021  -0.676  0.00  0.00    +0.000 A 
ATOM     26  C   UNL     1       3.884   3.380  -0.433  0.00  0.00    +0.000 A 
ATOM     27  C   UNL     1       5.074   4.026  -0.169  0.00  0.00    +0.000 A 
ATOM     28  C   UNL     1       6.259   3.338  -0.139  0.00  0.00    +0.000 A 
ATOM     29  C   UNL     1       6.224   1.980  -0.380  0.00  0.00    +0.000 A 
ATOM     30  C   UNL     1       5.030   1.340  -0.643  0.00  0.00    +0.000 A 
ENDBRANCH  24  25
ENDBRANCH  23  24
ENDBRANCH   4  23
TORSDOF 8
