REMARK  Name = 
REMARK  6 active torsions:
REMARK  status: ('A' for Active; 'I' for Inactive)
REMARK    1  A    between atoms: O_2  and  C_3
REMARK    2  A    between atoms: C_8  and  C_9
REMARK    3  A    between atoms: C_11  and  C_12
REMARK    4  A    between atoms: N_14  and  C_15
REMARK    5  A    between atoms: C_15  and  C_17
REMARK    6  A    between atoms: C_20  and  C_21
REMARK                            x       y       z     vdW  Elec       q    Type
REMARK                         _______ _______ _______ _____ _____    ______ ____
ROOT
ATOM      1  C   UNL     1      -3.197   0.052   0.113  0.00  0.00    +0.000 A 
ATOM      2  C   UNL     1      -1.807  -0.028   0.203  0.00  0.00    +0.000 A 
ATOM      3  C   UNL     1      -1.026   1.075  -0.035  0.00  0.00    +0.000 A 
ATOM      4  C   UNL     1      -1.591   2.287  -0.361  0.00  0.00    +0.000 A 
ATOM      5  C   UNL     1      -0.763   3.406  -0.586  0.00  0.00    +0.000 A 
ATOM      6  C   UNL     1      -1.411   4.570  -0.889  0.00  0.00    +0.000 A 
ATOM      7  C   UNL     1      -2.753   4.691  -0.977  0.00  0.00    +0.000 A 
ATOM      8  C   UNL     1      -3.523   3.551  -0.746  0.00  0.00    +0.000 A 
ATOM      9  C   UNL     1      -2.961   2.343  -0.437  0.00  0.00    +0.000 A 
ATOM     10  N   UNL     1      -3.725   1.241  -0.203  0.00  0.00    +0.000 NA
ENDROOT
BRANCH   1  16
ATOM     11  C   UNL     1      -3.618  -2.319   0.798  0.00  0.00    +0.000 A 
ATOM     12  C   UNL     1      -4.450  -3.412   0.860  0.00  0.00    +0.000 A 
ATOM     13  C   UNL     1      -5.771  -3.415   0.369  0.00  0.00    +0.000 A 
ATOM     14  C   UNL     1      -6.159  -2.225  -0.185  0.00  0.00    +0.000 A 
ATOM     15  C   UNL     1      -5.344  -1.128  -0.256  0.00  0.00    +0.000 A 
ATOM     16  C   UNL     1      -4.025  -1.136   0.240  0.00  0.00    +0.000 A 
BRANCH  11  18
ATOM     17  C   UNL     1      -1.857  -3.577   1.910  0.00  0.00    +0.000 C 
ATOM     18  O   UNL     1      -2.299  -2.360   1.316  0.00  0.00    +0.000 OA
ENDBRANCH  11  18
ENDBRANCH   1  16
BRANCH   3  19
ATOM     19  C   UNL     1       0.460   0.993  -0.091  0.00  0.00    +0.000 C 
ATOM     20  O   UNL     1       1.112   0.333   0.727  0.00  0.00    +0.000 OA
ATOM     21  N   UNL     1       1.043   1.685  -1.113  0.00  0.00    +0.000 NA
BRANCH  21  22
ATOM     22  C   UNL     1       2.425   1.913  -1.594  0.00  0.00    +0.000 C 
ATOM     23  C   UNL     1       2.858   3.125  -0.561  0.00  0.00    +0.000 C 
BRANCH  22  24
ATOM     24  C   UNL     1       3.274   0.782  -0.978  0.00  0.00    +0.000 A 
ATOM     25  C   UNL     1       2.838  -0.519  -0.920  0.00  0.00    +0.000 A 
ATOM     26  C   UNL     1       3.644  -1.520  -0.355  0.00  0.00    +0.000 A 
ATOM     27  C   UNL     1       4.896  -1.236   0.160  0.00  0.00    +0.000 A 
ATOM     28  C   UNL     1       5.319   0.075   0.091  0.00  0.00    +0.000 A 
ATOM     29  C   UNL     1       4.520   1.075  -0.470  0.00  0.00    +0.000 A 
BRANCH  27  30
ATOM     30  C   UNL     1       5.740  -2.291   0.799  0.00  0.00    +0.000 C 
ATOM     31  C   UNL     1       6.166  -1.854   2.195  0.00  0.00    +0.000 C 
ATOM     32  C   UNL     1       6.994  -2.606   0.025  0.00  0.00    +0.000 C 
ATOM     33  C   UNL     1       4.988  -3.574   0.951  0.00  0.00    +0.000 C 
ENDBRANCH  27  30
ENDBRANCH  22  24
ENDBRANCH  21  22
ENDBRANCH   3  19
TORSDOF 6
