REMARK  Name = 
REMARK  6 active torsions:
REMARK  status: ('A' for Active; 'I' for Inactive)
REMARK    1  A    between atoms: C_2  and  C_3
REMARK    2  A    between atoms: C_3  and  C_5
REMARK    3  A    between atoms: C_10  and  N_11
REMARK    4  A    between atoms: C_12  and  C_14
REMARK    5  A    between atoms: N_16  and  C_17
REMARK    6  A    between atoms: C_17  and  C_18
REMARK                            x       y       z     vdW  Elec       q    Type
REMARK                         _______ _______ _______ _____ _____    ______ ____
ROOT
ATOM      1  C   UNL     1       0.208   1.231   0.133  0.00  0.00    +0.000 A 
ATOM      2  N   UNL     1       0.835   0.389   0.951  0.00  0.00    +0.000 NA
ATOM      3  N   UNL     1       2.074   0.627   1.386  0.00  0.00    +0.000 N 
ATOM      4  C   UNL     1       2.749   1.729   1.020  0.00  0.00    +0.000 A 
ATOM      5  O   UNL     1       3.933   1.945   1.443  0.00  0.00    +0.000 OA
ATOM      6  C   UNL     1       2.167   2.645   0.176  0.00  0.00    +0.000 A 
ATOM      7  C   UNL     1       2.858   3.751  -0.186  0.00  0.00    +0.000 A 
ATOM      8  C   UNL     1       2.272   4.666  -1.030  0.00  0.00    +0.000 A 
ATOM      9  C   UNL     1       0.992   4.434  -1.488  0.00  0.00    +0.000 A 
ATOM     10  C   UNL     1       0.310   3.302  -1.105  0.00  0.00    +0.000 A 
ATOM     11  C   UNL     1       0.883   2.377  -0.261  0.00  0.00    +0.000 A 
ENDROOT
BRANCH   1  13
ATOM     12  N   UNL     1      -1.946  -0.081  -0.064  0.00  0.00    +0.000 NA
ATOM     13  C   UNL     1      -1.135   1.034  -0.376  0.00  0.00    +0.000 C 
ATOM     14  O   UNL     1      -1.627   1.894  -1.142  0.00  0.00    +0.000 OA
BRANCH  12  20
ATOM     15  C   UNL     1      -3.878  -1.452  -0.120  0.00  0.00    +0.000 A 
ATOM     16  C   UNL     1      -5.143  -1.793  -0.502  0.00  0.00    +0.000 A 
ATOM     17  C   UNL     1      -5.830  -0.934  -1.360  0.00  0.00    +0.000 A 
ATOM     18  C   UNL     1      -5.233   0.227  -1.801  0.00  0.00    +0.000 A 
ATOM     19  C   UNL     1      -3.947   0.513  -1.375  0.00  0.00    +0.000 A 
ATOM     20  C   UNL     1      -3.247  -0.310  -0.533  0.00  0.00    +0.000 A 
BRANCH  15  21
ATOM     21  C   UNL     1      -3.073  -2.421   0.860  0.00  0.00    +0.000 C 
ATOM     22  C   UNL     1      -3.500  -1.599   2.250  0.00  0.00    +0.000 C 
BRANCH  21  24
ATOM     23  C   UNL     1      -3.964  -4.428  -0.181  0.00  0.00    +0.000 C 
ATOM     24  C   UNL     1      -4.227  -3.561   1.057  0.00  0.00    +0.000 C 
ENDBRANCH  21  24
ENDBRANCH  15  21
ENDBRANCH  12  20
ENDBRANCH   1  13
BRANCH   3  25
ATOM     25  C   UNL     1       2.743  -0.307   2.281  0.00  0.00    +0.000 C 
BRANCH  25  26
ATOM     26  C   UNL     1       3.503  -1.329   1.478  0.00  0.00    +0.000 A 
ATOM     27  C   UNL     1       2.840  -2.464   1.131  0.00  0.00    +0.000 A 
ATOM     28  C   UNL     1       3.426  -3.463   0.403  0.00  0.00    +0.000 A 
ATOM     29  C   UNL     1       4.750  -3.314   0.000  0.00  0.00    +0.000 A 
ATOM     30  C   UNL     1       5.405  -2.155   0.362  0.00  0.00    +0.000 A 
ATOM     31  C   UNL     1       4.803  -1.154   1.097  0.00  0.00    +0.000 A 
ENDBRANCH  25  26
ENDBRANCH   3  25
TORSDOF 6
