REMARK  Name = 
REMARK  7 active torsions:
REMARK  status: ('A' for Active; 'I' for Inactive)
REMARK    1  A    between atoms: O_2  and  C_3
REMARK    2  A    between atoms: C_3  and  C_5
REMARK    3  A    between atoms: C_10  and  N_11
REMARK    4  A    between atoms: C_12  and  C_14
REMARK    5  A    between atoms: C_17  and  C_18
REMARK    6  A    between atoms: C_18  and  S_19
REMARK    7  A    between atoms: S_19  and  C_20
REMARK                            x       y       z     vdW  Elec       q    Type
REMARK                         _______ _______ _______ _____ _____    ______ ____
ROOT
ATOM      1  C   UNL     1       0.087  -1.293   0.415  0.00  0.00    +0.000 A 
ATOM      2  C   UNL     1       1.028  -1.314  -0.590  0.00  0.00    +0.000 A 
ATOM      3  C   UNL     1       2.262  -1.925  -0.450  0.00  0.00    +0.000 A 
ATOM      4  C   UNL     1       2.580  -2.540   0.732  0.00  0.00    +0.000 A 
ATOM      5  C   UNL     1       1.667  -2.538   1.752  0.00  0.00    +0.000 A 
ATOM      6  C   UNL     1       0.421  -1.916   1.598  0.00  0.00    +0.000 A 
ENDROOT
BRANCH   1   8
ATOM      7  N   UNL     1      -1.605  -0.001  -0.941  0.00  0.00    +0.000 NA
ATOM      8  C   UNL     1      -1.209  -0.646   0.251  0.00  0.00    +0.000 C 
ATOM      9  O   UNL     1      -2.025  -0.656   1.216  0.00  0.00    +0.000 OA
BRANCH   7  15
ATOM     10  C   UNL     1      -5.052   1.268  -0.244  0.00  0.00    +0.000 A 
ATOM     11  C   UNL     1      -5.308   1.862  -1.461  0.00  0.00    +0.000 A 
ATOM     12  C   UNL     1      -4.400   1.865  -2.499  0.00  0.00    +0.000 A 
ATOM     13  C   UNL     1      -3.187   1.241  -2.292  0.00  0.00    +0.000 A 
ATOM     14  C   UNL     1      -2.174   1.212  -3.371  0.00  0.00    +0.000 C 
ATOM     15  C   UNL     1      -2.871   0.628  -1.097  0.00  0.00    +0.000 A 
ATOM     16  C   UNL     1      -3.822   0.660  -0.099  0.00  0.00    +0.000 A 
BRANCH  10  17
ATOM     17  C   UNL     1      -6.037   1.278   0.845  0.00  0.00    +0.000 C 
ATOM     18  O   UNL     1      -7.135   1.847   0.647  0.00  0.00    +0.000 OA
BRANCH  17  20
ATOM     19  C   UNL     1      -6.808   0.752   3.054  0.00  0.00    +0.000 C 
ATOM     20  O   UNL     1      -5.801   0.693   2.063  0.00  0.00    +0.000 OA
ENDBRANCH  17  20
ENDBRANCH  10  17
ENDBRANCH   7  15
ENDBRANCH   1   8
BRANCH   4  21
ATOM     21  C   UNL     1       3.895  -3.191   0.881  0.00  0.00    +0.000 C 
BRANCH  21  22
ATOM     22  S   UNL     1       5.082  -2.009   1.532  0.00  0.00    +0.000 S 
BRANCH  22  23
ATOM     23  C   UNL     1       5.406  -0.688   0.362  0.00  0.00    +0.000 A 
ATOM     24  C   UNL     1       6.296   0.313   0.694  0.00  0.00    +0.000 A 
ATOM     25  C   UNL     1       6.581   1.356  -0.174  0.00  0.00    +0.000 A 
ATOM     26  C   UNL     1       5.958   1.400  -1.410  0.00  0.00    +0.000 A 
ATOM     27  C   UNL     1       6.296   2.537  -2.303  0.00  0.00    +0.000 C 
ATOM     28  C   UNL     1       5.072   0.423  -1.766  0.00  0.00    +0.000 A 
ATOM     29  C   UNL     1       4.801  -0.618  -0.875  0.00  0.00    +0.000 A 
ENDBRANCH  22  23
ENDBRANCH  21  22
ENDBRANCH   4  21
TORSDOF 7
