REMARK  Name = 
REMARK  8 active torsions:
REMARK  status: ('A' for Active; 'I' for Inactive)
REMARK    1  A    between atoms: C_2  and  C_3
REMARK    2  A    between atoms: C_3  and  C_4
REMARK    3  A    between atoms: C_4  and  N_5
REMARK    4  A    between atoms: N_5  and  C_15
REMARK    5  A    between atoms: C_6  and  C_8
REMARK    6  A    between atoms: C_15  and  C_16
REMARK    7  A    between atoms: C_15  and  C_27
REMARK    8  A    between atoms: N_18  and  C_19
REMARK                            x       y       z     vdW  Elec       q    Type
REMARK                         _______ _______ _______ _____ _____    ______ ____
ROOT
ATOM      1  C   UNL     1      -0.126  -0.744   0.875  0.00  0.00    +0.000 C 
ENDROOT
BRANCH   1   2
ATOM      2  C   UNL     1       0.188  -2.114   0.158  0.00  0.00    +0.000 A 
ATOM      3  C   UNL     1       1.458  -2.489  -0.099  0.00  0.00    +0.000 A 
ATOM      4  C   UNL     1       1.727  -3.655  -0.763  0.00  0.00    +0.000 A 
ATOM      5  C   UNL     1       0.685  -4.470  -1.181  0.00  0.00    +0.000 A 
ATOM      6  C   UNL     1      -0.601  -4.073  -0.909  0.00  0.00    +0.000 A 
ATOM      7  C   UNL     1      -0.862  -2.875  -0.228  0.00  0.00    +0.000 A 
ATOM      8 CL   UNL     1      -2.549  -2.515   0.110  0.00  0.00    +0.000 Cl
ENDBRANCH   1   2
BRANCH   1   9
ATOM      9  N   UNL     1      -1.199  -0.202  -0.134  0.00  0.00    +0.000 N 
ATOM     10  C   UNL     1      -2.109   0.622   0.541  0.00  0.00    +0.000 C 
ATOM     11  O   UNL     1      -1.956   0.973   1.776  0.00  0.00    +0.000 OA
BRANCH  10  12
ATOM     12  C   UNL     1      -3.320   1.168  -0.049  0.00  0.00    +0.000 A 
ATOM     13  C   UNL     1      -3.766   0.757  -1.280  0.00  0.00    +0.000 A 
ATOM     14  C   UNL     1      -4.949   1.246  -1.818  0.00  0.00    +0.000 A 
ATOM     15  C   UNL     1      -5.731   2.157  -1.163  0.00  0.00    +0.000 A 
ATOM     16  C   UNL     1      -5.299   2.593   0.095  0.00  0.00    +0.000 A 
ATOM     17  C   UNL     1      -4.127   2.097   0.612  0.00  0.00    +0.000 A 
ATOM     18  O   UNL     1      -3.728   2.560   1.877  0.00  0.00    +0.000 OA
ENDBRANCH  10  12
BRANCH   9  19
ATOM     19  C   UNL     1      -1.261  -0.546  -1.453  0.00  0.00    +0.000 C 
BRANCH  19  20
ATOM     20  C   UNL     1      -0.662   0.043  -2.585  0.00  0.00    +0.000 C 
BRANCH  20  22
ATOM     21  C   UNL     1      -2.034   1.847  -3.756  0.00  0.00    +0.000 C 
ATOM     22  C   UNL     1      -0.771   1.319  -3.185  0.00  0.00    +0.000 C 
ENDBRANCH  20  22
ENDBRANCH  19  20
ENDBRANCH   9  19
ENDBRANCH   1   9
BRANCH   1  23
ATOM     23  C   UNL     1       1.095   0.140   0.235  0.00  0.00    +0.000 C 
ATOM     24  O   UNL     1       0.892   0.968  -0.589  0.00  0.00    +0.000 OA
ATOM     25  N   UNL     1       2.336  -0.183   0.750  0.00  0.00    +0.000 NA
BRANCH  25  26
ATOM     26  C   UNL     1       3.563   0.351   0.423  0.00  0.00    +0.000 A 
ATOM     27  C   UNL     1       4.584   0.067   1.370  0.00  0.00    +0.000 A 
ATOM     28  C   UNL     1       4.204  -0.730   2.590  0.00  0.00    +0.000 C 
ATOM     29  C   UNL     1       5.874   0.484   1.219  0.00  0.00    +0.000 A 
ATOM     30  C   UNL     1       6.213   1.213   0.104  0.00  0.00    +0.000 A 
ATOM     31  C   UNL     1       5.268   1.506  -0.824  0.00  0.00    +0.000 A 
ATOM     32  C   UNL     1       3.951   1.071  -0.656  0.00  0.00    +0.000 A 
ATOM     33  C   UNL     1       3.014   1.414  -1.740  0.00  0.00    +0.000 C 
ENDBRANCH  25  26
ENDBRANCH   1  23
TORSDOF 8
