REMARK  Name = 
REMARK  6 active torsions:
REMARK  status: ('A' for Active; 'I' for Inactive)
REMARK    1  A    between atoms: C_8  and  C_9
REMARK    2  A    between atoms: C_15  and  C_16
REMARK    3  A    between atoms: N_22  and  C_23
REMARK    4  A    between atoms: C_23  and  C_24
REMARK    5  A    between atoms: C_24  and  C_26
REMARK    6  A    between atoms: C_26  and  N_27
REMARK                            x       y       z     vdW  Elec       q    Type
REMARK                         _______ _______ _______ _____ _____    ______ ____
ROOT
ATOM      1  C   UNL     1      -2.533   3.578  -4.625  0.00  0.00    +0.000 C 
ATOM      2  C   UNL     1      -1.794   3.057  -3.420  0.00  0.00    +0.000 A 
ATOM      3  C   UNL     1      -0.590   3.605  -3.036  0.00  0.00    +0.000 A 
ATOM      4  C   UNL     1       0.089   3.124  -1.926  0.00  0.00    +0.000 A 
ATOM      5  C   UNL     1      -0.407   2.086  -1.165  0.00  0.00    +0.000 A 
ATOM      6  C   UNL     1      -1.613   1.543  -1.557  0.00  0.00    +0.000 A 
ATOM      7  C   UNL     1      -2.297   2.019  -2.666  0.00  0.00    +0.000 A 
ATOM      8  C   UNL     1      -1.857   0.547  -0.631  0.00  0.00    +0.000 A 
ATOM      9  C   UNL     1      -0.828   0.485   0.298  0.00  0.00    +0.000 A 
ATOM     10  N   UNL     1       0.048   1.435  -0.048  0.00  0.00    +0.000 N 
ENDROOT
BRANCH   8  11
ATOM     11  C   UNL     1      -3.032  -0.311  -0.641  0.00  0.00    +0.000 A 
ATOM     12  C   UNL     1      -3.959  -0.328   0.378  0.00  0.00    +0.000 A 
ATOM     13  C   UNL     1      -5.056  -1.167   0.311  0.00  0.00    +0.000 A 
ATOM     14  C   UNL     1      -5.278  -2.013  -0.756  0.00  0.00    +0.000 A 
ATOM     15  C   UNL     1      -4.355  -2.000  -1.777  0.00  0.00    +0.000 A 
ATOM     16  C   UNL     1      -3.252  -1.161  -1.716  0.00  0.00    +0.000 A 
ENDBRANCH   8  11
BRANCH   9  17
ATOM     17  C   UNL     1      -0.790  -0.457   1.437  0.00  0.00    +0.000 A 
ATOM     18  C   UNL     1      -0.629   0.023   2.714  0.00  0.00    +0.000 A 
ATOM     19  C   UNL     1      -0.609  -0.838   3.772  0.00  0.00    +0.000 A 
ATOM     20  C   UNL     1      -0.751  -2.182   3.549  0.00  0.00    +0.000 A 
ATOM     21  C   UNL     1      -0.914  -2.704   2.298  0.00  0.00    +0.000 A 
ATOM     22  C   UNL     1      -0.931  -1.814   1.247  0.00  0.00    +0.000 A 
ENDBRANCH   9  17
BRANCH  10  23
ATOM     23  C   UNL     1       1.281   1.737   0.627  0.00  0.00    +0.000 C 
BRANCH  23  24
ATOM     24  C   UNL     1       2.453   0.835  -0.140  0.00  0.00    +0.000 C 
ATOM     25  O   UNL     1       1.773  -0.497   0.190  0.00  0.00    +0.000 OA
BRANCH  24  26
ATOM     26  C   UNL     1       3.403   0.759   1.259  0.00  0.00    +0.000 C 
BRANCH  26  27
ATOM     27  N   UNL     1       4.128  -0.479   1.032  0.00  0.00    +0.000 N 
ATOM     28  C   UNL     1       5.380  -0.585   0.365  0.00  0.00    +0.000 C 
ATOM     29  O   UNL     1       6.069   0.340  -0.109  0.00  0.00    +0.000 OA
ATOM     30  C   UNL     1       5.779  -2.022   0.304  0.00  0.00    +0.000 C 
ATOM     31  C   UNL     1       4.612  -2.808   0.838  0.00  0.00    +0.000 C 
ATOM     32  C   UNL     1       3.717  -1.776   1.429  0.00  0.00    +0.000 C 
ATOM     33  O   UNL     1       2.745  -2.033   2.169  0.00  0.00    +0.000 OA
ENDBRANCH  26  27
ENDBRANCH  24  26
ENDBRANCH  23  24
ENDBRANCH  10  23
TORSDOF 6
