REMARK  Name = 
REMARK  7 active torsions:
REMARK  status: ('A' for Active; 'I' for Inactive)
REMARK    1  A    between atoms: C_2  and  O_3
REMARK    2  A    between atoms: O_3  and  C_4
REMARK    3  A    between atoms: C_7  and  N_8
REMARK    4  A    between atoms: C_11  and  N_12
REMARK    5  A    between atoms: N_12  and  C_13
REMARK    6  A    between atoms: C_19  and  S_20
REMARK    7  A    between atoms: S_20  and  C_21
REMARK                            x       y       z     vdW  Elec       q    Type
REMARK                         _______ _______ _______ _____ _____    ______ ____
ROOT
ATOM      1  N   UNL     1       1.749  -0.205  -0.221  0.00  0.00    +0.000 N 
ATOM      2  C   UNL     1       0.587  -0.332   0.599  0.00  0.00    +0.000 C 
ATOM      3  O   UNL     1       0.593  -0.395   1.875  0.00  0.00    +0.000 OA
ATOM      4  C   UNL     1      -0.592  -0.377  -0.257  0.00  0.00    +0.000 C 
ATOM      5  C   UNL     1      -0.196  -0.285  -1.511  0.00  0.00    +0.000 C 
ATOM      6  C   UNL     1       1.235  -0.178  -1.547  0.00  0.00    +0.000 C 
ATOM      7  O   UNL     1       2.011  -0.070  -2.556  0.00  0.00    +0.000 OA
ENDROOT
BRANCH   1  11
ATOM      8  C   UNL     1       5.804   0.054   1.024  0.00  0.00    +0.000 A 
ATOM      9  C   UNL     1       5.156   1.127   0.451  0.00  0.00    +0.000 A 
ATOM     10  C   UNL     1       3.838   1.042   0.046  0.00  0.00    +0.000 A 
ATOM     11  C   UNL     1       3.112  -0.125   0.200  0.00  0.00    +0.000 A 
ATOM     12  C   UNL     1       3.767  -1.196   0.775  0.00  0.00    +0.000 A 
ATOM     13  C   UNL     1       5.091  -1.114   1.183  0.00  0.00    +0.000 A 
BRANCH   8  14
ATOM     14  O   UNL     1       7.128   0.143   1.430  0.00  0.00    +0.000 OA
BRANCH  14  16
ATOM     15  C   UNL     1       7.118  -1.302   3.293  0.00  0.00    +0.000 C 
ATOM     16  C   UNL     1       7.834  -0.906   2.014  0.00  0.00    +0.000 C 
ENDBRANCH  14  16
ENDBRANCH   8  14
ENDBRANCH   1  11
BRANCH   4  17
ATOM     17  N   UNL     1      -1.913  -0.500   0.243  0.00  0.00    +0.000 NA
BRANCH  17  18
ATOM     18  C   UNL     1      -2.458   0.556   1.024  0.00  0.00    +0.000 A 
ATOM     19  C   UNL     1      -1.724   1.691   1.298  0.00  0.00    +0.000 A 
ATOM     20  C   UNL     1      -2.239   2.723   2.055  0.00  0.00    +0.000 A 
ATOM     21  C   UNL     1      -3.513   2.645   2.560  0.00  0.00    +0.000 A 
ATOM     22  C   UNL     1      -4.281   1.514   2.302  0.00  0.00    +0.000 A 
ATOM     23  C   UNL     1      -3.737   0.493   1.539  0.00  0.00    +0.000 A 
ENDBRANCH  17  18
ENDBRANCH   4  17
BRANCH   5  24
ATOM     24  S   UNL     1      -1.238  -0.291  -2.962  0.00  0.00    +0.000 S 
BRANCH  24  25
ATOM     25  C   UNL     1      -2.964  -0.439  -2.546  0.00  0.00    +0.000 A 
ATOM     26  C   UNL     1      -3.763   0.674  -2.315  0.00  0.00    +0.000 A 
ATOM     27  C   UNL     1      -5.098   0.523  -1.996  0.00  0.00    +0.000 A 
ATOM     28  C   UNL     1      -5.696  -0.718  -1.892  0.00  0.00    +0.000 A 
ATOM     29  C   UNL     1      -7.144  -0.824  -1.544  0.00  0.00    +0.000 C 
ATOM     30  C   UNL     1      -4.904  -1.823  -2.122  0.00  0.00    +0.000 A 
ATOM     31  C   UNL     1      -3.564  -1.674  -2.442  0.00  0.00    +0.000 A 
ENDBRANCH  24  25
ENDBRANCH   5  24
TORSDOF 7
