REMARK  Name = 
REMARK  7 active torsions:
REMARK  status: ('A' for Active; 'I' for Inactive)
REMARK    1  A    between atoms: N_2  and  C_4
REMARK    2  A    between atoms: C_7  and  C_8
REMARK    3  A    between atoms: C_9  and  N_10
REMARK    4  A    between atoms: C_9  and  C_19
REMARK    5  A    between atoms: C_11  and  C_13
REMARK    6  A    between atoms: N_21  and  N_22
REMARK    7  A    between atoms: C_23  and  C_24
REMARK                            x       y       z     vdW  Elec       q    Type
REMARK                         _______ _______ _______ _____ _____    ______ ____
ROOT
ATOM      1  C   UNL     1      -2.516   0.244   0.188  0.00  0.00    +0.000 C 
ATOM      2  C   UNL     1      -1.339   0.757   0.005  0.00  0.00    +0.000 C 
ENDROOT
BRANCH   1   6
ATOM      3  C   UNL     1      -4.104  -3.695  -0.318  0.00  0.00    +0.000 A 
ATOM      4  C   UNL     1      -4.709  -2.566  -0.816  0.00  0.00    +0.000 A 
ATOM      5  C   UNL     1      -4.159  -1.320  -0.644  0.00  0.00    +0.000 A 
ATOM      6  C   UNL     1      -2.951  -1.114   0.046  0.00  0.00    +0.000 A 
ATOM      7  C   UNL     1      -2.373  -2.245   0.529  0.00  0.00    +0.000 A 
ATOM      8  C   UNL     1      -2.912  -3.499   0.364  0.00  0.00    +0.000 A 
BRANCH   3  10
ATOM      9  C   UNL     1      -4.049  -6.183   0.023  0.00  0.00    +0.000 C 
ATOM     10  N   UNL     1      -4.671  -4.983  -0.486  0.00  0.00    +0.000 N 
ATOM     11  C   UNL     1      -5.934  -5.104  -1.197  0.00  0.00    +0.000 C 
ENDBRANCH   3  10
ENDBRANCH   1   6
BRANCH   2  12
ATOM     12  N   UNL     1      -1.097   2.177   0.208  0.00  0.00    +0.000 NA
ATOM     13  C   UNL     1      -0.193   2.600   1.225  0.00  0.00    +0.000 C 
ATOM     14  O   UNL     1       0.349   1.686   1.900  0.00  0.00    +0.000 OA
BRANCH  13  15
ATOM     15  C   UNL     1       0.115   3.987   1.505  0.00  0.00    +0.000 A 
ATOM     16  C   UNL     1       0.314   4.361   2.821  0.00  0.00    +0.000 A 
ATOM     17  C   UNL     1       0.611   5.666   3.158  0.00  0.00    +0.000 A 
ATOM     18  C   UNL     1       0.703   6.585   2.121  0.00  0.00    +0.000 A 
ATOM     19  C   UNL     1       0.514   6.265   0.798  0.00  0.00    +0.000 A 
ATOM     20  C   UNL     1       0.217   4.934   0.524  0.00  0.00    +0.000 A 
ENDBRANCH  13  15
ENDBRANCH   2  12
BRANCH   2  21
ATOM     21  C   UNL     1      -0.259  -0.086  -0.458  0.00  0.00    +0.000 C 
ATOM     22  O   UNL     1      -0.307  -1.290  -0.723  0.00  0.00    +0.000 OA
ATOM     23  N   UNL     1       1.028   0.552  -0.635  0.00  0.00    +0.000 NA
BRANCH  23  24
ATOM     24  N   UNL     1       2.167  -0.066  -1.071  0.00  0.00    +0.000 NA
ATOM     25  C   UNL     1       3.315  -0.100  -0.545  0.00  0.00    +0.000 C 
BRANCH  25  26
ATOM     26  C   UNL     1       4.364  -0.850  -1.243  0.00  0.00    +0.000 A 
ATOM     27  C   UNL     1       4.239  -1.540  -2.435  0.00  0.00    +0.000 A 
ATOM     28  C   UNL     1       5.481  -2.076  -2.703  0.00  0.00    +0.000 A 
ATOM     29  C   UNL     1       6.340  -1.721  -1.698  0.00  0.00    +0.000 A 
ATOM     30  N   UNL     1       5.623  -0.979  -0.836  0.00  0.00    +0.000 N 
ATOM     31  C   UNL     1       6.190  -0.398   0.389  0.00  0.00    +0.000 C 
ENDBRANCH  25  26
ENDBRANCH  23  24
ENDBRANCH   2  21
TORSDOF 7
