REMARK  Name = 
REMARK  7 active torsions:
REMARK  status: ('A' for Active; 'I' for Inactive)
REMARK    1  A    between atoms: O_2  and  C_3
REMARK    2  A    between atoms: C_6  and  N_7
REMARK    3  A    between atoms: C_8  and  C_10
REMARK    4  A    between atoms: C_11  and  N_12
REMARK    5  A    between atoms: C_13  and  C_15
REMARK    6  A    between atoms: C_15  and  O_16
REMARK    7  A    between atoms: O_16  and  C_17
REMARK                            x       y       z     vdW  Elec       q    Type
REMARK                         _______ _______ _______ _____ _____    ______ ____
ROOT
ATOM      1  C   UNL     1      -0.320   0.892  -0.233  0.00  0.00    +0.000 A 
ATOM      2  C   UNL     1       0.935   0.425  -0.505  0.00  0.00    +0.000 A 
ATOM      3  S   UNL     1       1.891   1.830  -0.489  0.00  0.00    +0.000 S 
ATOM      4  C   UNL     1       0.682   2.980  -0.137  0.00  0.00    +0.000 A 
ATOM      5  C   UNL     1      -0.452   2.220  -0.041  0.00  0.00    +0.000 A 
ATOM      6  C   UNL     1      -1.794   2.879   0.271  0.00  0.00    +0.000 C 
ATOM      7  C   UNL     1      -2.053   3.892  -0.837  0.00  0.00    +0.000 C 
ATOM      8  C   UNL     1      -1.377   5.205  -0.556  0.00  0.00    +0.000 C 
ATOM      9  C   UNL     1       0.046   5.165  -1.059  0.00  0.00    +0.000 C 
ATOM     10  C   UNL     1       0.875   4.471   0.021  0.00  0.00    +0.000 C 
ENDROOT
BRANCH   1  12
ATOM     11  N   UNL     1      -2.746   0.424   0.120  0.00  0.00    +0.000 NA
ATOM     12  C   UNL     1      -1.452  -0.061  -0.162  0.00  0.00    +0.000 C 
ATOM     13  O   UNL     1      -1.315  -1.281  -0.340  0.00  0.00    +0.000 OA
BRANCH  11  17
ATOM     14  C   UNL     1      -6.228  -1.856   0.421  0.00  0.00    +0.000 A 
ATOM     15  C   UNL     1      -5.051  -2.514   0.137  0.00  0.00    +0.000 A 
ATOM     16  C   UNL     1      -3.896  -1.740   0.040  0.00  0.00    +0.000 A 
ATOM     17  C   UNL     1      -3.899  -0.384   0.213  0.00  0.00    +0.000 A 
ATOM     18  C   UNL     1      -5.100   0.265   0.500  0.00  0.00    +0.000 A 
ATOM     19  C   UNL     1      -6.244  -0.496   0.597  0.00  0.00    +0.000 A 
BRANCH  14  21
ATOM     20  C   UNL     1      -8.643  -1.953   0.819  0.00  0.00    +0.000 C 
ATOM     21  O   UNL     1      -7.417  -2.578   0.531  0.00  0.00    +0.000 OA
ENDBRANCH  14  21
ENDBRANCH  11  17
ENDBRANCH   1  12
BRANCH   2  22
ATOM     22  N   UNL     1       1.357  -0.915  -0.748  0.00  0.00    +0.000 NA
ATOM     23  C   UNL     1       2.736  -1.174  -1.015  0.00  0.00    +0.000 C 
ATOM     24  O   UNL     1       3.509  -0.197  -1.022  0.00  0.00    +0.000 OA
BRANCH  23  25
ATOM     25  C   UNL     1       3.217  -2.555  -1.273  0.00  0.00    +0.000 C 
BRANCH  25  26
ATOM     26  O   UNL     1       4.598  -2.579  -1.490  0.00  0.00    +0.000 OA
BRANCH  26  27
ATOM     27  C   UNL     1       5.450  -2.140  -0.486  0.00  0.00    +0.000 A 
ATOM     28  C   UNL     1       5.005  -1.677   0.734  0.00  0.00    +0.000 A 
ATOM     29  C   UNL     1       5.918  -1.264   1.664  0.00  0.00    +0.000 A 
ATOM     30  C   UNL     1       7.266  -1.312   1.382  0.00  0.00    +0.000 A 
ATOM     31  C   UNL     1       7.694  -1.776   0.165  0.00  0.00    +0.000 A 
ATOM     32  C   UNL     1       6.808  -2.198  -0.791  0.00  0.00    +0.000 A 
ENDBRANCH  26  27
ENDBRANCH  25  26
ENDBRANCH  23  25
ENDBRANCH   2  22
TORSDOF 7
