REMARK  Name = 
REMARK  7 active torsions:
REMARK  status: ('A' for Active; 'I' for Inactive)
REMARK    1  A    between atoms: C_2  and  C_3
REMARK    2  A    between atoms: C_4  and  C_5
REMARK    3  A    between atoms: N_7  and  C_8
REMARK    4  A    between atoms: C_8  and  C_9
REMARK    5  A    between atoms: C_8  and  C_16
REMARK    6  A    between atoms: C_9  and  C_10
REMARK    7  A    between atoms: C_26  and  C_27
REMARK                            x       y       z     vdW  Elec       q    Type
REMARK                         _______ _______ _______ _____ _____    ______ ____
ROOT
ATOM      1  C   UNL     1      -0.461  -0.514  -0.196  0.00  0.00    +0.000 C 
ATOM      2  O   UNL     1      -1.270  -1.212  -0.841  0.00  0.00    +0.000 OA
ATOM      3  N   UNL     1      -0.889   0.411   0.724  0.00  0.00    +0.000 NA
ENDROOT
BRANCH   1   5
ATOM      4  C   UNL     1       1.889   0.222   0.170  0.00  0.00    +0.000 A 
ATOM      5  C   UNL     1       0.997  -0.643  -0.384  0.00  0.00    +0.000 A 
ATOM      6  C   UNL     1       1.440  -1.708  -1.143  0.00  0.00    +0.000 A 
ATOM      7  N   UNL     1       2.778  -1.885  -1.333  0.00  0.00    +0.000 NA
ATOM      8  C   UNL     1       3.594  -1.006  -0.764  0.00  0.00    +0.000 A 
ATOM      9  C   UNL     1       4.982  -0.924  -0.782  0.00  0.00    +0.000 A 
ATOM     10  C   UNL     1       5.392   0.164  -0.052  0.00  0.00    +0.000 A 
ATOM     11  N   UNL     1       4.249   0.730   0.400  0.00  0.00    +0.000 NA
ATOM     12  N   UNL     1       3.200   0.042  -0.020  0.00  0.00    +0.000 N 
BRANCH  10  13
ATOM     13  C   UNL     1       6.785   0.640   0.205  0.00  0.00    +0.000 C 
ATOM     14  C   UNL     1       7.744  -0.316  -0.479  0.00  0.00    +0.000 C 
ATOM     15  C   UNL     1       7.112   0.689   1.663  0.00  0.00    +0.000 C 
ATOM     16  C   UNL     1       6.950   1.990  -0.481  0.00  0.00    +0.000 C 
ENDBRANCH  10  13
BRANCH   4  18
ATOM     17  C   UNL     1       0.889   2.408  -0.033  0.00  0.00    +0.000 C 
ATOM     18  C   UNL     1       1.389   1.377   0.974  0.00  0.00    +0.000 C 
ENDBRANCH   4  18
ENDBRANCH   1   5
BRANCH   3  19
ATOM     19  C   UNL     1      -2.432   0.631   1.005  0.00  0.00    +0.000 C 
BRANCH  19  20
ATOM     20  C   UNL     1      -2.813  -0.894   0.936  0.00  0.00    +0.000 A 
ATOM     21  C   UNL     1      -3.782  -1.425   0.212  0.00  0.00    +0.000 A 
ATOM     22  C   UNL     1      -4.063  -2.766   0.230  0.00  0.00    +0.000 A 
ATOM     23  C   UNL     1      -3.306  -3.580   1.030  0.00  0.00    +0.000 A 
ATOM     24  C   UNL     1      -2.281  -3.089   1.809  0.00  0.00    +0.000 A 
ATOM     25  C   UNL     1      -2.047  -1.700   1.744  0.00  0.00    +0.000 A 
ENDBRANCH  19  20
BRANCH  19  26
ATOM     26  C   UNL     1      -2.794   1.104  -0.518  0.00  0.00    +0.000 C 
BRANCH  26  27
ATOM     27  C   UNL     1      -4.232   1.429  -0.380  0.00  0.00    +0.000 A 
ATOM     28  C   UNL     1      -4.484   2.736   0.095  0.00  0.00    +0.000 A 
ATOM     29  C   UNL     1      -5.789   3.121   0.223  0.00  0.00    +0.000 A 
ATOM     30  C   UNL     1      -6.843   2.300  -0.086  0.00  0.00    +0.000 A 
ATOM     31  C   UNL     1      -6.607   1.035  -0.546  0.00  0.00    +0.000 A 
ATOM     32  C   UNL     1      -5.298   0.634  -0.680  0.00  0.00    +0.000 A 
ENDBRANCH  26  27
ENDBRANCH  19  26
ENDBRANCH   3  19
TORSDOF 7
