REMARK  Name = 
REMARK  7 active torsions:
REMARK  status: ('A' for Active; 'I' for Inactive)
REMARK    1  A    between atoms: N_2  and  C_4
REMARK    2  A    between atoms: C_7  and  C_8
REMARK    3  A    between atoms: C_9  and  C_10
REMARK    4  A    between atoms: N_12  and  C_13
REMARK    5  A    between atoms: C_13  and  C_14
REMARK    6  A    between atoms: C_14  and  C_15
REMARK    7  A    between atoms: C_22  and  C_23
REMARK                            x       y       z     vdW  Elec       q    Type
REMARK                         _______ _______ _______ _____ _____    ______ ____
ROOT
ATOM      1  C   UNL     1      -1.670   1.183  -1.001  0.00  0.00    +0.000 C 
ATOM      2  C   UNL     1      -0.422   1.466  -0.938  0.00  0.00    +0.000 C 
ATOM      3  C   UNL     1      -0.279   2.974  -1.530  0.00  0.00    +0.000 C 
ATOM      4  O   UNL     1      -1.523   2.841  -2.425  0.00  0.00    +0.000 OA
ATOM      5  N   UNL     1      -2.378   2.292  -1.558  0.00  0.00    +0.000 NA
ENDROOT
BRANCH   1   9
ATOM      6  C   UNL     1      -3.466  -2.466   0.287  0.00  0.00    +0.000 A 
ATOM      7  C   UNL     1      -4.083  -1.241   0.512  0.00  0.00    +0.000 A 
ATOM      8  C   UNL     1      -3.470  -0.081   0.085  0.00  0.00    +0.000 A 
ATOM      9  C   UNL     1      -2.254  -0.081  -0.566  0.00  0.00    +0.000 A 
ATOM     10  C   UNL     1      -1.691  -1.314  -0.763  0.00  0.00    +0.000 A 
ATOM     11  C   UNL     1      -2.254  -2.497  -0.360  0.00  0.00    +0.000 A 
BRANCH   6  13
ATOM     12  C   UNL     1      -3.378  -4.942   0.449  0.00  0.00    +0.000 C 
ATOM     13  N   UNL     1      -4.042  -3.691   0.700  0.00  0.00    +0.000 N 
ATOM     14  C   UNL     1      -5.319  -3.673   1.383  0.00  0.00    +0.000 C 
ENDBRANCH   6  13
ENDBRANCH   1   9
BRANCH   3  15
ATOM     15  C   UNL     1      -0.963   3.735  -0.335  0.00  0.00    +0.000 A 
ATOM     16  C   UNL     1      -0.626   3.325   0.912  0.00  0.00    +0.000 A 
ATOM     17  C   UNL     1      -1.195   3.957   2.050  0.00  0.00    +0.000 A 
ATOM     18  C   UNL     1      -2.083   4.980   1.836  0.00  0.00    +0.000 A 
ATOM     19  C   UNL     1      -2.409   5.379   0.579  0.00  0.00    +0.000 A 
ATOM     20  C   UNL     1      -1.837   4.742  -0.497  0.00  0.00    +0.000 A 
ENDBRANCH   3  15
BRANCH   2  21
ATOM     21  C   UNL     1       0.774   0.782  -0.487  0.00  0.00    +0.000 C 
ATOM     22  O   UNL     1       1.910   1.352  -0.559  0.00  0.00    +0.000 OA
ATOM     23  N   UNL     1       0.816  -0.511   0.052  0.00  0.00    +0.000 NA
BRANCH  23  24
ATOM     24  C   UNL     1       2.018  -1.176   0.498  0.00  0.00    +0.000 C 
BRANCH  24  25
ATOM     25  C   UNL     1       3.022  -1.325  -0.638  0.00  0.00    +0.000 C 
BRANCH  25  26
ATOM     26  C   UNL     1       4.206  -2.014  -0.067  0.00  0.00    +0.000 A 
ATOM     27  C   UNL     1       4.450  -3.330  -0.311  0.00  0.00    +0.000 A 
ATOM     28  C   UNL     1       5.539  -4.018   0.199  0.00  0.00    +0.000 A 
ATOM     29  C   UNL     1       6.416  -3.332   0.990  0.00  0.00    +0.000 A 
ATOM     30  C   UNL     1       6.192  -1.998   1.252  0.00  0.00    +0.000 A 
ATOM     31  C   UNL     1       5.088  -1.315   0.732  0.00  0.00    +0.000 A 
ATOM     32  F   UNL     1       4.911  -0.002   1.018  0.00  0.00    +0.000 F 
ENDBRANCH  25  26
ENDBRANCH  24  25
ENDBRANCH  23  24
ENDBRANCH   2  21
TORSDOF 7
