REMARK  Name = 
REMARK  8 active torsions:
REMARK  status: ('A' for Active; 'I' for Inactive)
REMARK    1  A    between atoms: O_2  and  C_3
REMARK    2  A    between atoms: C_8  and  O_9
REMARK    3  A    between atoms: O_9  and  C_10
REMARK    4  A    between atoms: C_10  and  C_11
REMARK    5  A    between atoms: C_17  and  C_18
REMARK    6  A    between atoms: C_22  and  O_23
REMARK    7  A    between atoms: O_23  and  C_24
REMARK    8  A    between atoms: C_24  and  C_25
REMARK                            x       y       z     vdW  Elec       q    Type
REMARK                         _______ _______ _______ _____ _____    ______ ____
ROOT
ATOM      1  C   UNL     1      -2.023   1.649   0.152  0.00  0.00    +0.000 A 
ATOM      2  C   UNL     1      -0.736   2.116  -0.114  0.00  0.00    +0.000 A 
ATOM      3  C   UNL     1       0.229   1.276  -0.671  0.00  0.00    +0.000 A 
ATOM      4  C   UNL     1      -0.125   0.021  -0.938  0.00  0.00    +0.000 A 
ATOM      5  C   UNL     1      -1.391  -0.451  -0.680  0.00  0.00    +0.000 A 
ATOM      6  C   UNL     1      -2.374   0.349  -0.129  0.00  0.00    +0.000 A 
ATOM      7  C   UNL     1       0.919  -1.004  -1.583  0.00  0.00    +0.000 C 
ATOM      8  N   UNL     1       1.387   0.020  -2.704  0.00  0.00    +0.000 NA
ATOM      9  C   UNL     1       2.094   1.066  -2.168  0.00  0.00    +0.000 C 
ATOM     10  C   UNL     1       1.604   1.766  -0.952  0.00  0.00    +0.000 C 
ENDROOT
BRANCH   7  11
ATOM     11  C   UNL     1       2.128  -0.745  -0.560  0.00  0.00    +0.000 A 
ATOM     12  C   UNL     1       1.881  -0.592   0.741  0.00  0.00    +0.000 A 
ATOM     13  C   UNL     1       2.941  -0.371   1.594  0.00  0.00    +0.000 A 
ATOM     14  C   UNL     1       4.234  -0.305   1.134  0.00  0.00    +0.000 A 
ATOM     15  C   UNL     1       4.460  -0.466  -0.215  0.00  0.00    +0.000 A 
ATOM     16  C   UNL     1       3.382  -0.688  -1.054  0.00  0.00    +0.000 A 
BRANCH  15  17
ATOM     17  O   UNL     1       5.679  -0.427  -0.817  0.00  0.00    +0.000 OA
BRANCH  17  18
ATOM     18  C   UNL     1       6.949  -0.243  -0.371  0.00  0.00    +0.000 C 
BRANCH  18  19
ATOM     19  C   UNL     1       7.528  -1.191   0.600  0.00  0.00    +0.000 C 
ATOM     20  C   UNL     1       6.788  -1.287   1.908  0.00  0.00    +0.000 C 
ATOM     21  C   UNL     1       8.955  -0.800   0.912  0.00  0.00    +0.000 C 
ENDBRANCH  18  19
ENDBRANCH  17  18
ENDBRANCH  15  17
ENDBRANCH   7  11
BRANCH   1  23
ATOM     22  C   UNL     1      -2.560   3.855   0.986  0.00  0.00    +0.000 C 
ATOM     23  O   UNL     1      -2.961   2.529   0.713  0.00  0.00    +0.000 OA
ENDBRANCH   1  23
BRANCH   6  24
ATOM     24  O   UNL     1      -3.644  -0.087   0.140  0.00  0.00    +0.000 OA
BRANCH  24  25
ATOM     25  C   UNL     1      -4.130  -1.374  -0.094  0.00  0.00    +0.000 C 
BRANCH  25  26
ATOM     26  C   UNL     1      -5.559  -1.408   0.347  0.00  0.00    +0.000 A 
ATOM     27  C   UNL     1      -5.904  -1.744   1.617  0.00  0.00    +0.000 A 
ATOM     28  C   UNL     1      -7.221  -1.760   1.969  0.00  0.00    +0.000 A 
ATOM     29  C   UNL     1      -8.181  -1.444   1.061  0.00  0.00    +0.000 A 
ATOM     30  C   UNL     1      -7.837  -1.101  -0.229  0.00  0.00    +0.000 A 
ATOM     31  C   UNL     1      -6.512  -1.082  -0.594  0.00  0.00    +0.000 A 
ENDBRANCH  25  26
ENDBRANCH  24  25
ENDBRANCH   6  24
TORSDOF 8
