REMARK  Name = 
REMARK  7 active torsions:
REMARK  status: ('A' for Active; 'I' for Inactive)
REMARK    1  A    between atoms: C_8  and  C_9
REMARK    2  A    between atoms: C_15  and  C_16
REMARK    3  A    between atoms: N_22  and  C_23
REMARK    4  A    between atoms: C_23  and  C_24
REMARK    5  A    between atoms: C_24  and  C_26
REMARK    6  A    between atoms: C_26  and  N_27
REMARK    7  A    between atoms: N_27  and  C_28
REMARK                            x       y       z     vdW  Elec       q    Type
REMARK                         _______ _______ _______ _____ _____    ______ ____
ROOT
ATOM      1  C   UNL     1       0.761   4.553   2.348  0.00  0.00    +0.000 C 
ATOM      2  C   UNL     1       0.631   3.134   1.877  0.00  0.00    +0.000 A 
ATOM      3  C   UNL     1       1.668   2.236   2.023  0.00  0.00    +0.000 A 
ATOM      4  C   UNL     1       1.552   0.937   1.595  0.00  0.00    +0.000 A 
ATOM      5  C   UNL     1       0.383   0.468   0.995  0.00  0.00    +0.000 A 
ATOM      6  C   UNL     1      -0.661   1.354   0.843  0.00  0.00    +0.000 A 
ATOM      7  C   UNL     1      -0.526   2.674   1.285  0.00  0.00    +0.000 A 
ATOM      8  C   UNL     1      -1.666   0.629   0.232  0.00  0.00    +0.000 A 
ATOM      9  C   UNL     1      -1.256  -0.672   0.010  0.00  0.00    +0.000 A 
ATOM     10  N   UNL     1       0.006  -0.708   0.499  0.00  0.00    +0.000 N 
ENDROOT
BRANCH   8  11
ATOM     11  C   UNL     1      -2.962   1.192  -0.110  0.00  0.00    +0.000 A 
ATOM     12  C   UNL     1      -3.372   1.194  -1.443  0.00  0.00    +0.000 A 
ATOM     13  C   UNL     1      -4.580   1.713  -1.839  0.00  0.00    +0.000 A 
ATOM     14  C   UNL     1      -5.424   2.249  -0.922  0.00  0.00    +0.000 A 
ATOM     15  C   UNL     1      -5.044   2.264   0.427  0.00  0.00    +0.000 A 
ATOM     16  C   UNL     1      -3.822   1.735   0.799  0.00  0.00    +0.000 A 
ENDBRANCH   8  11
BRANCH   9  17
ATOM     17  C   UNL     1      -1.984  -1.774  -0.604  0.00  0.00    +0.000 A 
ATOM     18  C   UNL     1      -3.122  -2.258   0.003  0.00  0.00    +0.000 A 
ATOM     19  C   UNL     1      -3.873  -3.303  -0.515  0.00  0.00    +0.000 A 
ATOM     20  C   UNL     1      -3.481  -3.902  -1.693  0.00  0.00    +0.000 A 
ATOM     21  C   UNL     1      -2.353  -3.444  -2.322  0.00  0.00    +0.000 A 
ATOM     22  C   UNL     1      -1.633  -2.404  -1.777  0.00  0.00    +0.000 A 
ENDBRANCH   9  17
BRANCH  10  23
ATOM     23  C   UNL     1       0.846  -1.892   0.478  0.00  0.00    +0.000 C 
BRANCH  23  24
ATOM     24  C   UNL     1       1.656  -1.745  -0.999  0.00  0.00    +0.000 C 
ATOM     25  O   UNL     1       2.422  -3.069  -0.750  0.00  0.00    +0.000 OA
BRANCH  24  26
ATOM     26  C   UNL     1       2.878  -0.840  -0.304  0.00  0.00    +0.000 C 
BRANCH  26  27
ATOM     27  N   UNL     1       3.954  -1.207  -1.196  0.00  0.00    +0.000 NA
BRANCH  27  28
ATOM     28  C   UNL     1       5.209  -0.597  -0.877  0.00  0.00    +0.000 C 
ATOM     29  C   UNL     1       5.236   0.888  -0.957  0.00  0.00    +0.000 C 
ATOM     30  C   UNL     1       6.464   1.257  -0.130  0.00  0.00    +0.000 C 
ATOM     31  C   UNL     1       6.419   0.277   1.024  0.00  0.00    +0.000 C 
ATOM     32  C   UNL     1       5.672  -0.940   0.521  0.00  0.00    +0.000 C 
ENDBRANCH  27  28
ENDBRANCH  26  27
ENDBRANCH  24  26
ENDBRANCH  23  24
ENDBRANCH  10  23
TORSDOF 7
