REMARK  Name = 
REMARK  10 active torsions:
REMARK  status: ('A' for Active; 'I' for Inactive)
REMARK    1  A    between atoms: C_2  and  C_3
REMARK    2  A    between atoms: C_8  and  N_9
REMARK    3  A    between atoms: C_10  and  C_12
REMARK    4  A    between atoms: C_12  and  O_13
REMARK    5  A    between atoms: O_13  and  C_14
REMARK    6  A    between atoms: C_14  and  C_16
REMARK    7  A    between atoms: C_16  and  C_17
REMARK    8  A    between atoms: C_17  and  C_18
REMARK    9  A    between atoms: C_18  and  O_19
REMARK   10  A    between atoms: O_19  and  C_20
REMARK                            x       y       z     vdW  Elec       q    Type
REMARK                         _______ _______ _______ _____ _____    ______ ____
ROOT
ATOM      1  C   UNL     1      -0.275   2.868   0.415  0.00  0.00    +0.000 C 
ATOM      2  O   UNL     1      -0.570   1.879   1.103  0.00  0.00    +0.000 OA
ENDROOT
BRANCH   1   3
ATOM      3  O   UNL     1      -1.300   3.475  -0.331  0.00  0.00    +0.000 OA
BRANCH   3   4
ATOM      4  C   UNL     1      -2.594   2.903  -0.249  0.00  0.00    +0.000 C 
BRANCH   4   6
ATOM      5  N   UNL     1      -3.726   0.664  -0.675  0.00  0.00    +0.000 NA
ATOM      6  C   UNL     1      -2.547   1.494  -0.706  0.00  0.00    +0.000 C 
ATOM      7  O   UNL     1      -1.503   0.925  -1.144  0.00  0.00    +0.000 OA
BRANCH   5  13
ATOM      8  C   UNL     1      -4.816  -1.430  -1.049  0.00  0.00    +0.000 A 
ATOM      9  C   UNL     1      -4.869  -2.772  -1.448  0.00  0.00    +0.000 A 
ATOM     10  C   UNL     1      -3.726  -3.359  -1.918  0.00  0.00    +0.000 A 
ATOM     11  C   UNL     1      -2.565  -2.634  -1.989  0.00  0.00    +0.000 A 
ATOM     12  C   UNL     1      -2.521  -1.295  -1.588  0.00  0.00    +0.000 A 
ATOM     13  C   UNL     1      -3.658  -0.685  -1.112  0.00  0.00    +0.000 A 
BRANCH   8  15
ATOM     14  C   UNL     1      -5.959  -0.695   0.981  0.00  0.00    +0.000 C 
ATOM     15  C   UNL     1      -6.069  -0.805  -0.541  0.00  0.00    +0.000 C 
ENDBRANCH   8  15
ENDBRANCH   5  13
ENDBRANCH   4   6
ENDBRANCH   3   4
ENDBRANCH   1   3
BRANCH   1  16
ATOM     16  C   UNL     1       1.117   3.445   0.344  0.00  0.00    +0.000 C 
BRANCH  16  17
ATOM     17  C   UNL     1       1.674   3.772   1.671  0.00  0.00    +0.000 C 
BRANCH  17  18
ATOM     18  C   UNL     1       1.880   2.673   2.606  0.00  0.00    +0.000 C 
BRANCH  18  19
ATOM     19  O   UNL     1       2.756   1.685   2.389  0.00  0.00    +0.000 OA
BRANCH  19  20
ATOM     20  C   UNL     1       3.001   0.728   1.480  0.00  0.00    +0.000 A 
ATOM     21  C   UNL     1       2.216   0.581   0.365  0.00  0.00    +0.000 A 
ATOM     22  C   UNL     1       2.477  -0.401  -0.553  0.00  0.00    +0.000 A 
ATOM     23  C   UNL     1       3.535  -1.298  -0.420  0.00  0.00    +0.000 A 
ATOM     24  C   UNL     1       3.769  -2.272  -1.367  0.00  0.00    +0.000 A 
ATOM     25  C   UNL     1       4.842  -3.123  -1.167  0.00  0.00    +0.000 A 
ATOM     26  C   UNL     1       5.660  -3.002  -0.046  0.00  0.00    +0.000 A 
ATOM     27  C   UNL     1       5.387  -2.019   0.867  0.00  0.00    +0.000 A 
ATOM     28  C   UNL     1       4.314  -1.137   0.705  0.00  0.00    +0.000 A 
ATOM     29  C   UNL     1       4.072  -0.165   1.635  0.00  0.00    +0.000 A 
ENDBRANCH  19  20
ENDBRANCH  18  19
ENDBRANCH  17  18
ENDBRANCH  16  17
ENDBRANCH   1  16
TORSDOF 10
