REMARK  Name = 
REMARK  8 active torsions:
REMARK  status: ('A' for Active; 'I' for Inactive)
REMARK    1  A    between atoms: O_2  and  C_3
REMARK    2  A    between atoms: C_6  and  C_7
REMARK    3  A    between atoms: C_9  and  C_10
REMARK    4  A    between atoms: N_12  and  C_13
REMARK    5  A    between atoms: C_13  and  C_14
REMARK    6  A    between atoms: C_14  and  C_15
REMARK    7  A    between atoms: C_15  and  C_16
REMARK    8  A    between atoms: C_29  and  O_30
REMARK                            x       y       z     vdW  Elec       q    Type
REMARK                         _______ _______ _______ _____ _____    ______ ____
ROOT
ATOM      1  C   UNL     1      -2.095  -0.368   0.497  0.00  0.00    +0.000 A 
ATOM      2  C   UNL     1      -0.908  -1.034   0.241  0.00  0.00    +0.000 A 
ATOM      3  C   UNL     1       0.306  -0.388   0.355  0.00  0.00    +0.000 A 
ATOM      4  C   UNL     1       0.366   0.939   0.727  0.00  0.00    +0.000 A 
ATOM      5  C   UNL     1       1.562   1.618   0.851  0.00  0.00    +0.000 A 
ATOM      6  C   UNL     1       1.605   2.956   1.228  0.00  0.00    +0.000 A 
ATOM      7  C   UNL     1       0.414   3.608   1.481  0.00  0.00    +0.000 A 
ATOM      8  C   UNL     1      -0.771   2.914   1.352  0.00  0.00    +0.000 A 
ATOM      9  C   UNL     1      -0.820   1.578   0.976  0.00  0.00    +0.000 A 
ATOM     10  N   UNL     1      -1.999   0.923   0.858  0.00  0.00    +0.000 NA
ENDROOT
BRANCH   1  14
ATOM     11  C   UNL     1      -5.883  -2.317   0.162  0.00  0.00    +0.000 A 
ATOM     12  C   UNL     1      -4.723  -3.004  -0.099  0.00  0.00    +0.000 A 
ATOM     13  C   UNL     1      -3.474  -2.380   0.006  0.00  0.00    +0.000 A 
ATOM     14  C   UNL     1      -3.373  -1.058   0.375  0.00  0.00    +0.000 A 
ATOM     15  C   UNL     1      -4.543  -0.378   0.634  0.00  0.00    +0.000 A 
ATOM     16  C   UNL     1      -5.777  -0.996   0.530  0.00  0.00    +0.000 A 
BRANCH  11  18
ATOM     17  C   UNL     1      -8.334  -2.224   0.328  0.00  0.00    +0.000 C 
ATOM     18  O   UNL     1      -7.140  -2.900   0.068  0.00  0.00    +0.000 OA
ENDBRANCH  11  18
BRANCH  15  19
ATOM     19  O   UNL     1      -4.449   0.957   1.007  0.00  0.00    +0.000 OA
ATOM     20  C   UNL     1      -5.537   1.779   1.302  0.00  0.00    +0.000 C 
ENDBRANCH  15  19
ENDBRANCH   1  14
BRANCH   3  21
ATOM     21  C   UNL     1       1.572  -1.063   0.091  0.00  0.00    +0.000 C 
ATOM     22  O   UNL     1       1.524  -2.285  -0.252  0.00  0.00    +0.000 OA
ATOM     23  N   UNL     1       2.821  -0.405   0.206  0.00  0.00    +0.000 NA
BRANCH  23  24
ATOM     24  C   UNL     1       4.025  -1.168  -0.078  0.00  0.00    +0.000 C 
BRANCH  24  25
ATOM     25  C   UNL     1       4.035  -1.695  -1.485  0.00  0.00    +0.000 C 
BRANCH  25  26
ATOM     26  C   UNL     1       3.964  -0.520  -2.436  0.00  0.00    +0.000 C 
BRANCH  26  27
ATOM     27  C   UNL     1       5.149   0.361  -2.205  0.00  0.00    +0.000 A 
ATOM     28  C   UNL     1       6.294   0.126  -2.921  0.00  0.00    +0.000 A 
ATOM     29  C   UNL     1       7.412   0.906  -2.748  0.00  0.00    +0.000 A 
ATOM     30  C   UNL     1       7.411   1.956  -1.842  0.00  0.00    +0.000 A 
ATOM     31  C   UNL     1       6.244   2.168  -1.137  0.00  0.00    +0.000 A 
ATOM     32  C   UNL     1       5.122   1.393  -1.303  0.00  0.00    +0.000 A 
ENDBRANCH  26  27
ENDBRANCH  25  26
ENDBRANCH  24  25
ENDBRANCH  23  24
ENDBRANCH   3  21
TORSDOF 8
