REMARK  Name = 
REMARK  7 active torsions:
REMARK  status: ('A' for Active; 'I' for Inactive)
REMARK    1  A    between atoms: C_2  and  C_5
REMARK    2  A    between atoms: C_8  and  C_9
REMARK    3  A    between atoms: C_9  and  O_11
REMARK    4  A    between atoms: O_11  and  C_12
REMARK    5  A    between atoms: C_12  and  C_13
REMARK    6  A    between atoms: C_13  and  N_14
REMARK    7  A    between atoms: C_17  and  C_18
REMARK                            x       y       z     vdW  Elec       q    Type
REMARK                         _______ _______ _______ _____ _____    ______ ____
ROOT
ATOM      1  N   UNL     1      -1.380   0.907  -1.663  0.00  0.00    +0.000 NA
ATOM      2  C   UNL     1      -2.347   1.022  -0.628  0.00  0.00    +0.000 A 
ATOM      3  N   UNL     1      -3.143   0.001  -0.312  0.00  0.00    +0.000 NA
ATOM      4  C   UNL     1      -4.090   0.109   0.630  0.00  0.00    +0.000 A 
ATOM      5  N   UNL     1      -4.221   1.294   1.272  0.00  0.00    +0.000 NA
ATOM      6  C   UNL     1      -3.468   2.338   1.004  0.00  0.00    +0.000 A 
ATOM      7  C   UNL     1      -3.646   3.541   1.730  0.00  0.00    +0.000 A 
ATOM      8  C   UNL     1      -2.830   4.600   1.454  0.00  0.00    +0.000 A 
ATOM      9  C   UNL     1      -1.840   4.492   0.471  0.00  0.00    +0.000 A 
ATOM     10  C   UNL     1      -1.671   3.294  -0.252  0.00  0.00    +0.000 A 
ATOM     11  C   UNL     1      -2.483   2.240   0.028  0.00  0.00    +0.000 A 
ENDROOT
BRANCH   4  12
ATOM     12  C   UNL     1      -4.997  -0.971   0.917  0.00  0.00    +0.000 A 
ATOM     13  C   UNL     1      -4.939  -2.087   0.095  0.00  0.00    +0.000 A 
ATOM     14  C   UNL     1      -5.811  -3.121   0.358  0.00  0.00    +0.000 A 
ATOM     15  C   UNL     1      -6.722  -3.070   1.402  0.00  0.00    +0.000 A 
ATOM     16  C   UNL     1      -6.747  -1.952   2.183  0.00  0.00    +0.000 A 
ATOM     17  C   UNL     1      -5.891  -0.915   1.938  0.00  0.00    +0.000 A 
ENDBRANCH   4  12
BRANCH   1  18
ATOM     18  C   UNL     1      -1.174  -0.504  -2.177  0.00  0.00    +0.000 C 
BRANCH  18  19
ATOM     19  C   UNL     1       0.115  -0.838  -1.841  0.00  0.00    +0.000 C 
BRANCH  19  20
ATOM     20  O   UNL     1       1.290  -1.177  -1.551  0.00  0.00    +0.000 OA
BRANCH  20  21
ATOM     21  C   UNL     1       2.170  -0.432  -0.721  0.00  0.00    +0.000 C 
ATOM     22  O   UNL     1       1.630   0.636  -0.239  0.00  0.00    +0.000 OA
BRANCH  21  26
ATOM     23  C   UNL     1       6.297  -0.996   0.122  0.00  0.00    +0.000 A 
ATOM     24  C   UNL     1       5.530  -0.037   0.819  0.00  0.00    +0.000 A 
ATOM     25  C   UNL     1       4.202   0.057   0.527  0.00  0.00    +0.000 A 
ATOM     26  C   UNL     1       3.530  -0.708  -0.384  0.00  0.00    +0.000 A 
ATOM     27  C   UNL     1       4.295  -1.676  -1.075  0.00  0.00    +0.000 A 
ATOM     28  C   UNL     1       5.652  -1.769  -0.787  0.00  0.00    +0.000 A 
BRANCH  23  30
ATOM     29  C   UNL     1       8.409  -0.376  -0.930  0.00  0.00    +0.000 C 
ATOM     30  C   UNL     1       7.792  -1.066   0.314  0.00  0.00    +0.000 C 
ATOM     31  C   UNL     1       8.251  -0.343   1.534  0.00  0.00    +0.000 C 
ATOM     32  C   UNL     1       8.239  -2.493   0.235  0.00  0.00    +0.000 C 
ENDBRANCH  23  30
ENDBRANCH  21  26
ENDBRANCH  20  21
ENDBRANCH  19  20
ENDBRANCH  18  19
ENDBRANCH   1  18
TORSDOF 7
