REMARK  Name = 
REMARK  7 active torsions:
REMARK  status: ('A' for Active; 'I' for Inactive)
REMARK    1  A    between atoms: C_2  and  N_3
REMARK    2  A    between atoms: C_2  and  C_24
REMARK    3  A    between atoms: N_3  and  O_4
REMARK    4  A    between atoms: O_4  and  C_5
REMARK    5  A    between atoms: C_5  and  C_7
REMARK    6  A    between atoms: C_9  and  C_10
REMARK    7  A    between atoms: C_27  and  C_28
REMARK                            x       y       z     vdW  Elec       q    Type
REMARK                         _______ _______ _______ _____ _____    ______ ____
ROOT
ATOM      1  C   UNL     1      -1.434   0.008   0.072  0.00  0.00    +0.000 A 
ATOM      2  C   UNL     1      -2.694   0.555  -0.117  0.00  0.00    +0.000 A 
ATOM      3  C   UNL     1      -3.799  -0.135  -0.306  0.00  0.00    +0.000 A 
ATOM      4  N   UNL     1      -3.801  -1.550  -0.343  0.00  0.00    +0.000 NA
ATOM      5  C   UNL     1      -2.624  -2.154  -0.156  0.00  0.00    +0.000 A 
ATOM      6  C   UNL     1      -2.388  -3.488  -0.100  0.00  0.00    +0.000 A 
ATOM      7  C   UNL     1      -1.309  -4.216   0.090  0.00  0.00    +0.000 A 
ATOM      8  C   UNL     1      -0.069  -3.377   0.310  0.00  0.00    +0.000 A 
ATOM      9  C   UNL     1      -0.300  -2.075   0.258  0.00  0.00    +0.000 A 
ATOM     10  C   UNL     1      -1.442  -1.388   0.047  0.00  0.00    +0.000 A 
ENDROOT
BRANCH   3  11
ATOM     11  C   UNL     1      -5.161   0.370  -0.580  0.00  0.00    +0.000 A 
ATOM     12  C   UNL     1      -5.717   0.132  -1.852  0.00  0.00    +0.000 A 
ATOM     13  C   UNL     1      -7.010   0.471  -2.116  0.00  0.00    +0.000 A 
ATOM     14  C   UNL     1      -7.781   1.057  -1.117  0.00  0.00    +0.000 A 
ATOM     15  C   UNL     1      -7.274   1.309   0.146  0.00  0.00    +0.000 A 
ATOM     16  C   UNL     1      -8.097   1.914   1.184  0.00  0.00    +0.000 C 
ATOM     17  C   UNL     1      -5.958   0.956   0.377  0.00  0.00    +0.000 A 
ENDBRANCH   3  11
BRANCH   1  18
ATOM     18  C   UNL     1      -0.228   0.734   0.185  0.00  0.00    +0.000 C 
ATOM     19  O   UNL     1       0.835  -0.009   0.424  0.00  0.00    +0.000 OA
BRANCH  18  20
ATOM     20  O   UNL     1       0.055   2.055   0.091  0.00  0.00    +0.000 OA
BRANCH  20  21
ATOM     21  N   UNL     1       1.428   2.468   0.208  0.00  0.00    +0.000 NA
BRANCH  21  23
ATOM     22  C   UNL     1       1.899   1.339  -1.773  0.00  0.00    +0.000 C 
ATOM     23  C   UNL     1       2.328   1.685  -0.555  0.00  0.00    +0.000 C 
BRANCH  23  24
ATOM     24  C   UNL     1       3.618   1.197  -0.123  0.00  0.00    +0.000 A 
ATOM     25  C   UNL     1       4.177   0.093  -0.784  0.00  0.00    +0.000 A 
ATOM     26  C   UNL     1       5.384  -0.459  -0.459  0.00  0.00    +0.000 A 
ATOM     27  C   UNL     1       6.145   0.088   0.592  0.00  0.00    +0.000 A 
ATOM     28  C   UNL     1       5.599   1.175   1.243  0.00  0.00    +0.000 A 
ATOM     29  C   UNL     1       4.373   1.701   0.892  0.00  0.00    +0.000 A 
BRANCH  27  30
ATOM     30  C   UNL     1       7.480  -0.482   0.988  0.00  0.00    +0.000 C 
ATOM     31  C   UNL     1       7.307  -1.741   1.769  0.00  0.00    +0.000 C 
ATOM     32  C   UNL     1       8.258  -0.792  -0.282  0.00  0.00    +0.000 C 
ATOM     33  C   UNL     1       8.198   0.561   1.787  0.00  0.00    +0.000 C 
ENDBRANCH  27  30
ENDBRANCH  23  24
ENDBRANCH  21  23
ENDBRANCH  20  21
ENDBRANCH  18  20
ENDBRANCH   1  18
TORSDOF 7
