REMARK  Name = 
REMARK  6 active torsions:
REMARK  status: ('A' for Active; 'I' for Inactive)
REMARK    1  A    between atoms: O_2  and  C_3
REMARK    2  A    between atoms: C_6  and  C_7
REMARK    3  A    between atoms: C_17  and  O_18
REMARK    4  A    between atoms: O_18  and  C_19
REMARK    5  A    between atoms: C_19  and  C_20
REMARK    6  A    between atoms: C_28  and  C_29
REMARK                            x       y       z     vdW  Elec       q    Type
REMARK                         _______ _______ _______ _____ _____    ______ ____
ROOT
ATOM      1  C   UNL     1      -2.005   1.742   1.123  0.00  0.00    +0.000 C 
ATOM      2  N   UNL     1      -1.874   0.988   2.504  0.00  0.00    +0.000 NA
ATOM      3  C   UNL     1      -0.625   1.515   3.055  0.00  0.00    +0.000 C 
ATOM      4  C   UNL     1       0.544   0.786   2.393  0.00  0.00    +0.000 C 
ATOM      5  C   UNL     1       0.177   0.450   0.985  0.00  0.00    +0.000 A 
ATOM      6  C   UNL     1      -0.922   0.844   0.342  0.00  0.00    +0.000 A 
ATOM      7  N   UNL     1      -0.930   0.397  -0.883  0.00  0.00    +0.000 NA
ATOM      8  C   UNL     1       0.223  -0.329  -1.063  0.00  0.00    +0.000 A 
ATOM      9  C   UNL     1       0.689  -1.068  -2.150  0.00  0.00    +0.000 A 
ATOM     10  C   UNL     1       1.845  -1.785  -2.090  0.00  0.00    +0.000 A 
ATOM     11  C   UNL     1       2.606  -1.791  -0.901  0.00  0.00    +0.000 A 
ATOM     12  C   UNL     1       2.131  -1.046   0.164  0.00  0.00    +0.000 A 
ATOM     13  C   UNL     1       0.951  -0.318   0.102  0.00  0.00    +0.000 A 
ENDROOT
BRANCH   1  17
ATOM     14  C   UNL     1      -5.028  -0.553  -0.871  0.00  0.00    +0.000 A 
ATOM     15  C   UNL     1      -4.260  -1.192   0.060  0.00  0.00    +0.000 A 
ATOM     16  C   UNL     1      -3.328  -0.435   0.784  0.00  0.00    +0.000 A 
ATOM     17  C   UNL     1      -3.243   0.871   0.534  0.00  0.00    +0.000 A 
ATOM     18  C   UNL     1      -4.003   1.554  -0.385  0.00  0.00    +0.000 A 
ATOM     19  C   UNL     1      -4.923   0.795  -1.116  0.00  0.00    +0.000 A 
BRANCH  18  20
ATOM     20  C   UNL     1      -3.949   3.045  -0.432  0.00  0.00    +0.000 C 
ATOM     21  C   UNL     1      -3.517   3.473  -1.884  0.00  0.00    +0.000 C 
ATOM     22  C   UNL     1      -5.523   3.490  -0.472  0.00  0.00    +0.000 C 
ENDBRANCH  18  20
BRANCH  14  24
ATOM     23  C   UNL     1      -6.170  -2.676  -1.441  0.00  0.00    +0.000 C 
ATOM     24  O   UNL     1      -5.985  -1.293  -1.628  0.00  0.00    +0.000 OA
ENDBRANCH  14  24
ENDBRANCH   1  17
BRANCH  11  25
ATOM     25  O   UNL     1       3.738  -2.491  -0.784  0.00  0.00    +0.000 OA
BRANCH  25  26
ATOM     26  C   UNL     1       4.648  -2.608   0.200  0.00  0.00    +0.000 C 
BRANCH  26  27
ATOM     27  C   UNL     1       5.483  -1.403   0.348  0.00  0.00    +0.000 A 
ATOM     28  C   UNL     1       6.718  -1.556  -0.315  0.00  0.00    +0.000 A 
ATOM     29  C   UNL     1       7.659  -0.574  -0.314  0.00  0.00    +0.000 A 
ATOM     30  C   UNL     1       7.406   0.578   0.339  0.00  0.00    +0.000 A 
ATOM     31  C   UNL     1       6.200   0.829   1.032  0.00  0.00    +0.000 A 
ATOM     32  C   UNL     1       5.265  -0.241   0.986  0.00  0.00    +0.000 A 
ENDBRANCH  26  27
ENDBRANCH  25  26
ENDBRANCH  11  25
TORSDOF 6
