REMARK  Name = 
REMARK  7 active torsions:
REMARK  status: ('A' for Active; 'I' for Inactive)
REMARK    1  A    between atoms: C_2  and  O_3
REMARK    2  A    between atoms: O_3  and  C_4
REMARK    3  A    between atoms: C_7  and  N_8
REMARK    4  A    between atoms: N_8  and  C_9
REMARK    5  A    between atoms: C_10  and  S_11
REMARK    6  A    between atoms: S_11  and  C_12
REMARK    7  A    between atoms: N_20  and  C_21
REMARK                            x       y       z     vdW  Elec       q    Type
REMARK                         _______ _______ _______ _____ _____    ______ ____
ROOT
ATOM      1  C   UNL     1      -0.758   0.617   0.146  0.00  0.00    +0.000 C 
ATOM      2  C   UNL     1      -1.131   0.776  -1.114  0.00  0.00    +0.000 C 
ATOM      3  C   UNL     1      -1.999  -0.359  -1.491  0.00  0.00    +0.000 C 
ATOM      4  O   UNL     1      -2.545  -0.552  -2.610  0.00  0.00    +0.000 OA
ATOM      5  N   UNL     1      -2.128  -1.223  -0.370  0.00  0.00    +0.000 N 
ATOM      6  C   UNL     1      -1.355  -0.623   0.660  0.00  0.00    +0.000 C 
ATOM      7  O   UNL     1      -1.184  -1.045   1.828  0.00  0.00    +0.000 OA
ENDROOT
BRANCH   5   8
ATOM      8  C   UNL     1      -2.882  -2.437  -0.312  0.00  0.00    +0.000 A 
ATOM      9  C   UNL     1      -2.280  -3.685  -0.431  0.00  0.00    +0.000 A 
ATOM     10  C   UNL     1      -2.996  -4.847  -0.376  0.00  0.00    +0.000 A 
ATOM     11  C   UNL     1      -2.322  -6.185  -0.507  0.00  0.00    +0.000 C 
ATOM     12  C   UNL     1      -4.363  -4.812  -0.199  0.00  0.00    +0.000 A 
ATOM     13  C   UNL     1      -4.997  -3.591  -0.076  0.00  0.00    +0.000 A 
ATOM     14  C   UNL     1      -4.259  -2.424  -0.133  0.00  0.00    +0.000 A 
ATOM     15  C   UNL     1      -4.897  -1.089  -0.006  0.00  0.00    +0.000 C 
ENDBRANCH   5   8
BRANCH   1  16
ATOM     16  N   UNL     1       0.084   1.519   0.853  0.00  0.00    +0.000 NA
BRANCH  16  20
ATOM     17  C   UNL     1       4.132   0.596   1.613  0.00  0.00    +0.000 A 
ATOM     18  C   UNL     1       3.324  -0.258   0.917  0.00  0.00    +0.000 A 
ATOM     19  C   UNL     1       1.999   0.030   0.660  0.00  0.00    +0.000 A 
ATOM     20  C   UNL     1       1.457   1.216   1.114  0.00  0.00    +0.000 A 
ATOM     21  C   UNL     1       2.260   2.059   1.803  0.00  0.00    +0.000 A 
ATOM     22  C   UNL     1       3.582   1.785   2.066  0.00  0.00    +0.000 A 
BRANCH  17  23
ATOM     23  O   UNL     1       5.464   0.272   1.853  0.00  0.00    +0.000 OA
BRANCH  23  25
ATOM     24  C   UNL     1       5.206  -2.120   1.940  0.00  0.00    +0.000 C 
ATOM     25  C   UNL     1       5.963  -0.956   1.362  0.00  0.00    +0.000 C 
ENDBRANCH  23  25
ENDBRANCH  17  23
ENDBRANCH  16  20
ENDBRANCH   1  16
BRANCH   2  26
ATOM     26  S   UNL     1      -0.737   2.082  -2.276  0.00  0.00    +0.000 S 
BRANCH  26  27
ATOM     27  C   UNL     1       0.325   3.298  -1.564  0.00  0.00    +0.000 A 
ATOM     28  C   UNL     1      -0.134   4.418  -0.893  0.00  0.00    +0.000 A 
ATOM     29  C   UNL     1       0.763   5.313  -0.372  0.00  0.00    +0.000 A 
ATOM     30  C   UNL     1       2.119   5.108  -0.511  0.00  0.00    +0.000 A 
ATOM     31  C   UNL     1       2.595   4.011  -1.169  0.00  0.00    +0.000 A 
ATOM     32  C   UNL     1       1.694   3.105  -1.696  0.00  0.00    +0.000 A 
ENDBRANCH  26  27
ENDBRANCH   2  26
TORSDOF 7
