REMARK  Name = 
REMARK  7 active torsions:
REMARK  status: ('A' for Active; 'I' for Inactive)
REMARK    1  A    between atoms: C_5  and  N_6
REMARK    2  A    between atoms: N_6  and  C_7
REMARK    3  A    between atoms: C_8  and  S_9
REMARK    4  A    between atoms: S_9  and  C_10
REMARK    5  A    between atoms: N_18  and  C_19
REMARK    6  A    between atoms: C_19  and  C_20
REMARK    7  A    between atoms: C_20  and  C_21
REMARK                            x       y       z     vdW  Elec       q    Type
REMARK                         _______ _______ _______ _____ _____    ______ ____
ROOT
ATOM      1  C   UNL     1      -0.615  -0.822   0.397  0.00  0.00    +0.000 C 
ATOM      2  C   UNL     1      -0.328   0.452   0.072  0.00  0.00    +0.000 C 
ATOM      3  C   UNL     1       0.868   0.381  -0.749  0.00  0.00    +0.000 C 
ATOM      4  O   UNL     1       1.470   1.337  -1.260  0.00  0.00    +0.000 OA
ATOM      5  N   UNL     1       1.293  -0.993  -0.907  0.00  0.00    +0.000 N 
ATOM      6  C   UNL     1       0.335  -1.731  -0.171  0.00  0.00    +0.000 C 
ATOM      7  O   UNL     1       0.358  -3.000  -0.062  0.00  0.00    +0.000 OA
ENDROOT
BRANCH   1   8
ATOM      8  N   UNL     1      -1.713  -1.224   1.196  0.00  0.00    +0.000 NA
BRANCH   8  13
ATOM      9  C   UNL     1      -5.215  -5.520  -0.312  0.00  0.00    +0.000 C 
ATOM     10  C   UNL     1      -4.297  -4.399   0.076  0.00  0.00    +0.000 A 
ATOM     11  C   UNL     1      -3.238  -4.037  -0.730  0.00  0.00    +0.000 A 
ATOM     12  C   UNL     1      -2.387  -3.002  -0.375  0.00  0.00    +0.000 A 
ATOM     13  C   UNL     1      -2.563  -2.291   0.797  0.00  0.00    +0.000 A 
ATOM     14  C   UNL     1      -3.623  -2.654   1.603  0.00  0.00    +0.000 A 
ATOM     15  C   UNL     1      -3.822  -1.895   2.868  0.00  0.00    +0.000 C 
ATOM     16  C   UNL     1      -4.481  -3.696   1.246  0.00  0.00    +0.000 A 
ENDBRANCH   8  13
ENDBRANCH   1   8
BRANCH   2  17
ATOM     17  S   UNL     1      -1.328   1.786   0.632  0.00  0.00    +0.000 S 
BRANCH  17  18
ATOM     18  C   UNL     1      -0.755   3.360   0.081  0.00  0.00    +0.000 A 
ATOM     19  C   UNL     1       0.338   3.612  -0.700  0.00  0.00    +0.000 A 
ATOM     20  C   UNL     1       0.737   4.865  -1.100  0.00  0.00    +0.000 A 
ATOM     21  C   UNL     1       0.009   5.995  -0.708  0.00  0.00    +0.000 A 
ATOM     22  C   UNL     1      -1.094   5.774   0.077  0.00  0.00    +0.000 A 
ATOM     23  C   UNL     1      -1.470   4.513   0.462  0.00  0.00    +0.000 A 
ENDBRANCH  17  18
ENDBRANCH   2  17
BRANCH   5  24
ATOM     24  C   UNL     1       2.442  -1.468  -1.650  0.00  0.00    +0.000 C 
BRANCH  24  25
ATOM     25  C   UNL     1       3.640  -1.538  -0.748  0.00  0.00    +0.000 C 
BRANCH  25  26
ATOM     26  C   UNL     1       3.966  -0.209  -0.176  0.00  0.00    +0.000 A 
ATOM     27  C   UNL     1       3.396   0.156   1.049  0.00  0.00    +0.000 A 
ATOM     28  C   UNL     1       3.673   1.379   1.612  0.00  0.00    +0.000 A 
ATOM     29  C   UNL     1       4.516   2.268   0.984  0.00  0.00    +0.000 A 
ATOM     30  C   UNL     1       5.073   1.908  -0.214  0.00  0.00    +0.000 A 
ATOM     31  C   UNL     1       4.815   0.690  -0.805  0.00  0.00    +0.000 A 
ENDBRANCH  25  26
ENDBRANCH  24  25
ENDBRANCH   5  24
TORSDOF 7
