REMARK  Name = 
REMARK  8 active torsions:
REMARK  status: ('A' for Active; 'I' for Inactive)
REMARK    1  A    between atoms: C_2  and  C_5
REMARK    2  A    between atoms: C_5  and  C_6
REMARK    3  A    between atoms: C_6  and  N_9
REMARK    4  A    between atoms: N_9  and  C_10
REMARK    5  A    between atoms: C_11  and  C_12
REMARK    6  A    between atoms: C_20  and  O_21
REMARK    7  A    between atoms: O_21  and  C_22
REMARK    8  A    between atoms: C_22  and  C_23
REMARK                            x       y       z     vdW  Elec       q    Type
REMARK                         _______ _______ _______ _____ _____    ______ ____
ROOT
ATOM      1  C   UNL     1      -1.128  -0.522   0.199  0.00  0.00    +0.000 A 
ATOM      2  C   UNL     1      -0.842  -1.797  -0.218  0.00  0.00    +0.000 A 
ATOM      3  N   UNL     1       0.489  -1.949  -0.039  0.00  0.00    +0.000 NA
ATOM      4  C   UNL     1       1.010  -0.821   0.468  0.00  0.00    +0.000 A 
ATOM      5  C   UNL     1       2.307  -0.466   0.828  0.00  0.00    +0.000 A 
ATOM      6  C   UNL     1       2.541   0.789   1.330  0.00  0.00    +0.000 A 
ATOM      7  C   UNL     1       1.506   1.679   1.474  0.00  0.00    +0.000 A 
ATOM      8  C   UNL     1       0.246   1.309   1.115  0.00  0.00    +0.000 A 
ATOM      9  N   UNL     1       0.018   0.078   0.623  0.00  0.00    +0.000 N 
ENDROOT
BRANCH   2  10
ATOM     10  C   UNL     1      -1.756  -2.815  -0.754  0.00  0.00    +0.000 A 
ATOM     11  C   UNL     1      -1.704  -4.131  -0.327  0.00  0.00    +0.000 A 
ATOM     12  C   UNL     1      -2.549  -5.105  -0.812  0.00  0.00    +0.000 A 
ATOM     13  C   UNL     1      -3.486  -4.765  -1.762  0.00  0.00    +0.000 A 
ATOM     14  N   UNL     1      -3.527  -3.485  -2.168  0.00  0.00    +0.000 NA
ATOM     15  C   UNL     1      -2.711  -2.521  -1.706  0.00  0.00    +0.000 A 
ENDBRANCH   2  10
BRANCH   1  16
ATOM     16  N   UNL     1      -2.409   0.060   0.186  0.00  0.00    +0.000 NA
BRANCH  16  17
ATOM     17  C   UNL     1      -2.741   1.381   0.613  0.00  0.00    +0.000 C 
ATOM     18  C   UNL     1      -2.049   2.464  -0.203  0.00  0.00    +0.000 C 
ATOM     19  C   UNL     1      -2.461   1.530   2.095  0.00  0.00    +0.000 C 
BRANCH  17  20
ATOM     20  C   UNL     1      -4.242   1.642   0.445  0.00  0.00    +0.000 C 
BRANCH  20  22
ATOM     21  C   UNL     1      -4.161   3.160   2.444  0.00  0.00    +0.000 C 
ATOM     22  C   UNL     1      -4.527   3.011   0.968  0.00  0.00    +0.000 C 
ATOM     23  C   UNL     1      -3.767   4.059   0.203  0.00  0.00    +0.000 C 
ATOM     24  C   UNL     1      -6.016   3.265   0.856  0.00  0.00    +0.000 C 
ENDBRANCH  20  22
ENDBRANCH  17  20
ENDBRANCH  16  17
ENDBRANCH   1  16
BRANCH   5  25
ATOM     25  O   UNL     1       3.357  -1.354   0.688  0.00  0.00    +0.000 OA
BRANCH  25  26
ATOM     26  C   UNL     1       4.697  -1.097   1.018  0.00  0.00    +0.000 C 
BRANCH  26  27
ATOM     27  C   UNL     1       5.176   0.040   0.202  0.00  0.00    +0.000 A 
ATOM     28  C   UNL     1       5.581  -0.199  -1.104  0.00  0.00    +0.000 A 
ATOM     29  C   UNL     1       6.043   0.789  -1.928  0.00  0.00    +0.000 A 
ATOM     30  C   UNL     1       6.118   2.082  -1.466  0.00  0.00    +0.000 A 
ATOM     31  C   UNL     1       5.722   2.350  -0.174  0.00  0.00    +0.000 A 
ATOM     32  C   UNL     1       5.263   1.339   0.631  0.00  0.00    +0.000 A 
ENDBRANCH  26  27
ENDBRANCH  25  26
ENDBRANCH   5  25
TORSDOF 8
