REMARK  Name = 
REMARK  9 active torsions:
REMARK  status: ('A' for Active; 'I' for Inactive)
REMARK    1  A    between atoms: C_2  and  N_5
REMARK    2  A    between atoms: N_5  and  C_6
REMARK    3  A    between atoms: C_6  and  C_7
REMARK    4  A    between atoms: C_7  and  C_8
REMARK    5  A    between atoms: C_8  and  O_9
REMARK    6  A    between atoms: O_9  and  C_10
REMARK    7  A    between atoms: C_13  and  S_14
REMARK    8  A    between atoms: S_14  and  C_17
REMARK    9  A    between atoms: C_18  and  C_19
REMARK                            x       y       z     vdW  Elec       q    Type
REMARK                         _______ _______ _______ _____ _____    ______ ____
ROOT
ATOM      1  S   UNL     1      -1.544   0.569   1.226  0.00  0.00    +0.000 S 
ATOM      2  O   UNL     1      -1.099   0.114   2.619  0.00  0.00    +0.000 OA
ATOM      3  O   UNL     1      -2.118   1.934   1.358  0.00  0.00    +0.000 OA
ENDROOT
BRANCH   1   4
ATOM      4  C   UNL     1      -2.770  -0.534   0.627  0.00  0.00    +0.000 A 
ATOM      5  C   UNL     1      -3.696  -0.255  -0.346  0.00  0.00    +0.000 A 
ATOM      6  C   UNL     1      -4.446  -1.437  -0.469  0.00  0.00    +0.000 A 
ATOM      7  N   UNL     1      -3.972  -2.351   0.394  0.00  0.00    +0.000 N 
ATOM      8  C   UNL     1      -4.329  -3.625   0.669  0.00  0.00    +0.000 A 
ATOM      9  C   UNL     1      -3.696  -4.409   1.614  0.00  0.00    +0.000 A 
ATOM     10  C   UNL     1      -2.640  -3.876   2.322  0.00  0.00    +0.000 A 
ATOM     11  C   UNL     1      -2.264  -2.573   2.050  0.00  0.00    +0.000 A 
ATOM     12  C   UNL     1      -2.938  -1.841   1.093  0.00  0.00    +0.000 A 
BRANCH   5  13
ATOM     13  C   UNL     1      -3.907   0.969  -1.118  0.00  0.00    +0.000 A 
ATOM     14  C   UNL     1      -4.036   0.822  -2.488  0.00  0.00    +0.000 A 
ATOM     15  C   UNL     1      -4.249   1.893  -3.318  0.00  0.00    +0.000 A 
ATOM     16  C   UNL     1      -4.333   3.146  -2.754  0.00  0.00    +0.000 A 
ATOM     17  C   UNL     1      -4.205   3.289  -1.391  0.00  0.00    +0.000 A 
ATOM     18  C   UNL     1      -3.992   2.216  -0.560  0.00  0.00    +0.000 A 
ENDBRANCH   5  13
ENDBRANCH   1   4
BRANCH   1  22
ATOM     19  C   UNL     1       2.048   0.492  -1.387  0.00  0.00    +0.000 A 
ATOM     20  C   UNL     1       2.019  -0.339  -0.290  0.00  0.00    +0.000 A 
ATOM     21  C   UNL     1       0.909  -0.328   0.538  0.00  0.00    +0.000 A 
ATOM     22  C   UNL     1      -0.118   0.516   0.228  0.00  0.00    +0.000 A 
ATOM     23  C   UNL     1      -0.068   1.337  -0.870  0.00  0.00    +0.000 A 
ATOM     24  C   UNL     1       1.008   1.357  -1.714  0.00  0.00    +0.000 A 
BRANCH  19  25
ATOM     25  O   UNL     1       3.141   0.522  -2.257  0.00  0.00    +0.000 OA
BRANCH  25  26
ATOM     26  C   UNL     1       4.250  -0.335  -1.984  0.00  0.00    +0.000 C 
BRANCH  26  27
ATOM     27  C   UNL     1       4.864  -0.032  -0.657  0.00  0.00    +0.000 C 
BRANCH  27  28
ATOM     28  C   UNL     1       6.032  -0.941  -0.369  0.00  0.00    +0.000 C 
BRANCH  28  29
ATOM     29  N   UNL     1       6.599  -0.591   0.942  0.00  0.00    +0.000 NA
BRANCH  29  31
ATOM     30  C   UNL     1       6.128   1.717   0.415  0.00  0.00    +0.000 C 
ATOM     31  C   UNL     1       7.213   0.737   0.774  0.00  0.00    +0.000 C 
ATOM     32  C   UNL     1       7.891   1.140   2.076  0.00  0.00    +0.000 C 
ATOM     33  C   UNL     1       8.316   0.697  -0.273  0.00  0.00    +0.000 C 
ENDBRANCH  29  31
ENDBRANCH  28  29
ENDBRANCH  27  28
ENDBRANCH  26  27
ENDBRANCH  25  26
ENDBRANCH  19  25
ENDBRANCH   1  22
TORSDOF 9
