REMARK  Name = 
REMARK  6 active torsions:
REMARK  status: ('A' for Active; 'I' for Inactive)
REMARK    1  A    between atoms: C_2  and  C_3
REMARK    2  A    between atoms: C_6  and  N_7
REMARK    3  A    between atoms: N_10  and  C_11
REMARK    4  A    between atoms: C_11  and  C_12
REMARK    5  A    between atoms: C_12  and  O_13
REMARK    6  A    between atoms: O_13  and  C_14
REMARK                            x       y       z     vdW  Elec       q    Type
REMARK                         _______ _______ _______ _____ _____    ______ ____
ROOT
ATOM      1  C   UNL     1      -3.805  -1.497  -0.144  0.00  0.00    +0.000 A 
ATOM      2  C   UNL     1      -2.788  -2.278  -0.627  0.00  0.00    +0.000 A 
ATOM      3  C   UNL     1      -1.542  -1.695  -0.696  0.00  0.00    +0.000 A 
ATOM      4  C   UNL     1      -1.348  -0.388  -0.294  0.00  0.00    +0.000 A 
ATOM      5  N   UNL     1      -2.341   0.379   0.179  0.00  0.00    +0.000 N 
ATOM      6  C   UNL     1      -3.582  -0.190   0.252  0.00  0.00    +0.000 A 
ATOM      7  N   UNL     1      -4.387   0.759   0.745  0.00  0.00    +0.000 NA
ATOM      8  C   UNL     1      -3.729   1.889   0.987  0.00  0.00    +0.000 A 
ATOM      9  C   UNL     1      -4.101   3.131   1.487  0.00  0.00    +0.000 A 
ATOM     10  C   UNL     1      -3.167   4.154   1.636  0.00  0.00    +0.000 A 
ATOM     11  C   UNL     1      -1.854   3.909   1.273  0.00  0.00    +0.000 A 
ATOM     12  C   UNL     1      -1.506   2.673   0.780  0.00  0.00    +0.000 A 
ATOM     13  C   UNL     1      -2.429   1.657   0.630  0.00  0.00    +0.000 A 
ATOM     14  C   UNL     1      -0.443  -2.542  -1.217  0.00  0.00    +0.000 C 
ATOM     15  C   UNL     1      -0.476  -3.847  -0.469  0.00  0.00    +0.000 C 
ATOM     16  C   UNL     1      -1.828  -4.456  -0.326  0.00  0.00    +0.000 C 
ATOM     17  C   UNL     1      -2.926  -3.693  -1.068  0.00  0.00    +0.000 C 
ENDROOT
BRANCH   4  18
ATOM     18  N   UNL     1      -0.036   0.187  -0.371  0.00  0.00    +0.000 N 
ATOM     19  C   UNL     1       0.317   0.927  -1.544  0.00  0.00    +0.000 C 
ATOM     20  C   UNL     1       1.170   2.108  -1.175  0.00  0.00    +0.000 C 
ATOM     21  N   UNL     1       2.183   1.817  -0.225  0.00  0.00    +0.000 NA
ATOM     22  C   UNL     1       2.268   0.454   0.171  0.00  0.00    +0.000 C 
ATOM     23  C   UNL     1       0.911  -0.011   0.725  0.00  0.00    +0.000 C 
BRANCH  21  24
ATOM     24  C   UNL     1       3.425   2.388  -0.514  0.00  0.00    +0.000 C 
BRANCH  24  25
ATOM     25  C   UNL     1       4.074   1.815  -1.734  0.00  0.00    +0.000 C 
BRANCH  25  26
ATOM     26  O   UNL     1       4.270   0.435  -1.569  0.00  0.00    +0.000 OA
BRANCH  26  27
ATOM     27  C   UNL     1       5.042  -0.066  -0.534  0.00  0.00    +0.000 A 
ATOM     28  C   UNL     1       5.242  -1.424  -0.379  0.00  0.00    +0.000 A 
ATOM     29  C   UNL     1       6.014  -1.905   0.657  0.00  0.00    +0.000 A 
ATOM     30  C   UNL     1       6.608  -1.071   1.566  0.00  0.00    +0.000 A 
ATOM     31  C   UNL     1       6.420   0.288   1.425  0.00  0.00    +0.000 A 
ATOM     32  C   UNL     1       5.648   0.762   0.388  0.00  0.00    +0.000 A 
ENDBRANCH  26  27
ENDBRANCH  25  26
ENDBRANCH  24  25
ENDBRANCH  21  24
ENDBRANCH   4  18
BRANCH   1  34
ATOM     33  N   UNL     1      -6.184  -2.569   0.001  0.00  0.00    +0.000 NA
ATOM     34  C   UNL     1      -5.119  -2.102  -0.065  0.00  0.00    +0.000 C 
ENDBRANCH   1  34
TORSDOF 6
