REMARK  Name = 
REMARK  8 active torsions:
REMARK  status: ('A' for Active; 'I' for Inactive)
REMARK    1  A    between atoms: C_2  and  O_3
REMARK    2  A    between atoms: O_3  and  C_4
REMARK    3  A    between atoms: C_4  and  C_6
REMARK    4  A    between atoms: C_7  and  N_8
REMARK    5  A    between atoms: N_8  and  C_9
REMARK    6  A    between atoms: C_21  and  C_22
REMARK    7  A    between atoms: C_27  and  O_28
REMARK    8  A    between atoms: O_28  and  C_29
REMARK                            x       y       z     vdW  Elec       q    Type
REMARK                         _______ _______ _______ _____ _____    ______ ____
ROOT
ATOM      1  C   UNL     1      -0.553  -0.750   0.241  0.00  0.00    +0.000 C 
ATOM      2  C   UNL     1      -1.173  -0.099   1.180  0.00  0.00    +0.000 C 
ATOM      3  S   UNL     1       0.017   0.958   1.991  0.00  0.00    +0.000 S 
ATOM      4  C   UNL     1       1.474   0.306   1.109  0.00  0.00    +0.000 C 
ATOM      5  C   UNL     1       2.712   0.632   1.357  0.00  0.00    +0.000 C 
ATOM      6  C   UNL     1       0.871  -0.581   0.136  0.00  0.00    +0.000 C 
ATOM      7  O   UNL     1       1.620  -1.152  -0.750  0.00  0.00    +0.000 OA
ENDROOT
BRANCH   5   8
ATOM      8  C   UNL     1       3.815   0.066   0.614  0.00  0.00    +0.000 A 
ATOM      9  C   UNL     1       3.923  -1.273   0.364  0.00  0.00    +0.000 A 
ATOM     10  C   UNL     1       4.948  -1.840  -0.333  0.00  0.00    +0.000 A 
ATOM     11  C   UNL     1       5.952  -1.033  -0.826  0.00  0.00    +0.000 A 
ATOM     12  O   UNL     1       7.029  -1.555  -1.547  0.00  0.00    +0.000 OA
ATOM     13  C   UNL     1       5.870   0.318  -0.589  0.00  0.00    +0.000 A 
ATOM     14  C   UNL     1       4.834   0.891   0.114  0.00  0.00    +0.000 A 
BRANCH  13  15
ATOM     15  O   UNL     1       6.902   1.106  -1.103  0.00  0.00    +0.000 OA
BRANCH  15  16
ATOM     16  C   UNL     1       6.970   2.501  -0.954  0.00  0.00    +0.000 C 
ATOM     17  C   UNL     1       8.212   2.999  -1.639  0.00  0.00    +0.000 C 
ENDBRANCH  15  16
ENDBRANCH  13  15
ENDBRANCH   5   8
BRANCH   1  18
ATOM     18  C   UNL     1      -1.279  -1.684  -0.662  0.00  0.00    +0.000 C 
ATOM     19  O   UNL     1      -2.522  -1.823  -0.480  0.00  0.00    +0.000 OA
BRANCH  18  20
ATOM     20  O   UNL     1      -0.652  -2.388  -1.671  0.00  0.00    +0.000 OA
BRANCH  20  22
ATOM     21  C   UNL     1      -2.437  -2.593  -3.321  0.00  0.00    +0.000 C 
ATOM     22  C   UNL     1      -1.342  -3.275  -2.528  0.00  0.00    +0.000 C 
ENDBRANCH  20  22
ENDBRANCH  18  20
ENDBRANCH   1  18
BRANCH   2  23
ATOM     23  N   UNL     1      -2.543  -0.096   1.570  0.00  0.00    +0.000 NA
BRANCH  23  24
ATOM     24  C   UNL     1      -3.470   0.645   0.810  0.00  0.00    +0.000 A 
ATOM     25  C   UNL     1      -3.047   1.359  -0.289  0.00  0.00    +0.000 A 
ATOM     26  C   UNL     1      -3.973   2.094  -1.045  0.00  0.00    +0.000 A 
ATOM     27  C   UNL     1      -5.305   2.108  -0.696  0.00  0.00    +0.000 A 
ATOM     28  C   UNL     1      -5.729   1.397   0.403  0.00  0.00    +0.000 A 
ATOM     29  C   UNL     1      -7.066   1.433   0.723  0.00  0.00    +0.000 A 
ATOM     30  C   UNL     1      -7.474   0.716   1.827  0.00  0.00    +0.000 A 
ATOM     31  C   UNL     1      -6.563  -0.014   2.578  0.00  0.00    +0.000 A 
ATOM     32  C   UNL     1      -5.222  -0.044   2.246  0.00  0.00    +0.000 A 
ATOM     33  C   UNL     1      -4.797   0.674   1.139  0.00  0.00    +0.000 A 
ENDBRANCH  23  24
ENDBRANCH   2  23
TORSDOF 8
