REMARK  Name = 
REMARK  7 active torsions:
REMARK  status: ('A' for Active; 'I' for Inactive)
REMARK    1  A    between atoms: C_2  and  O_3
REMARK    2  A    between atoms: O_3  and  C_4
REMARK    3  A    between atoms: C_7  and  C_8
REMARK    4  A    between atoms: N_9  and  N_10
REMARK    5  A    between atoms: C_11  and  C_13
REMARK    6  A    between atoms: C_27  and  O_28
REMARK    7  A    between atoms: O_28  and  C_29
REMARK                            x       y       z     vdW  Elec       q    Type
REMARK                         _______ _______ _______ _____ _____    ______ ____
ROOT
ATOM      1  N   UNL     1      -0.158   0.242  -0.138  0.00  0.00    +0.000 NA
ATOM      2  C   UNL     1      -0.810  -1.004  -0.028  0.00  0.00    +0.000 C 
ATOM      3  O   UNL     1      -0.117  -2.037   0.101  0.00  0.00    +0.000 OA
ENDROOT
BRANCH   2   4
ATOM      4  C   UNL     1      -2.278  -1.126  -0.060  0.00  0.00    +0.000 A 
ATOM      5  C   UNL     1      -3.179  -0.089  -0.195  0.00  0.00    +0.000 A 
ATOM      6  C   UNL     1      -4.455  -0.611  -0.180  0.00  0.00    +0.000 A 
ATOM      7  C   UNL     1      -4.259  -1.991  -0.030  0.00  0.00    +0.000 A 
ATOM      8  C   UNL     1      -5.378  -2.781   0.018  0.00  0.00    +0.000 A 
ATOM      9  C   UNL     1      -6.649  -2.238  -0.077  0.00  0.00    +0.000 A 
ATOM     10  C   UNL     1      -6.850  -0.892  -0.223  0.00  0.00    +0.000 A 
ATOM     11  C   UNL     1      -8.124  -0.360  -0.318  0.00  0.00    +0.000 A 
ATOM     12  C   UNL     1      -8.270   0.996  -0.464  0.00  0.00    +0.000 A 
ATOM     13  C   UNL     1      -7.187   1.812  -0.515  0.00  0.00    +0.000 A 
ATOM     14  C   UNL     1      -5.921   1.260  -0.419  0.00  0.00    +0.000 A 
ATOM     15  C   UNL     1      -5.727  -0.094  -0.272  0.00  0.00    +0.000 A 
ATOM     16  O   UNL     1      -2.968  -2.224   0.034  0.00  0.00    +0.000 OA
ENDBRANCH   2   4
BRANCH   1  18
ATOM     17  C   UNL     1       2.090  -0.395   0.254  0.00  0.00    +0.000 C 
ATOM     18  N   UNL     1       1.206   0.435  -0.116  0.00  0.00    +0.000 NA
BRANCH  17  22
ATOM     19  C   UNL     1       6.277   0.513   0.203  0.00  0.00    +0.000 A 
ATOM     20  C   UNL     1       5.819  -0.716   0.630  0.00  0.00    +0.000 A 
ATOM     21  C   UNL     1       4.466  -1.011   0.648  0.00  0.00    +0.000 A 
ATOM     22  C   UNL     1       3.535  -0.081   0.237  0.00  0.00    +0.000 A 
ATOM     23  C   UNL     1       4.009   1.143  -0.188  0.00  0.00    +0.000 A 
ATOM     24  C   UNL     1       5.354   1.450  -0.210  0.00  0.00    +0.000 A 
BRANCH  19  25
ATOM     25  O   UNL     1       7.643   0.819   0.183  0.00  0.00    +0.000 OA
BRANCH  25  27
ATOM     26  C   UNL     1       8.517  -1.376  -0.228  0.00  0.00    +0.000 C 
ATOM     27  C   UNL     1       8.584  -0.132   0.603  0.00  0.00    +0.000 C 
ENDBRANCH  25  27
ENDBRANCH  19  25
BRANCH  24  28
ATOM     28  O   UNL     1       5.826   2.684  -0.638  0.00  0.00    +0.000 OA
BRANCH  28  29
ATOM     29  C   UNL     1       4.973   3.717  -1.082  0.00  0.00    +0.000 C 
ATOM     30  C   UNL     1       4.032   4.084   0.043  0.00  0.00    +0.000 C 
ENDBRANCH  28  29
ENDBRANCH  24  28
ENDBRANCH  17  22
ENDBRANCH   1  18
TORSDOF 7
