REMARK  Name = 
REMARK  7 active torsions:
REMARK  status: ('A' for Active; 'I' for Inactive)
REMARK    1  A    between atoms: O_2  and  C_3
REMARK    2  A    between atoms: C_6  and  C_7
REMARK    3  A    between atoms: C_7  and  N_8
REMARK    4  A    between atoms: C_9  and  C_11
REMARK    5  A    between atoms: C_13  and  C_14
REMARK    6  A    between atoms: C_17  and  C_18
REMARK    7  A    between atoms: C_18  and  C_19
REMARK                            x       y       z     vdW  Elec       q    Type
REMARK                         _______ _______ _______ _____ _____    ______ ____
ROOT
ATOM      1  C   UNL     1      -0.627  -1.129   0.171  0.00  0.00    +0.000 A 
ATOM      2  C   UNL     1       0.628  -0.801  -0.311  0.00  0.00    +0.000 A 
ATOM      3  C   UNL     1       1.767  -0.975   0.455  0.00  0.00    +0.000 A 
ATOM      4  N   UNL     1       1.594  -1.478   1.690  0.00  0.00    +0.000 NA
ATOM      5  C   UNL     1       0.399  -1.806   2.191  0.00  0.00    +0.000 A 
ATOM      6  C   UNL     1       0.230  -2.320   3.466  0.00  0.00    +0.000 A 
ATOM      7  C   UNL     1      -1.000  -2.659   3.992  0.00  0.00    +0.000 A 
ATOM      8  C   UNL     1      -2.112  -2.473   3.200  0.00  0.00    +0.000 A 
ATOM      9  C   UNL     1      -2.007  -1.967   1.931  0.00  0.00    +0.000 A 
ATOM     10  C   UNL     1      -0.750  -1.643   1.450  0.00  0.00    +0.000 A 
ENDROOT
BRANCH   3  11
ATOM     11  C   UNL     1       3.089  -0.635  -0.063  0.00  0.00    +0.000 A 
ATOM     12  C   UNL     1       4.202  -0.839   0.727  0.00  0.00    +0.000 A 
ATOM     13  C   UNL     1       5.474  -0.535   0.286  0.00  0.00    +0.000 A 
ATOM     14  C   UNL     1       5.690  -0.011  -0.972  0.00  0.00    +0.000 A 
ATOM     15  C   UNL     1       4.581   0.197  -1.769  0.00  0.00    +0.000 A 
ATOM     16  C   UNL     1       3.301  -0.112  -1.314  0.00  0.00    +0.000 A 
BRANCH  14  17
ATOM     17  C   UNL     1       7.065   0.319  -1.462  0.00  0.00    +0.000 C 
BRANCH  17  18
ATOM     18  C   UNL     1       7.460   1.732  -1.120  0.00  0.00    +0.000 C 
ATOM     19  C   UNL     1       7.439   1.920   0.386  0.00  0.00    +0.000 C 
ATOM     20  C   UNL     1       8.874   1.962  -1.623  0.00  0.00    +0.000 C 
ENDBRANCH  17  18
ENDBRANCH  14  17
ENDBRANCH   3  11
BRANCH   1  22
ATOM     21  N   UNL     1      -3.054  -1.402  -0.185  0.00  0.00    +0.000 NA
ATOM     22  C   UNL     1      -1.803  -0.941  -0.671  0.00  0.00    +0.000 C 
ATOM     23  O   UNL     1      -1.664  -0.382  -1.787  0.00  0.00    +0.000 OA
BRANCH  21  24
ATOM     24  C   UNL     1      -4.256  -1.245  -0.967  0.00  0.00    +0.000 C 
BRANCH  24  28
ATOM     25  C   UNL     1      -5.892   2.662  -0.798  0.00  0.00    +0.000 A 
ATOM     26  C   UNL     1      -6.407   1.643  -0.020  0.00  0.00    +0.000 A 
ATOM     27  C   UNL     1      -5.883   0.368  -0.069  0.00  0.00    +0.000 A 
ATOM     28  C   UNL     1      -4.821   0.126  -0.920  0.00  0.00    +0.000 A 
ATOM     29  C   UNL     1      -4.271   1.106  -1.715  0.00  0.00    +0.000 A 
ATOM     30  C   UNL     1      -4.837   2.362  -1.624  0.00  0.00    +0.000 A 
BRANCH  25  32
ATOM     31  C   UNL     1      -5.972   5.021  -1.484  0.00  0.00    +0.000 C 
ATOM     32  O   UNL     1      -6.438   3.937  -0.732  0.00  0.00    +0.000 OA
ENDBRANCH  25  32
ENDBRANCH  24  28
ENDBRANCH  21  24
ENDBRANCH   1  22
TORSDOF 7
