REMARK  Name = 
REMARK  7 active torsions:
REMARK  status: ('A' for Active; 'I' for Inactive)
REMARK    1  A    between atoms: C_2  and  O_3
REMARK    2  A    between atoms: O_3  and  C_4
REMARK    3  A    between atoms: C_7  and  N_8
REMARK    4  A    between atoms: C_9  and  S_10
REMARK    5  A    between atoms: S_10  and  C_11
REMARK    6  A    between atoms: C_11  and  C_12
REMARK    7  A    between atoms: N_14  and  C_15
REMARK                            x       y       z     vdW  Elec       q    Type
REMARK                         _______ _______ _______ _____ _____    ______ ____
ROOT
ATOM      1  N   UNL     1      -1.513  -1.056  -0.473  0.00  0.00    +0.000 N 
ATOM      2  C   UNL     1      -0.396  -0.726  -1.160  0.00  0.00    +0.000 A 
ATOM      3  N   UNL     1       0.409  -1.796  -1.266  0.00  0.00    +0.000 NA
ATOM      4  C   UNL     1      -0.179  -2.845  -0.644  0.00  0.00    +0.000 A 
ATOM      5  C   UNL     1       0.162  -4.170  -0.428  0.00  0.00    +0.000 A 
ATOM      6  C   UNL     1      -0.718  -4.961   0.273  0.00  0.00    +0.000 A 
ATOM      7  C   UNL     1      -1.915  -4.487   0.763  0.00  0.00    +0.000 A 
ATOM      8  C   UNL     1      -2.265  -3.172   0.556  0.00  0.00    +0.000 A 
ATOM      9  C   UNL     1      -1.373  -2.361  -0.158  0.00  0.00    +0.000 A 
ENDROOT
BRANCH   1  13
ATOM     10  C   UNL     1      -4.792   1.512   0.389  0.00  0.00    +0.000 A 
ATOM     11  C   UNL     1      -3.980   1.736  -0.696  0.00  0.00    +0.000 A 
ATOM     12  C   UNL     1      -2.920   0.893  -0.956  0.00  0.00    +0.000 A 
ATOM     13  C   UNL     1      -2.621  -0.208  -0.153  0.00  0.00    +0.000 A 
ATOM     14  C   UNL     1      -3.445  -0.418   0.928  0.00  0.00    +0.000 A 
ATOM     15  C   UNL     1      -4.512   0.430   1.192  0.00  0.00    +0.000 A 
BRANCH  10  16
ATOM     16  O   UNL     1      -5.884   2.316   0.722  0.00  0.00    +0.000 OA
BRANCH  16  18
ATOM     17  C   UNL     1      -5.137   4.455  -0.023  0.00  0.00    +0.000 C 
ATOM     18  C   UNL     1      -6.280   3.440  -0.004  0.00  0.00    +0.000 C 
ENDBRANCH  16  18
ENDBRANCH  10  16
ENDBRANCH   1  13
BRANCH   2  19
ATOM     19  S   UNL     1      -0.110   0.947  -1.781  0.00  0.00    +0.000 S 
BRANCH  19  20
ATOM     20  C   UNL     1       0.785   1.858  -0.490  0.00  0.00    +0.000 C 
BRANCH  20  21
ATOM     21  C   UNL     1       2.151   1.279  -0.345  0.00  0.00    +0.000 C 
ATOM     22  O   UNL     1       2.506   0.324  -1.119  0.00  0.00    +0.000 OA
ATOM     23  N   UNL     1       3.100   1.714   0.598  0.00  0.00    +0.000 NA
BRANCH  23  24
ATOM     24  C   UNL     1       4.397   1.084   0.646  0.00  0.00    +0.000 A 
ATOM     25  C   UNL     1       4.720   0.081  -0.248  0.00  0.00    +0.000 A 
ATOM     26  C   UNL     1       5.950  -0.560  -0.263  0.00  0.00    +0.000 A 
ATOM     27  C   UNL     1       6.867  -0.151   0.673  0.00  0.00    +0.000 A 
ATOM     28  C   UNL     1       6.597   0.844   1.588  0.00  0.00    +0.000 A 
ATOM     29  C   UNL     1       5.340   1.458   1.560  0.00  0.00    +0.000 A 
ATOM     30  C   UNL     1       5.055   2.542   2.563  0.00  0.00    +0.000 C 
ENDBRANCH  23  24
ENDBRANCH  20  21
ENDBRANCH  19  20
ENDBRANCH   2  19
TORSDOF 7
