REMARK  Name = 
REMARK  7 active torsions:
REMARK  status: ('A' for Active; 'I' for Inactive)
REMARK    1  A    between atoms: C_2  and  C_3
REMARK    2  A    between atoms: C_3  and  C_4
REMARK    3  A    between atoms: C_7  and  N_8
REMARK    4  A    between atoms: C_9  and  C_11
REMARK    5  A    between atoms: N_14  and  C_15
REMARK    6  A    between atoms: C_15  and  C_16
REMARK    7  A    between atoms: C_15  and  C_22
REMARK                            x       y       z     vdW  Elec       q    Type
REMARK                         _______ _______ _______ _____ _____    ______ ____
ROOT
ATOM      1  C   UNL     1       0.121   0.491  -1.416  0.00  0.00    +0.000 A 
ATOM      2  N   UNL     1      -0.356   1.284  -2.387  0.00  0.00    +0.000 NA
ATOM      3  C   UNL     1      -1.704   1.359  -2.278  0.00  0.00    +0.000 A 
ATOM      4  N   UNL     1      -2.110   0.617  -1.238  0.00  0.00    +0.000 N 
ATOM      5  C   UNL     1      -0.999   0.082  -0.703  0.00  0.00    +0.000 A 
ATOM      6  C   UNL     1      -0.959  -0.811   0.469  0.00  0.00    +0.000 C 
ENDROOT
BRANCH   1   8
ATOM      7  N   UNL     1       1.960  -0.686  -0.147  0.00  0.00    +0.000 NA
ATOM      8  C   UNL     1       1.515   0.152  -1.183  0.00  0.00    +0.000 C 
ATOM      9  O   UNL     1       2.376   0.639  -1.957  0.00  0.00    +0.000 OA
BRANCH   7  13
ATOM     10  C   UNL     1       6.010  -1.724   0.599  0.00  0.00    +0.000 A 
ATOM     11  C   UNL     1       5.668  -0.894  -0.443  0.00  0.00    +0.000 A 
ATOM     12  C   UNL     1       4.358  -0.540  -0.709  0.00  0.00    +0.000 A 
ATOM     13  C   UNL     1       3.330  -1.014   0.074  0.00  0.00    +0.000 A 
ATOM     14  C   UNL     1       3.657  -1.847   1.123  0.00  0.00    +0.000 A 
ATOM     15  C   UNL     1       4.979  -2.204   1.390  0.00  0.00    +0.000 A 
BRANCH  10  16
ATOM     16  C   UNL     1       7.426  -2.089   0.863  0.00  0.00    +0.000 C 
BRANCH  16  18
ATOM     17  C   UNL     1       9.466  -1.386   2.122  0.00  0.00    +0.000 C 
ATOM     18  C   UNL     1       8.037  -1.071   1.817  0.00  0.00    +0.000 C 
ENDBRANCH  16  18
ENDBRANCH  10  16
ENDBRANCH   7  13
ENDBRANCH   1   8
BRANCH   4  19
ATOM     19  C   UNL     1      -3.497   0.466  -0.825  0.00  0.00    +0.000 C 
BRANCH  19  20
ATOM     20  C   UNL     1      -3.611  -0.519   0.280  0.00  0.00    +0.000 A 
ATOM     21  C   UNL     1      -3.538  -0.172   1.605  0.00  0.00    +0.000 A 
ATOM     22  C   UNL     1      -3.656  -1.156   2.553  0.00  0.00    +0.000 A 
ATOM     23  C   UNL     1      -3.844  -2.465   2.182  0.00  0.00    +0.000 A 
ATOM     24  C   UNL     1      -3.921  -2.839   0.858  0.00  0.00    +0.000 A 
ATOM     25  C   UNL     1      -3.800  -1.834  -0.074  0.00  0.00    +0.000 A 
ENDBRANCH  19  20
BRANCH  19  26
ATOM     26  C   UNL     1      -4.010   1.794  -0.428  0.00  0.00    +0.000 A 
ATOM     27  C   UNL     1      -3.901   2.225   0.879  0.00  0.00    +0.000 A 
ATOM     28  C   UNL     1      -4.373   3.458   1.267  0.00  0.00    +0.000 A 
ATOM     29  C   UNL     1      -4.961   4.258   0.312  0.00  0.00    +0.000 A 
ATOM     30  C   UNL     1      -5.070   3.832  -0.990  0.00  0.00    +0.000 A 
ATOM     31  C   UNL     1      -4.593   2.596  -1.361  0.00  0.00    +0.000 A 
ENDBRANCH  19  26
ENDBRANCH   4  19
TORSDOF 7
