REMARK  Name = 
REMARK  7 active torsions:
REMARK  status: ('A' for Active; 'I' for Inactive)
REMARK    1  A    between atoms: C_3  and  C_4
REMARK    2  A    between atoms: C_4  and  C_5
REMARK    3  A    between atoms: N_13  and  C_14
REMARK    4  A    between atoms: C_14  and  C_15
REMARK    5  A    between atoms: C_15  and  C_16
REMARK    6  A    between atoms: C_16  and  C_17
REMARK    7  A    between atoms: C_23  and  N_24
REMARK                            x       y       z     vdW  Elec       q    Type
REMARK                         _______ _______ _______ _____ _____    ______ ____
ROOT
ATOM      1  C   UNL     1      -0.349  -1.508   1.552  0.00  0.00    +0.000 C 
ENDROOT
BRANCH   1   2
ATOM      2  C   UNL     1       0.589  -0.789   2.211  0.00  0.00    +0.000 C 
BRANCH   2   8
ATOM      3  C   UNL     1       2.653  -0.629  -1.793  0.00  0.00    +0.000 C 
ATOM      4  C   UNL     1       2.407   0.137  -0.495  0.00  0.00    +0.000 C 
ATOM      5  C   UNL     1       3.465   0.840  -0.045  0.00  0.00    +0.000 C 
ATOM      6  C   UNL     1       3.264   1.588   1.203  0.00  0.00    +0.000 C 
ATOM      7  C   UNL     1       2.287   0.931   2.106  0.00  0.00    +0.000 C 
ATOM      8  N   UNL     1       1.115   0.413   1.536  0.00  0.00    +0.000 NA
ATOM      9  C   UNL     1       1.075   0.121   0.151  0.00  0.00    +0.000 C 
BRANCH   5  10
ATOM     10  C   UNL     1       4.662   0.754  -0.873  0.00  0.00    +0.000 C 
BRANCH  10  11
ATOM     11  C   UNL     1       5.949   0.426  -0.330  0.00  0.00    +0.000 A 
ATOM     12  C   UNL     1       7.002   1.308  -0.649  0.00  0.00    +0.000 A 
ATOM     13  C   UNL     1       8.284   1.173  -0.248  0.00  0.00    +0.000 A 
ATOM     14  C   UNL     1       8.616   0.081   0.548  0.00  0.00    +0.000 A 
ATOM     15  C   UNL     1       7.643  -0.806   0.893  0.00  0.00    +0.000 A 
ATOM     16  C   UNL     1       6.301  -0.659   0.467  0.00  0.00    +0.000 A 
ENDBRANCH  10  11
ENDBRANCH   5  10
ENDBRANCH   2   8
ENDBRANCH   1   2
BRANCH   1  17
ATOM     17  C   UNL     1      -1.285  -2.213   0.898  0.00  0.00    +0.000 C 
BRANCH  17  18
ATOM     18  C   UNL     1      -1.792  -1.717  -0.427  0.00  0.00    +0.000 A 
ATOM     19  C   UNL     1      -1.127  -1.867  -1.633  0.00  0.00    +0.000 A 
ATOM     20  N   UNL     1      -1.792  -1.228  -2.583  0.00  0.00    +0.000 NA
ATOM     21  C   UNL     1      -2.872  -0.664  -2.040  0.00  0.00    +0.000 A 
ATOM     22  C   UNL     1      -3.905   0.067  -2.600  0.00  0.00    +0.000 A 
ATOM     23  C   UNL     1      -4.974   0.497  -1.797  0.00  0.00    +0.000 A 
ATOM     24  C   UNL     1      -5.004   0.196  -0.447  0.00  0.00    +0.000 A 
ATOM     25  C   UNL     1      -3.979  -0.516   0.103  0.00  0.00    +0.000 A 
ATOM     26  C   UNL     1      -2.894  -0.959  -0.687  0.00  0.00    +0.000 A 
BRANCH  24  27
ATOM     27  N   UNL     1      -6.126   0.587   0.363  0.00  0.00    +0.000 N 
ATOM     28  C   UNL     1      -6.395   1.732   0.967  0.00  0.00    +0.000 A 
ATOM     29  N   UNL     1      -7.564   1.671   1.602  0.00  0.00    +0.000 NA
ATOM     30  N   UNL     1      -8.062   0.470   1.408  0.00  0.00    +0.000 NA
ATOM     31  C   UNL     1      -7.191  -0.224   0.642  0.00  0.00    +0.000 A 
ENDBRANCH  24  27
ENDBRANCH  17  18
ENDBRANCH   1  17
TORSDOF 7
