REMARK  Name = 
REMARK  7 active torsions:
REMARK  status: ('A' for Active; 'I' for Inactive)
REMARK    1  A    between atoms: O_2  and  C_3
REMARK    2  A    between atoms: C_6  and  C_7
REMARK    3  A    between atoms: C_7  and  C_8
REMARK    4  A    between atoms: C_8  and  N_9
REMARK    5  A    between atoms: C_16  and  C_17
REMARK    6  A    between atoms: C_23  and  C_24
REMARK    7  A    between atoms: C_32  and  O_33
REMARK                            x       y       z     vdW  Elec       q    Type
REMARK                         _______ _______ _______ _____ _____    ______ ____
ROOT
ATOM      1  N   UNL     1       0.205  -2.071   0.604  0.00  0.00    +0.000 NA
ATOM      2  C   UNL     1       0.456  -1.387  -0.591  0.00  0.00    +0.000 A 
ATOM      3  N   UNL     1       1.521  -1.598  -1.369  0.00  0.00    +0.000 NA
ATOM      4  C   UNL     1       1.688  -0.917  -2.541  0.00  0.00    +0.000 A 
ATOM      5  N   UNL     1       0.758  -0.010  -2.926  0.00  0.00    +0.000 NA
ATOM      6  C   UNL     1      -0.338   0.252  -2.192  0.00  0.00    +0.000 A 
ATOM      7  O   UNL     1      -1.357   1.067  -2.351  0.00  0.00    +0.000 OA
ATOM      8  C   UNL     1      -2.183   0.951  -1.337  0.00  0.00    +0.000 A 
ATOM      9  C   UNL     1      -1.672   0.008  -0.471  0.00  0.00    +0.000 A 
ATOM     10  C   UNL     1      -0.475  -0.457  -1.009  0.00  0.00    +0.000 A 
ENDROOT
BRANCH   8  11
ATOM     11  C   UNL     1      -3.429   1.671  -1.124  0.00  0.00    +0.000 A 
ATOM     12  C   UNL     1      -3.616   2.510  -0.030  0.00  0.00    +0.000 A 
ATOM     13  C   UNL     1      -4.795   3.197   0.177  0.00  0.00    +0.000 A 
ATOM     14  C   UNL     1      -5.829   3.058  -0.720  0.00  0.00    +0.000 A 
ATOM     15  C   UNL     1      -5.679   2.237  -1.814  0.00  0.00    +0.000 A 
ATOM     16  C   UNL     1      -4.501   1.575  -1.984  0.00  0.00    +0.000 A 
ENDBRANCH   8  11
BRANCH   9  17
ATOM     17  C   UNL     1      -2.250  -0.437   0.774  0.00  0.00    +0.000 A 
ATOM     18  C   UNL     1      -2.499   0.289   1.881  0.00  0.00    +0.000 A 
ATOM     19  C   UNL     1      -3.055  -0.199   3.045  0.00  0.00    +0.000 A 
ATOM     20  C   UNL     1      -3.381  -1.531   3.075  0.00  0.00    +0.000 A 
ATOM     21  C   UNL     1      -3.159  -2.326   1.998  0.00  0.00    +0.000 A 
ATOM     22  C   UNL     1      -2.602  -1.770   0.873  0.00  0.00    +0.000 A 
ENDBRANCH   9  17
BRANCH   1  23
ATOM     23  C   UNL     1       1.099  -3.019   1.154  0.00  0.00    +0.000 C 
BRANCH  23  24
ATOM     24  C   UNL     1       2.219  -2.436   1.893  0.00  0.00    +0.000 C 
BRANCH  24  28
ATOM     25  C   UNL     1       4.908   0.056  -0.262  0.00  0.00    +0.000 A 
ATOM     26  C   UNL     1       5.054  -1.313  -0.223  0.00  0.00    +0.000 A 
ATOM     27  C   UNL     1       4.169  -2.092   0.470  0.00  0.00    +0.000 A 
ATOM     28  C   UNL     1       3.097  -1.544   1.156  0.00  0.00    +0.000 A 
ATOM     29  C   UNL     1       2.953  -0.167   1.115  0.00  0.00    +0.000 A 
ATOM     30  C   UNL     1       3.835   0.620   0.423  0.00  0.00    +0.000 A 
BRANCH  25  32
ATOM     31  C   UNL     1       6.867   0.323  -1.647  0.00  0.00    +0.000 C 
ATOM     32  O   UNL     1       5.771   0.894  -0.947  0.00  0.00    +0.000 OA
ENDBRANCH  25  32
BRANCH  30  33
ATOM     33  O   UNL     1       3.651   1.984   0.410  0.00  0.00    +0.000 OA
ATOM     34  C   UNL     1       2.569   2.578   1.099  0.00  0.00    +0.000 C 
ENDBRANCH  30  33
ENDBRANCH  24  28
ENDBRANCH  23  24
ENDBRANCH   1  23
TORSDOF 7
