REMARK  Name = 
REMARK  6 active torsions:
REMARK  status: ('A' for Active; 'I' for Inactive)
REMARK    1  A    between atoms: C_10  and  N_11
REMARK    2  A    between atoms: N_11  and  C_12
REMARK    3  A    between atoms: C_15  and  N_16
REMARK    4  A    between atoms: N_16  and  C_17
REMARK    5  A    between atoms: C_25  and  C_26
REMARK    6  A    between atoms: C_26  and  N_27
REMARK                            x       y       z     vdW  Elec       q    Type
REMARK                         _______ _______ _______ _____ _____    ______ ____
ROOT
ATOM      1  C   UNL     1      -4.266  -1.405  -1.882  0.00  0.00    +0.000 C 
ATOM      2  C   UNL     1      -3.339  -0.348  -1.375  0.00  0.00    +0.000 A 
ATOM      3  N   UNL     1      -3.221   0.841  -1.937  0.00  0.00    +0.000 NA
ATOM      4  C   UNL     1      -2.397   1.808  -1.442  0.00  0.00    +0.000 A 
ATOM      5  C   UNL     1      -2.293   3.037  -2.027  0.00  0.00    +0.000 A 
ATOM      6  C   UNL     1      -1.444   4.031  -1.499  0.00  0.00    +0.000 A 
ATOM      7  C   UNL     1      -0.716   3.726  -0.374  0.00  0.00    +0.000 A 
ATOM      8  C   UNL     1      -0.807   2.486   0.225  0.00  0.00    +0.000 A 
ATOM      9  C   UNL     1      -1.666   1.535  -0.329  0.00  0.00    +0.000 A 
ATOM     10  C   UNL     1      -1.722   0.294   0.331  0.00  0.00    +0.000 A 
ATOM     11  C   UNL     1      -2.572  -0.627  -0.207  0.00  0.00    +0.000 A 
ENDROOT
BRANCH  10  12
ATOM     12  N   UNL     1      -0.811   0.107   1.425  0.00  0.00    +0.000 NA
BRANCH  12  13
ATOM     13  C   UNL     1       0.587  -0.119   1.045  0.00  0.00    +0.000 A 
ATOM     14  C   UNL     1       0.933  -0.653  -0.148  0.00  0.00    +0.000 A 
ATOM     15  C   UNL     1       2.200  -0.755  -0.569  0.00  0.00    +0.000 A 
ATOM     16  C   UNL     1       3.293  -0.300   0.221  0.00  0.00    +0.000 A 
ATOM     17  C   UNL     1       2.961   0.246   1.460  0.00  0.00    +0.000 A 
ATOM     18  C   UNL     1       1.647   0.330   1.852  0.00  0.00    +0.000 A 
BRANCH  16  19
ATOM     19  N   UNL     1       4.503  -0.345  -0.404  0.00  0.00    +0.000 NA
BRANCH  19  20
ATOM     20  C   UNL     1       5.831  -0.071  -0.166  0.00  0.00    +0.000 A 
ATOM     21  C   UNL     1       6.694  -0.194  -1.265  0.00  0.00    +0.000 A 
ATOM     22  C   UNL     1       8.049  -0.007  -1.131  0.00  0.00    +0.000 A 
ATOM     23  C   UNL     1       8.605   0.315   0.098  0.00  0.00    +0.000 A 
ATOM     24  C   UNL     1       7.774   0.451   1.188  0.00  0.00    +0.000 A 
ATOM     25  C   UNL     1       6.385   0.252   1.046  0.00  0.00    +0.000 A 
ENDBRANCH  19  20
ENDBRANCH  16  19
ENDBRANCH  12  13
ENDBRANCH  10  12
BRANCH  11  26
ATOM     26  C   UNL     1      -2.697  -1.976   0.343  0.00  0.00    +0.000 C 
BRANCH  26  27
ATOM     27  N   UNL     1      -4.069  -2.126   0.795  0.00  0.00    +0.000 NA
ATOM     28  C   UNL     1      -4.626  -0.949   1.442  0.00  0.00    +0.000 C 
ATOM     29  C   UNL     1      -6.091  -0.893   0.922  0.00  0.00    +0.000 C 
ATOM     30  C   UNL     1      -6.598  -2.341   1.042  0.00  0.00    +0.000 C 
ATOM     31  C   UNL     1      -5.776  -3.075   2.111  0.00  0.00    +0.000 C 
ATOM     32  C   UNL     1      -4.351  -3.274   1.558  0.00  0.00    +0.000 C 
ENDBRANCH  26  27
ENDBRANCH  11  26
TORSDOF 6
