REMARK  Name = 
REMARK  7 active torsions:
REMARK  status: ('A' for Active; 'I' for Inactive)
REMARK    1  A    between atoms: O_2  and  C_3
REMARK    2  A    between atoms: C_6  and  C_7
REMARK    3  A    between atoms: C_9  and  C_10
REMARK    4  A    between atoms: N_12  and  C_13
REMARK    5  A    between atoms: C_13  and  C_14
REMARK    6  A    between atoms: C_14  and  C_15
REMARK    7  A    between atoms: C_29  and  O_30
REMARK                            x       y       z     vdW  Elec       q    Type
REMARK                         _______ _______ _______ _____ _____    ______ ____
ROOT
ATOM      1  C   UNL     1      -2.179  -0.834   0.197  0.00  0.00    +0.000 A 
ATOM      2  C   UNL     1      -0.945  -0.223   0.270  0.00  0.00    +0.000 A 
ATOM      3  C   UNL     1       0.227  -0.908   0.081  0.00  0.00    +0.000 A 
ATOM      4  C   UNL     1       0.178  -2.259  -0.192  0.00  0.00    +0.000 A 
ATOM      5  C   UNL     1       1.348  -2.988  -0.389  0.00  0.00    +0.000 A 
ATOM      6  C   UNL     1       1.290  -4.333  -0.661  0.00  0.00    +0.000 A 
ATOM      7  C   UNL     1       0.053  -4.929  -0.731  0.00  0.00    +0.000 A 
ATOM      8  C   UNL     1      -1.123  -4.234  -0.540  0.00  0.00    +0.000 A 
ATOM      9  C   UNL     1      -1.056  -2.862  -0.263  0.00  0.00    +0.000 A 
ATOM     10  N   UNL     1      -2.172  -2.146  -0.071  0.00  0.00    +0.000 NA
ENDROOT
BRANCH   1  14
ATOM     11  C   UNL     1      -5.763   1.315   0.785  0.00  0.00    +0.000 A 
ATOM     12  C   UNL     1      -5.820  -0.034   0.512  0.00  0.00    +0.000 A 
ATOM     13  C   UNL     1      -4.623  -0.731   0.320  0.00  0.00    +0.000 A 
ATOM     14  C   UNL     1      -3.428  -0.088   0.401  0.00  0.00    +0.000 A 
ATOM     15  C   UNL     1      -3.411   1.248   0.673  0.00  0.00    +0.000 A 
ATOM     16  C   UNL     1      -4.568   1.980   0.870  0.00  0.00    +0.000 A 
BRANCH  11  18
ATOM     17  C   UNL     1      -8.180   1.368   0.896  0.00  0.00    +0.000 C 
ATOM     18  O   UNL     1      -6.940   2.007   0.975  0.00  0.00    +0.000 OA
ENDBRANCH  11  18
BRANCH  16  19
ATOM     19  O   UNL     1      -4.473   3.333   1.142  0.00  0.00    +0.000 OA
ATOM     20  C   UNL     1      -3.219   3.979   1.221  0.00  0.00    +0.000 C 
ENDBRANCH  16  19
ENDBRANCH   1  14
BRANCH   3  21
ATOM     21  C   UNL     1       1.539  -0.255   0.160  0.00  0.00    +0.000 C 
ATOM     22  O   UNL     1       1.578   0.977   0.410  0.00  0.00    +0.000 OA
ATOM     23  N   UNL     1       2.733  -0.989  -0.040  0.00  0.00    +0.000 NA
BRANCH  23  24
ATOM     24  C   UNL     1       4.049  -0.371   0.031  0.00  0.00    +0.000 C 
BRANCH  24  25
ATOM     25  C   UNL     1       4.189   0.729  -1.002  0.00  0.00    +0.000 C 
BRANCH  25  26
ATOM     26  C   UNL     1       5.554   1.293  -0.852  0.00  0.00    +0.000 A 
ATOM     27  C   UNL     1       6.644   0.801  -1.547  0.00  0.00    +0.000 A 
ATOM     28  C   UNL     1       7.862   1.408  -1.324  0.00  0.00    +0.000 A 
ATOM     29  C   UNL     1       8.013   2.463  -0.449  0.00  0.00    +0.000 A 
ATOM     30  C   UNL     1       6.929   2.942   0.233  0.00  0.00    +0.000 A 
ATOM     31  C   UNL     1       5.713   2.342   0.015  0.00  0.00    +0.000 A 
ENDBRANCH  25  26
ENDBRANCH  24  25
ENDBRANCH  23  24
ENDBRANCH   3  21
TORSDOF 7
