REMARK  Name = 
REMARK  7 active torsions:
REMARK  status: ('A' for Active; 'I' for Inactive)
REMARK    1  A    between atoms: C_2  and  C_3
REMARK    2  A    between atoms: C_3  and  O_4
REMARK    3  A    between atoms: O_4  and  C_5
REMARK    4  A    between atoms: C_8  and  N_9
REMARK    5  A    between atoms: C_10  and  C_12
REMARK    6  A    between atoms: C_13  and  N_14
REMARK    7  A    between atoms: C_15  and  C_17
REMARK                            x       y       z     vdW  Elec       q    Type
REMARK                         _______ _______ _______ _____ _____    ______ ____
ROOT
ATOM      1  C   UNL     1       1.358  -1.980   0.128  0.00  0.00    +0.000 A 
ATOM      2  C   UNL     1       2.516  -1.282  -0.080  0.00  0.00    +0.000 A 
ATOM      3  S   UNL     1       3.690  -2.613  -0.166  0.00  0.00    +0.000 S 
ATOM      4  C   UNL     1       2.665  -3.906   0.067  0.00  0.00    +0.000 A 
ATOM      5  C   UNL     1       3.048  -5.365   0.108  0.00  0.00    +0.000 C 
ATOM      6  C   UNL     1       1.446  -3.335   0.206  0.00  0.00    +0.000 A 
ATOM      7  C   UNL     1       0.250  -4.273   0.444  0.00  0.00    +0.000 C 
ENDROOT
BRANCH   1   9
ATOM      8  N   UNL     1      -1.108  -2.072   0.452  0.00  0.00    +0.000 NA
ATOM      9  C   UNL     1       0.025  -1.308   0.102  0.00  0.00    +0.000 C 
ATOM     10  O   UNL     1      -0.167  -0.127  -0.200  0.00  0.00    +0.000 OA
BRANCH   8  14
ATOM     11  C   UNL     1      -5.007  -0.408   0.473  0.00  0.00    +0.000 A 
ATOM     12  C   UNL     1      -4.800  -1.716   0.819  0.00  0.00    +0.000 A 
ATOM     13  C   UNL     1      -3.518  -2.231   0.803  0.00  0.00    +0.000 A 
ATOM     14  C   UNL     1      -2.426  -1.479   0.450  0.00  0.00    +0.000 A 
ATOM     15  C   UNL     1      -2.644  -0.163   0.103  0.00  0.00    +0.000 A 
ATOM     16  C   UNL     1      -3.920   0.362   0.116  0.00  0.00    +0.000 A 
BRANCH  11  17
ATOM     17  O   UNL     1      -6.300   0.094   0.494  0.00  0.00    +0.000 OA
BRANCH  17  18
ATOM     18  C   UNL     1      -6.591   1.440   0.148  0.00  0.00    +0.000 C 
BRANCH  18  20
ATOM     19  C   UNL     1      -6.117   3.796   0.772  0.00  0.00    +0.000 C 
ATOM     20  C   UNL     1      -5.837   2.351   1.103  0.00  0.00    +0.000 C 
ENDBRANCH  18  20
ENDBRANCH  17  18
ENDBRANCH  11  17
ENDBRANCH   8  14
ENDBRANCH   1   9
BRANCH   2  21
ATOM     21  N   UNL     1       2.951   0.031  -0.084  0.00  0.00    +0.000 NA
ATOM     22  C   UNL     1       2.666   1.284   0.257  0.00  0.00    +0.000 C 
ATOM     23  O   UNL     1       1.601   1.531   0.859  0.00  0.00    +0.000 OA
BRANCH  22  24
ATOM     24  C   UNL     1       3.537   2.465  -0.025  0.00  0.00    +0.000 A 
ATOM     25  C   UNL     1       3.172   3.730   0.355  0.00  0.00    +0.000 A 
ATOM     26  C   UNL     1       4.004   4.822   0.080  0.00  0.00    +0.000 A 
ATOM     27  C   UNL     1       5.205   4.662  -0.576  0.00  0.00    +0.000 A 
ATOM     28  C   UNL     1       5.568   3.389  -0.957  0.00  0.00    +0.000 A 
ATOM     29  C   UNL     1       4.733   2.299  -0.680  0.00  0.00    +0.000 A 
ENDBRANCH  22  24
ENDBRANCH   2  21
TORSDOF 7
