REMARK  Name = 
REMARK  8 active torsions:
REMARK  status: ('A' for Active; 'I' for Inactive)
REMARK    1  A    between atoms: O_2  and  C_3
REMARK    2  A    between atoms: C_5  and  N_6
REMARK    3  A    between atoms: C_7  and  C_9
REMARK    4  A    between atoms: C_13  and  C_14
REMARK    5  A    between atoms: C_14  and  O_15
REMARK    6  A    between atoms: O_15  and  C_16
REMARK    7  A    between atoms: C_28  and  O_29
REMARK    8  A    between atoms: C_31  and  O_32
REMARK                            x       y       z     vdW  Elec       q    Type
REMARK                         _______ _______ _______ _____ _____    ______ ____
ROOT
ATOM      1  C   UNL     1      -0.026   0.220  -1.647  0.00  0.00    +0.000 A 
ATOM      2  C   UNL     1       0.319   1.534  -1.867  0.00  0.00    +0.000 A 
ATOM      3  C   UNL     1       1.537   1.888  -2.430  0.00  0.00    +0.000 A 
ATOM      4  C   UNL     1       2.410   0.906  -2.772  0.00  0.00    +0.000 A 
ATOM      5  C   UNL     1       2.098  -0.404  -2.567  0.00  0.00    +0.000 A 
ATOM      6  C   UNL     1       0.863  -0.755  -1.996  0.00  0.00    +0.000 A 
ENDROOT
BRANCH   1   8
ATOM      7  N   UNL     1      -2.255   0.925  -0.685  0.00  0.00    +0.000 NA
ATOM      8  C   UNL     1      -1.320  -0.064  -1.054  0.00  0.00    +0.000 C 
ATOM      9  O   UNL     1      -1.666  -1.270  -0.838  0.00  0.00    +0.000 OA
BRANCH   7  12
ATOM     10  C   UNL     1      -5.183  -0.860   0.716  0.00  0.00    +0.000 A 
ATOM     11  C   UNL     1      -3.934  -0.668   0.147  0.00  0.00    +0.000 A 
ATOM     12  C   UNL     1      -3.532   0.614  -0.097  0.00  0.00    +0.000 A 
ATOM     13  C   UNL     1      -4.352   1.683   0.216  0.00  0.00    +0.000 A 
ATOM     14  C   UNL     1      -5.592   1.489   0.781  0.00  0.00    +0.000 A 
ATOM     15  C   UNL     1      -6.010   0.200   1.033  0.00  0.00    +0.000 A 
BRANCH  10  17
ATOM     16  C   UNL     1      -4.857  -3.240   0.689  0.00  0.00    +0.000 C 
ATOM     17  O   UNL     1      -5.676  -2.136   1.000  0.00  0.00    +0.000 OA
ENDBRANCH  10  17
BRANCH  14  18
ATOM     18  O   UNL     1      -6.385   2.583   1.081  0.00  0.00    +0.000 OA
ATOM     19  C   UNL     1      -5.916   3.882   0.806  0.00  0.00    +0.000 C 
ENDBRANCH  14  18
BRANCH  15  20
ATOM     20  O   UNL     1      -7.266   0.038   1.603  0.00  0.00    +0.000 OA
ATOM     21  C   UNL     1      -7.456   0.005   3.018  0.00  0.00    +0.000 C 
ENDBRANCH  15  20
ENDBRANCH   7  12
ENDBRANCH   1   8
BRANCH   5  22
ATOM     22  C   UNL     1       2.984  -1.544  -2.906  0.00  0.00    +0.000 C 
BRANCH  22  23
ATOM     23  O   UNL     1       3.522  -2.081  -1.727  0.00  0.00    +0.000 OA
BRANCH  23  24
ATOM     24  C   UNL     1       4.304  -1.282  -0.914  0.00  0.00    +0.000 A 
ATOM     25  C   UNL     1       4.605   0.028  -1.180  0.00  0.00    +0.000 A 
ATOM     26  C   UNL     1       5.384   0.797  -0.356  0.00  0.00    +0.000 A 
ATOM     27  C   UNL     1       5.910   0.277   0.801  0.00  0.00    +0.000 A 
ATOM     28  C   UNL     1       6.697   1.067   1.628  0.00  0.00    +0.000 A 
ATOM     29  C   UNL     1       7.215   0.524   2.785  0.00  0.00    +0.000 A 
ATOM     30  C   UNL     1       6.948  -0.788   3.107  0.00  0.00    +0.000 A 
ATOM     31  C   UNL     1       6.165  -1.544   2.268  0.00  0.00    +0.000 A 
ATOM     32  C   UNL     1       5.623  -1.033   1.090  0.00  0.00    +0.000 A 
ATOM     33  C   UNL     1       4.842  -1.811   0.267  0.00  0.00    +0.000 A 
ENDBRANCH  23  24
ENDBRANCH  22  23
ENDBRANCH   5  22
TORSDOF 8
