REMARK  Name = 
REMARK  8 active torsions:
REMARK  status: ('A' for Active; 'I' for Inactive)
REMARK    1  A    between atoms: C_2  and  O_3
REMARK    2  A    between atoms: O_3  and  C_4
REMARK    3  A    between atoms: C_9  and  N_10
REMARK    4  A    between atoms: C_11  and  C_13
REMARK    5  A    between atoms: C_14  and  N_15
REMARK    6  A    between atoms: C_16  and  C_18
REMARK    7  A    between atoms: C_18  and  O_19
REMARK    8  A    between atoms: O_19  and  C_20
REMARK                            x       y       z     vdW  Elec       q    Type
REMARK                         _______ _______ _______ _____ _____    ______ ____
ROOT
ATOM      1  C   UNL     1      -0.653  -1.413  -0.449  0.00  0.00    +0.000 A 
ATOM      2  C   UNL     1       0.690  -1.549  -0.431  0.00  0.00    +0.000 A 
ATOM      3  S   UNL     1       0.856  -3.290  -0.712  0.00  0.00    +0.000 S 
ATOM      4  C   UNL     1      -0.766  -3.709  -0.840  0.00  0.00    +0.000 A 
ATOM      5  C   UNL     1      -1.419  -2.535  -0.666  0.00  0.00    +0.000 A 
ATOM      6  C   UNL     1      -2.921  -2.830  -0.779  0.00  0.00    +0.000 C 
ATOM      7  C   UNL     1      -3.062  -4.305  -0.618  0.00  0.00    +0.000 C 
ATOM      8  C   UNL     1      -1.729  -4.863  -1.065  0.00  0.00    +0.000 C 
ENDROOT
BRANCH   1  10
ATOM      9  N   UNL     1      -2.672   0.111  -0.179  0.00  0.00    +0.000 NA
ATOM     10  C   UNL     1      -1.291  -0.129  -0.033  0.00  0.00    +0.000 C 
ATOM     11  O   UNL     1      -0.609   0.767   0.456  0.00  0.00    +0.000 OA
BRANCH   9  17
ATOM     12  C   UNL     1      -4.569   1.621   0.102  0.00  0.00    +0.000 A 
ATOM     13  C   UNL     1      -5.024   2.849   0.525  0.00  0.00    +0.000 A 
ATOM     14  C   UNL     1      -4.182   3.810   1.071  0.00  0.00    +0.000 A 
ATOM     15  C   UNL     1      -2.841   3.545   1.202  0.00  0.00    +0.000 A 
ATOM     16  C   UNL     1      -2.387   2.313   0.777  0.00  0.00    +0.000 A 
ATOM     17  C   UNL     1      -3.209   1.351   0.234  0.00  0.00    +0.000 A 
BRANCH  12  18
ATOM     18  O   UNL     1      -5.424   0.678  -0.439  0.00  0.00    +0.000 OA
BRANCH  18  20
ATOM     19  C   UNL     1      -7.407   1.316   0.806  0.00  0.00    +0.000 C 
ATOM     20  C   UNL     1      -6.795   1.011  -0.549  0.00  0.00    +0.000 C 
ENDBRANCH  18  20
ENDBRANCH  12  18
ENDBRANCH   9  17
ENDBRANCH   1  10
BRANCH   2  21
ATOM     21  N   UNL     1       1.845  -0.777  -0.445  0.00  0.00    +0.000 NA
ATOM     22  C   UNL     1       2.134   0.486  -0.804  0.00  0.00    +0.000 C 
ATOM     23  O   UNL     1       1.292   1.275  -1.282  0.00  0.00    +0.000 OA
BRANCH  22  24
ATOM     24  C   UNL     1       3.520   1.102  -0.668  0.00  0.00    +0.000 C 
BRANCH  24  25
ATOM     25  O   UNL     1       4.351   0.096  -0.118  0.00  0.00    +0.000 OA
BRANCH  25  26
ATOM     26  C   UNL     1       5.685   0.308   0.143  0.00  0.00    +0.000 A 
ATOM     27  C   UNL     1       6.303   1.507  -0.112  0.00  0.00    +0.000 A 
ATOM     28  C   UNL     1       7.640   1.727   0.147  0.00  0.00    +0.000 A 
ATOM     29  C   UNL     1       8.401   0.720   0.680  0.00  0.00    +0.000 A 
ATOM     30  C   UNL     1       7.802  -0.490   0.943  0.00  0.00    +0.000 A 
ATOM     31  C   UNL     1       6.443  -0.703   0.677  0.00  0.00    +0.000 A 
ENDBRANCH  25  26
ENDBRANCH  24  25
ENDBRANCH  22  24
ENDBRANCH   2  21
TORSDOF 8
