REMARK  Name = 
REMARK  7 active torsions:
REMARK  status: ('A' for Active; 'I' for Inactive)
REMARK    1  A    between atoms: C_5  and  S_6
REMARK    2  A    between atoms: S_6  and  C_7
REMARK    3  A    between atoms: C_8  and  N_9
REMARK    4  A    between atoms: N_9  and  C_10
REMARK    5  A    between atoms: N_20  and  C_21
REMARK    6  A    between atoms: C_21  and  C_22
REMARK    7  A    between atoms: C_22  and  C_23
REMARK                            x       y       z     vdW  Elec       q    Type
REMARK                         _______ _______ _______ _____ _____    ______ ____
ROOT
ATOM      1  C   UNL     1      -1.048   0.099   0.782  0.00  0.00    +0.000 C 
ATOM      2  C   UNL     1      -0.345   1.217   1.032  0.00  0.00    +0.000 C 
ATOM      3  C   UNL     1       1.080   0.911   0.994  0.00  0.00    +0.000 C 
ATOM      4  O   UNL     1       1.987   1.767   1.192  0.00  0.00    +0.000 OA
ATOM      5  N   UNL     1       1.188  -0.465   0.705  0.00  0.00    +0.000 N 
ATOM      6  C   UNL     1      -0.126  -0.984   0.570  0.00  0.00    +0.000 C 
ATOM      7  O   UNL     1      -0.443  -2.195   0.307  0.00  0.00    +0.000 OA
ENDROOT
BRANCH   1   8
ATOM      8  S   UNL     1      -2.826  -0.016   0.724  0.00  0.00    +0.000 S 
BRANCH   8  13
ATOM      9  C   UNL     1      -4.334  -5.796  -0.425  0.00  0.00    +0.000 C 
ATOM     10  C   UNL     1      -3.963  -4.376  -0.137  0.00  0.00    +0.000 A 
ATOM     11  C   UNL     1      -3.768  -3.468  -1.157  0.00  0.00    +0.000 A 
ATOM     12  C   UNL     1      -3.426  -2.151  -0.935  0.00  0.00    +0.000 A 
ATOM     13  C   UNL     1      -3.267  -1.703   0.358  0.00  0.00    +0.000 A 
ATOM     14  C   UNL     1      -3.457  -2.595   1.394  0.00  0.00    +0.000 A 
ATOM     15  C   UNL     1      -3.799  -3.910   1.158  0.00  0.00    +0.000 A 
ENDBRANCH   8  13
ENDBRANCH   1   8
BRANCH   2  16
ATOM     16  N   UNL     1      -0.961   2.462   1.284  0.00  0.00    +0.000 NA
BRANCH  16  17
ATOM     17  C   UNL     1      -0.948   3.550   0.402  0.00  0.00    +0.000 A 
ATOM     18  C   UNL     1      -0.304   3.445  -0.805  0.00  0.00    +0.000 A 
ATOM     19  C   UNL     1      -0.276   4.513  -1.704  0.00  0.00    +0.000 A 
ATOM     20  C   UNL     1      -0.902   5.684  -1.373  0.00  0.00    +0.000 A 
ATOM     21  C   UNL     1      -1.558   5.822  -0.170  0.00  0.00    +0.000 A 
ATOM     22  C   UNL     1      -2.220   7.093   0.153  0.00  0.00    +0.000 C 
ATOM     23  C   UNL     1      -1.570   4.740   0.707  0.00  0.00    +0.000 A 
ATOM     24  C   UNL     1      -2.285   4.918   1.997  0.00  0.00    +0.000 C 
ENDBRANCH  16  17
ENDBRANCH   2  16
BRANCH   5  25
ATOM     25  C   UNL     1       2.401  -1.212   0.569  0.00  0.00    +0.000 C 
BRANCH  25  26
ATOM     26  C   UNL     1       2.916  -1.222  -0.864  0.00  0.00    +0.000 C 
BRANCH  26  27
ATOM     27  C   UNL     1       4.165  -2.011  -0.913  0.00  0.00    +0.000 A 
ATOM     28  C   UNL     1       4.197  -3.361  -1.151  0.00  0.00    +0.000 A 
ATOM     29  C   UNL     1       5.401  -4.044  -1.185  0.00  0.00    +0.000 A 
ATOM     30  C   UNL     1       6.575  -3.355  -0.978  0.00  0.00    +0.000 A 
ATOM     31  C   UNL     1       6.562  -2.002  -0.739  0.00  0.00    +0.000 A 
ATOM     32  C   UNL     1       5.354  -1.354  -0.711  0.00  0.00    +0.000 A 
ENDBRANCH  26  27
ENDBRANCH  25  26
ENDBRANCH   5  25
TORSDOF 7
