REMARK  Name = 
REMARK  7 active torsions:
REMARK  status: ('A' for Active; 'I' for Inactive)
REMARK    1  A    between atoms: C_3  and  C_4
REMARK    2  A    between atoms: N_6  and  C_7
REMARK    3  A    between atoms: C_7  and  C_9
REMARK    4  A    between atoms: C_9  and  C_10
REMARK    5  A    between atoms: C_10  and  C_11
REMARK    6  A    between atoms: N_24  and  C_25
REMARK    7  A    between atoms: C_25  and  C_26
REMARK                            x       y       z     vdW  Elec       q    Type
REMARK                         _______ _______ _______ _____ _____    ______ ____
ROOT
ATOM      1  C   UNL     1      -0.472   1.352   2.601  0.00  0.00    +0.000 C 
ATOM      2  C   UNL     1      -0.695   0.136   1.815  0.00  0.00    +0.000 A 
ATOM      3  C   UNL     1       0.284  -0.595   1.182  0.00  0.00    +0.000 A 
ATOM      4  C   UNL     1      -0.370  -1.667   0.558  0.00  0.00    +0.000 A 
ATOM      5  C   UNL     1       0.116  -2.705  -0.211  0.00  0.00    +0.000 A 
ATOM      6  C   UNL     1      -0.738  -3.650  -0.719  0.00  0.00    +0.000 A 
ATOM      7  O   UNL     1      -0.269  -4.720  -1.508  0.00  0.00    +0.000 OA
ATOM      8  C   UNL     1      -2.080  -3.522  -0.436  0.00  0.00    +0.000 A 
ATOM      9  C   UNL     1      -2.552  -2.483   0.331  0.00  0.00    +0.000 A 
ATOM     10  C   UNL     1      -1.698  -1.511   0.858  0.00  0.00    +0.000 A 
ATOM     11  N   UNL     1      -1.907  -0.415   1.623  0.00  0.00    +0.000 N 
ENDROOT
BRANCH   3  12
ATOM     12  C   UNL     1       1.729  -0.347   1.144  0.00  0.00    +0.000 C 
ATOM     13  O   UNL     1       2.205   0.640   1.755  0.00  0.00    +0.000 OA
ATOM     14  N   UNL     1       2.555  -1.238   0.411  0.00  0.00    +0.000 NA
BRANCH  14  15
ATOM     15  C   UNL     1       4.093  -0.907   0.424  0.00  0.00    +0.000 C 
ATOM     16  C   UNL     1       4.534  -2.484   0.629  0.00  0.00    +0.000 C 
BRANCH  15  17
ATOM     17  C   UNL     1       4.224  -1.006  -1.219  0.00  0.00    +0.000 C 
BRANCH  17  18
ATOM     18  C   UNL     1       5.697  -0.710  -1.428  0.00  0.00    +0.000 C 
BRANCH  18  19
ATOM     19  C   UNL     1       6.071   0.616  -0.917  0.00  0.00    +0.000 A 
ATOM     20  C   UNL     1       6.474   0.740   0.379  0.00  0.00    +0.000 A 
ATOM     21  C   UNL     1       6.831   1.959   0.890  0.00  0.00    +0.000 A 
ATOM     22  C   UNL     1       6.788   3.080   0.104  0.00  0.00    +0.000 A 
ATOM     23  C   UNL     1       6.378   2.950  -1.209  0.00  0.00    +0.000 A 
ATOM     24  C   UNL     1       6.024   1.735  -1.715  0.00  0.00    +0.000 A 
ENDBRANCH  18  19
ENDBRANCH  17  18
ENDBRANCH  15  17
ENDBRANCH  14  15
ENDBRANCH   3  12
BRANCH  11  25
ATOM     25  C   UNL     1      -3.202  -0.052   2.065  0.00  0.00    +0.000 C 
BRANCH  25  26
ATOM     26  C   UNL     1      -4.028   0.800   1.275  0.00  0.00    +0.000 A 
ATOM     27  C   UNL     1      -3.976   2.157   1.374  0.00  0.00    +0.000 A 
ATOM     28  C   UNL     1      -4.805   2.946   0.586  0.00  0.00    +0.000 A 
ATOM     29  C   UNL     1      -5.694   2.367  -0.309  0.00  0.00    +0.000 A 
ATOM     30  C   UNL     1      -5.753   0.994  -0.416  0.00  0.00    +0.000 A 
ATOM     31  C   UNL     1      -4.913   0.263   0.384  0.00  0.00    +0.000 A 
ATOM     32  O   UNL     1      -6.713   0.622  -1.374  0.00  0.00    +0.000 OA
ATOM     33  C   UNL     1      -7.505   1.792  -1.618  0.00  0.00    +0.000 C 
ATOM     34  O   UNL     1      -6.633   2.863  -1.216  0.00  0.00    +0.000 OA
ENDBRANCH  25  26
ENDBRANCH  11  25
TORSDOF 7
