REMARK  Name = 
REMARK  7 active torsions:
REMARK  status: ('A' for Active; 'I' for Inactive)
REMARK    1  A    between atoms: C_2  and  O_3
REMARK    2  A    between atoms: O_3  and  C_4
REMARK    3  A    between atoms: C_7  and  C_8
REMARK    4  A    between atoms: C_10  and  C_11
REMARK    5  A    between atoms: N_13  and  C_14
REMARK    6  A    between atoms: C_23  and  O_24
REMARK    7  A    between atoms: C_26  and  O_27
REMARK                            x       y       z     vdW  Elec       q    Type
REMARK                         _______ _______ _______ _____ _____    ______ ____
ROOT
ATOM      1  C   UNL     1       0.943   0.103  -0.016  0.00  0.00    +0.000 A 
ATOM      2  C   UNL     1      -0.171   0.859   0.222  0.00  0.00    +0.000 A 
ATOM      3  C   UNL     1      -1.460   0.344   0.083  0.00  0.00    +0.000 A 
ATOM      4  C   UNL     1      -1.594  -0.963  -0.304  0.00  0.00    +0.000 A 
ATOM      5  C   UNL     1      -0.475  -1.753  -0.553  0.00  0.00    +0.000 A 
ATOM      6  C   UNL     1      -0.671  -3.062  -0.940  0.00  0.00    +0.000 A 
ATOM      7  C   UNL     1       0.448  -3.828  -1.181  0.00  0.00    +0.000 A 
ATOM      8  C   UNL     1       1.713  -3.299  -1.038  0.00  0.00    +0.000 A 
ATOM      9  C   UNL     1       1.910  -1.970  -0.645  0.00  0.00    +0.000 A 
ATOM     10  C   UNL     1       0.792  -1.209  -0.405  0.00  0.00    +0.000 A 
ENDROOT
BRANCH   1  14
ATOM     11  C   UNL     1       4.851   1.775   0.469  0.00  0.00    +0.000 A 
ATOM     12  C   UNL     1       4.553   1.013  -0.634  0.00  0.00    +0.000 A 
ATOM     13  C   UNL     1       3.276   0.469  -0.788  0.00  0.00    +0.000 A 
ATOM     14  C   UNL     1       2.288   0.670   0.137  0.00  0.00    +0.000 A 
ATOM     15  C   UNL     1       2.594   1.438   1.244  0.00  0.00    +0.000 A 
ATOM     16  C   UNL     1       3.867   1.985   1.406  0.00  0.00    +0.000 A 
BRANCH  11  17
ATOM     17  O   UNL     1       6.093   2.344   0.686  0.00  0.00    +0.000 OA
BRANCH  17  19
ATOM     18  C   UNL     1       5.514   4.324   1.843  0.00  0.00    +0.000 C 
ATOM     19  C   UNL     1       6.415   3.120   1.797  0.00  0.00    +0.000 C 
ENDBRANCH  17  19
ENDBRANCH  11  17
ENDBRANCH   1  14
BRANCH   3  20
ATOM     20  C   UNL     1      -2.617   1.194   0.350  0.00  0.00    +0.000 C 
ATOM     21  O   UNL     1      -2.535   2.377   0.702  0.00  0.00    +0.000 OA
ATOM     22  N   UNL     1      -3.907   0.629   0.197  0.00  0.00    +0.000 NA
BRANCH  22  23
ATOM     23  C   UNL     1      -5.106   1.358   0.427  0.00  0.00    +0.000 A 
ATOM     24  C   UNL     1      -5.147   2.669   0.818  0.00  0.00    +0.000 A 
ATOM     25  C   UNL     1      -6.345   3.329   1.029  0.00  0.00    +0.000 A 
ATOM     26  C   UNL     1      -7.535   2.667   0.845  0.00  0.00    +0.000 A 
ATOM     27  C   UNL     1      -7.524   1.347   0.452  0.00  0.00    +0.000 A 
ATOM     28  C   UNL     1      -6.305   0.701   0.245  0.00  0.00    +0.000 A 
ENDBRANCH  22  23
ENDBRANCH   3  20
BRANCH   7  29
ATOM     29  O   UNL     1       0.276  -5.158  -1.576  0.00  0.00    +0.000 OA
ATOM     30  C   UNL     1      -1.017  -5.712  -1.726  0.00  0.00    +0.000 C 
ENDBRANCH   7  29
BRANCH   8  31
ATOM     31  O   UNL     1       2.783  -4.136  -1.300  0.00  0.00    +0.000 OA
ATOM     32  C   UNL     1       4.090  -3.625  -1.163  0.00  0.00    +0.000 C 
ENDBRANCH   8  31
TORSDOF 7
