REMARK  Name = 
REMARK  7 active torsions:
REMARK  status: ('A' for Active; 'I' for Inactive)
REMARK    1  A    between atoms: C_2  and  O_3
REMARK    2  A    between atoms: O_3  and  C_4
REMARK    3  A    between atoms: C_9  and  N_10
REMARK    4  A    between atoms: N_10  and  C_11
REMARK    5  A    between atoms: C_12  and  S_13
REMARK    6  A    between atoms: S_13  and  C_14
REMARK    7  A    between atoms: N_22  and  C_23
REMARK                            x       y       z     vdW  Elec       q    Type
REMARK                         _______ _______ _______ _____ _____    ______ ____
ROOT
ATOM      1  C   UNL     1      -0.621   0.082  -0.561  0.00  0.00    +0.000 C 
ATOM      2  C   UNL     1       0.495   0.782  -0.325  0.00  0.00    +0.000 C 
ATOM      3  C   UNL     1       1.513  -0.194   0.003  0.00  0.00    +0.000 C 
ATOM      4  O   UNL     1       2.705   0.038   0.291  0.00  0.00    +0.000 OA
ATOM      5  N   UNL     1       0.977  -1.537  -0.041  0.00  0.00    +0.000 N 
ATOM      6  C   UNL     1      -0.376  -1.341  -0.400  0.00  0.00    +0.000 C 
ATOM      7  O   UNL     1      -1.234  -2.271  -0.554  0.00  0.00    +0.000 OA
ENDROOT
BRANCH   5   8
ATOM      8  C   UNL     1       1.688  -2.747   0.224  0.00  0.00    +0.000 A 
ATOM      9  C   UNL     1       2.703  -3.134  -0.629  0.00  0.00    +0.000 A 
ATOM     10  C   UNL     1       3.417  -4.293  -0.414  0.00  0.00    +0.000 A 
ATOM     11  C   UNL     1       4.485  -4.654  -1.357  0.00  0.00    +0.000 C 
ATOM     12  C   UNL     1       3.124  -5.092   0.670  0.00  0.00    +0.000 A 
ATOM     13  C   UNL     1       2.096  -4.679   1.516  0.00  0.00    +0.000 A 
ATOM     14  C   UNL     1       1.382  -3.533   1.313  0.00  0.00    +0.000 A 
ATOM     15  C   UNL     1       0.287  -3.072   2.195  0.00  0.00    +0.000 C 
ENDBRANCH   5   8
BRANCH   1  16
ATOM     16  N   UNL     1      -1.863   0.682  -0.922  0.00  0.00    +0.000 NA
BRANCH  16  22
ATOM     17  C   UNL     1      -4.240   1.021  -0.552  0.00  0.00    +0.000 A 
ATOM     18  C   UNL     1      -5.415   0.805   0.134  0.00  0.00    +0.000 A 
ATOM     19  C   UNL     1      -5.439  -0.025   1.235  0.00  0.00    +0.000 A 
ATOM     20  C   UNL     1      -4.239  -0.621   1.609  0.00  0.00    +0.000 A 
ATOM     21  C   UNL     1      -3.062  -0.406   0.923  0.00  0.00    +0.000 A 
ATOM     22  C   UNL     1      -3.057   0.426  -0.174  0.00  0.00    +0.000 A 
BRANCH  17  23
ATOM     23  O   UNL     1      -4.281   1.865  -1.649  0.00  0.00    +0.000 OA
BRANCH  23  25
ATOM     24  C   UNL     1      -6.059   3.396  -1.044  0.00  0.00    +0.000 C 
ATOM     25  C   UNL     1      -5.451   2.496  -2.079  0.00  0.00    +0.000 C 
ENDBRANCH  23  25
ENDBRANCH  17  23
ENDBRANCH  16  22
ENDBRANCH   1  16
BRANCH   2  26
ATOM     26  S   UNL     1       0.521   2.545  -0.444  0.00  0.00    +0.000 S 
BRANCH  26  27
ATOM     27  C   UNL     1       2.103   3.239  -0.119  0.00  0.00    +0.000 A 
ATOM     28  C   UNL     1       2.230   4.641  -0.182  0.00  0.00    +0.000 A 
ATOM     29  C   UNL     1       3.400   5.299   0.047  0.00  0.00    +0.000 A 
ATOM     30  C   UNL     1       4.526   4.541   0.360  0.00  0.00    +0.000 A 
ATOM     31  C   UNL     1       4.436   3.164   0.431  0.00  0.00    +0.000 A 
ATOM     32  C   UNL     1       3.247   2.575   0.193  0.00  0.00    +0.000 A 
ENDBRANCH  26  27
ENDBRANCH   2  26
TORSDOF 7
