REMARK  Name = 
REMARK  7 active torsions:
REMARK  status: ('A' for Active; 'I' for Inactive)
REMARK    1  A    between atoms: O_2  and  C_3
REMARK    2  A    between atoms: C_6  and  N_7
REMARK    3  A    between atoms: N_7  and  C_8
REMARK    4  A    between atoms: C_9  and  S_10
REMARK    5  A    between atoms: S_10  and  C_11
REMARK    6  A    between atoms: N_20  and  C_21
REMARK    7  A    between atoms: C_24  and  C_25
REMARK                            x       y       z     vdW  Elec       q    Type
REMARK                         _______ _______ _______ _____ _____    ______ ____
ROOT
ATOM      1  C   UNL     1      -0.498   0.692  -1.617  0.00  0.00    +0.000 C 
ATOM      2  C   UNL     1      -0.783  -0.451  -0.970  0.00  0.00    +0.000 C 
ATOM      3  C   UNL     1       0.391  -0.832  -0.194  0.00  0.00    +0.000 C 
ATOM      4  O   UNL     1       0.483  -1.849   0.534  0.00  0.00    +0.000 OA
ATOM      5  N   UNL     1       1.428   0.124  -0.384  0.00  0.00    +0.000 N 
ATOM      6  C   UNL     1       0.866   1.084  -1.281  0.00  0.00    +0.000 C 
ATOM      7  O   UNL     1       1.480   2.100  -1.698  0.00  0.00    +0.000 OA
ENDROOT
BRANCH   5   8
ATOM      8  C   UNL     1       2.729   0.132   0.183  0.00  0.00    +0.000 A 
ATOM      9  C   UNL     1       3.619  -0.927   0.061  0.00  0.00    +0.000 A 
ATOM     10  C   UNL     1       4.873  -0.869   0.630  0.00  0.00    +0.000 A 
ATOM     11  C   UNL     1       5.299   0.223   1.336  0.00  0.00    +0.000 A 
ATOM     12  C   UNL     1       4.427   1.281   1.464  0.00  0.00    +0.000 A 
ATOM     13  C   UNL     1       3.168   1.231   0.897  0.00  0.00    +0.000 A 
BRANCH  11  14
ATOM     14  C   UNL     1       6.646   0.319   1.961  0.00  0.00    +0.000 C 
ATOM     15  C   UNL     1       7.538  -0.819   1.488  0.00  0.00    +0.000 C 
ATOM     16  C   UNL     1       7.261   1.643   1.538  0.00  0.00    +0.000 C 
ENDBRANCH  11  14
ENDBRANCH   5   8
BRANCH   1  17
ATOM     17  N   UNL     1      -1.415   1.355  -2.472  0.00  0.00    +0.000 NA
BRANCH  17  21
ATOM     18  C   UNL     1      -4.408   3.790  -0.762  0.00  0.00    +0.000 A 
ATOM     19  C   UNL     1      -4.317   3.659  -2.131  0.00  0.00    +0.000 A 
ATOM     20  C   UNL     1      -3.332   2.858  -2.701  0.00  0.00    +0.000 A 
ATOM     21  C   UNL     1      -2.423   2.177  -1.893  0.00  0.00    +0.000 A 
ATOM     22  C   UNL     1      -2.552   2.337  -0.530  0.00  0.00    +0.000 A 
ATOM     23  C   UNL     1      -3.523   3.128   0.058  0.00  0.00    +0.000 A 
BRANCH  18  25
ATOM     24  C   UNL     1      -5.468   4.713   1.230  0.00  0.00    +0.000 C 
ATOM     25  O   UNL     1      -5.379   4.581  -0.173  0.00  0.00    +0.000 OA
ENDBRANCH  18  25
ENDBRANCH  17  21
ENDBRANCH   1  17
BRANCH   2  26
ATOM     26  S   UNL     1      -2.311  -1.361  -1.030  0.00  0.00    +0.000 S 
BRANCH  26  27
ATOM     27  C   UNL     1      -2.168  -2.796  -0.006  0.00  0.00    +0.000 A 
ATOM     28  C   UNL     1      -1.698  -3.950  -0.597  0.00  0.00    +0.000 A 
ATOM     29  C   UNL     1      -1.537  -5.132   0.081  0.00  0.00    +0.000 A 
ATOM     30  C   UNL     1      -1.864  -5.170   1.430  0.00  0.00    +0.000 A 
ATOM     31  C   UNL     1      -1.705  -6.441   2.210  0.00  0.00    +0.000 C 
ATOM     32  C   UNL     1      -2.334  -4.007   2.012  0.00  0.00    +0.000 A 
ATOM     33  C   UNL     1      -2.494  -2.824   1.325  0.00  0.00    +0.000 A 
ENDBRANCH  26  27
ENDBRANCH   2  26
TORSDOF 7
