REMARK  Name = 
REMARK  5 active torsions:
REMARK  status: ('A' for Active; 'I' for Inactive)
REMARK    1  A    between atoms: O_2  and  C_3
REMARK    2  A    between atoms: N_9  and  C_10
REMARK    3  A    between atoms: C_14  and  N_15
REMARK    4  A    between atoms: N_15  and  C_16
REMARK    5  A    between atoms: C_16  and  C_17
REMARK                            x       y       z     vdW  Elec       q    Type
REMARK                         _______ _______ _______ _____ _____    ______ ____
ROOT
ATOM      1  C   UNL     1      -0.040  -0.444  -2.989  0.00  0.00    +0.000 C 
ATOM      2  C   UNL     1      -0.418   1.106  -2.651  0.00  0.00    +0.000 C 
ATOM      3  C   UNL     1       0.284   1.522  -1.379  0.00  0.00    +0.000 C 
ATOM      4  C   UNL     1      -0.496   0.950  -0.211  0.00  0.00    +0.000 C 
ATOM      5  C   UNL     1      -1.441  -0.227  -1.061  0.00  0.00    +0.000 C 
ATOM      6  C   UNL     1      -0.101  -1.027  -1.495  0.00  0.00    +0.000 C 
ENDROOT
BRANCH   1  13
ATOM      7  C   UNL     1       5.780   0.700   1.358  0.00  0.00    +0.000 A 
ATOM      8  C   UNL     1       4.616   0.332   1.943  0.00  0.00    +0.000 A 
ATOM      9  C   UNL     1       3.452   0.026   1.214  0.00  0.00    +0.000 A 
ATOM     10  C   UNL     1       3.523   0.116  -0.179  0.00  0.00    +0.000 A 
ATOM     11  N   UNL     1       2.451  -0.153  -0.966  0.00  0.00    +0.000 NA
ATOM     12  C   UNL     1       2.461  -0.080  -2.299  0.00  0.00    +0.000 A 
ATOM     13  N   UNL     1       1.439  -0.260  -3.158  0.00  0.00    +0.000 NA
ATOM     14  C   UNL     1       3.686   0.302  -2.846  0.00  0.00    +0.000 A 
ATOM     15  C   UNL     1       4.790   0.582  -2.139  0.00  0.00    +0.000 A 
ATOM     16  C   UNL     1       6.059   0.980  -2.772  0.00  0.00    +0.000 C 
ATOM     17  C   UNL     1       4.688   0.482  -0.764  0.00  0.00    +0.000 A 
ATOM     18  C   UNL     1       5.834   0.778  -0.046  0.00  0.00    +0.000 A 
BRANCH   7  20
ATOM     19  C   UNL     1       6.957   0.943   3.499  0.00  0.00    +0.000 C 
ATOM     20  O   UNL     1       6.952   1.000   2.089  0.00  0.00    +0.000 OA
ENDBRANCH   7  20
ENDBRANCH   1  13
BRANCH   5  21
ATOM     21  N   UNL     1      -1.779  -0.981   0.250  0.00  0.00    +0.000 NA
BRANCH  21  22
ATOM     22  C   UNL     1      -2.448   0.092   1.005  0.00  0.00    +0.000 C 
BRANCH  22  23
ATOM     23  C   UNL     1      -3.897  -0.169   1.195  0.00  0.00    +0.000 A 
ATOM     24  C   UNL     1      -4.745   0.631   1.941  0.00  0.00    +0.000 A 
ATOM     25  C   UNL     1      -6.045   0.110   1.886  0.00  0.00    +0.000 A 
ATOM     26  C   UNL     1      -7.268   0.476   2.405  0.00  0.00    +0.000 A 
ATOM     27  C   UNL     1      -8.412  -0.269   2.153  0.00  0.00    +0.000 A 
ATOM     28  C   UNL     1      -8.262  -1.390   1.361  0.00  0.00    +0.000 A 
ATOM     29  C   UNL     1      -7.049  -1.776   0.830  0.00  0.00    +0.000 A 
ATOM     30  C   UNL     1      -5.919  -1.003   1.101  0.00  0.00    +0.000 A 
ATOM     31  O   UNL     1      -4.652  -1.125   0.724  0.00  0.00    +0.000 OA
ENDBRANCH  22  23
ENDBRANCH  21  22
ENDBRANCH   5  21
TORSDOF 5
