REMARK  Name = 
REMARK  7 active torsions:
REMARK  status: ('A' for Active; 'I' for Inactive)
REMARK    1  A    between atoms: C_7  and  N_8
REMARK    2  A    between atoms: C_9  and  C_11
REMARK    3  A    between atoms: C_11  and  S_12
REMARK    4  A    between atoms: C_11  and  C_26
REMARK    5  A    between atoms: S_12  and  C_13
REMARK    6  A    between atoms: N_18  and  C_19
REMARK    7  A    between atoms: C_19  and  C_20
REMARK                            x       y       z     vdW  Elec       q    Type
REMARK                         _______ _______ _______ _____ _____    ______ ____
ROOT
ATOM      1  C   UNL     1       0.270  -1.247   0.114  0.00  0.00    +0.000 C 
ENDROOT
BRANCH   1   2
ATOM      2  C   UNL     1       0.824  -2.084  -1.064  0.00  0.00    +0.000 A 
ATOM      3  C   UNL     1       1.563  -1.597  -2.063  0.00  0.00    +0.000 A 
ATOM      4  C   UNL     1       2.011  -2.429  -3.070  0.00  0.00    +0.000 A 
ATOM      5  C   UNL     1       1.670  -3.765  -3.007  0.00  0.00    +0.000 A 
ATOM      6  C   UNL     1       0.912  -4.294  -1.993  0.00  0.00    +0.000 A 
ATOM      7  C   UNL     1       0.491  -3.410  -1.009  0.00  0.00    +0.000 A 
ENDBRANCH   1   2
BRANCH   1   9
ATOM      8  N   UNL     1       2.727  -0.574   0.477  0.00  0.00    +0.000 NA
ATOM      9  C   UNL     1       1.385  -0.193   0.214  0.00  0.00    +0.000 C 
ATOM     10  O   UNL     1       1.190   1.021   0.076  0.00  0.00    +0.000 OA
BRANCH   8  17
ATOM     11  C   UNL     1       4.678   4.015   0.432  0.00  0.00    +0.000 C 
ATOM     12  C   UNL     1       4.780   2.538   0.570  0.00  0.00    +0.000 A 
ATOM     13  C   UNL     1       6.047   2.033   0.826  0.00  0.00    +0.000 A 
ATOM     14  C   UNL     1       6.164   0.671   0.957  0.00  0.00    +0.000 A 
ATOM     15  C   UNL     1       5.067  -0.167   0.839  0.00  0.00    +0.000 A 
ATOM     16  C   UNL     1       5.240  -1.630   0.988  0.00  0.00    +0.000 C 
ATOM     17  C   UNL     1       3.808   0.333   0.584  0.00  0.00    +0.000 A 
ATOM     18  C   UNL     1       3.689   1.701   0.453  0.00  0.00    +0.000 A 
ENDBRANCH   8  17
ENDBRANCH   1   9
BRANCH   1  19
ATOM     19  S   UNL     1      -1.024  -0.265  -0.879  0.00  0.00    +0.000 S 
BRANCH  19  20
ATOM     20  C   UNL     1      -1.560   1.007   0.250  0.00  0.00    +0.000 A 
ATOM     21  N   UNL     1      -1.105   2.240   0.463  0.00  0.00    +0.000 NA
ATOM     22  N   UNL     1      -1.788   2.872   1.403  0.00  0.00    +0.000 NA
ATOM     23  C   UNL     1      -2.720   1.984   1.798  0.00  0.00    +0.000 A 
ATOM     24  C   UNL     1      -3.762   2.218   2.862  0.00  0.00    +0.000 C 
ATOM     25  N   UNL     1      -2.600   0.837   1.107  0.00  0.00    +0.000 N 
BRANCH  25  26
ATOM     26  C   UNL     1      -3.406  -0.351   1.234  0.00  0.00    +0.000 C 
BRANCH  26  27
ATOM     27  C   UNL     1      -4.588  -0.324   0.330  0.00  0.00    +0.000 A 
ATOM     28  C   UNL     1      -5.758   0.226   0.850  0.00  0.00    +0.000 A 
ATOM     29  C   UNL     1      -6.918   0.311   0.119  0.00  0.00    +0.000 A 
ATOM     30  C   UNL     1      -6.929  -0.169  -1.197  0.00  0.00    +0.000 A 
ATOM     31  C   UNL     1      -5.761  -0.715  -1.712  0.00  0.00    +0.000 A 
ATOM     32  C   UNL     1      -4.598  -0.792  -0.952  0.00  0.00    +0.000 A 
ENDBRANCH  26  27
ENDBRANCH  25  26
ENDBRANCH  19  20
ENDBRANCH   1  19
TORSDOF 7
