REMARK  Name = 
REMARK  8 active torsions:
REMARK  status: ('A' for Active; 'I' for Inactive)
REMARK    1  A    between atoms: C_2  and  C_3
REMARK    2  A    between atoms: C_3  and  C_4
REMARK    3  A    between atoms: C_4  and  C_5
REMARK    4  A    between atoms: C_5  and  N_6
REMARK    5  A    between atoms: C_7  and  C_9
REMARK    6  A    between atoms: N_12  and  C_13
REMARK    7  A    between atoms: C_13  and  C_14
REMARK    8  A    between atoms: C_14  and  C_15
REMARK                            x       y       z     vdW  Elec       q    Type
REMARK                         _______ _______ _______ _____ _____    ______ ____
ROOT
ATOM      1  C   UNL     1       0.990  -0.770   0.085  0.00  0.00    +0.000 A 
ATOM      2  C   UNL     1      -0.175  -1.399  -0.289  0.00  0.00    +0.000 A 
ATOM      3  N   UNL     1      -0.344  -2.813  -0.475  0.00  0.00    +0.000 NA
ATOM      4  N   UNL     1      -1.122  -0.460  -0.449  0.00  0.00    +0.000 N 
ATOM      5  C   UNL     1      -0.578   0.760  -0.182  0.00  0.00    +0.000 A 
ATOM      6  N   UNL     1      -1.071   2.000  -0.191  0.00  0.00    +0.000 NA
ATOM      7  C   UNL     1      -0.300   3.081   0.123  0.00  0.00    +0.000 A 
ATOM      8  C   UNL     1      -0.859   4.340   0.099  0.00  0.00    +0.000 A 
ATOM      9  C   UNL     1      -0.084   5.431   0.415  0.00  0.00    +0.000 A 
ATOM     10  C   UNL     1       1.228   5.247   0.748  0.00  0.00    +0.000 A 
ATOM     11  C   UNL     1       1.773   3.987   0.768  0.00  0.00    +0.000 A 
ATOM     12  C   UNL     1       1.022   2.876   0.456  0.00  0.00    +0.000 A 
ATOM     13  N   UNL     1       1.542   1.643   0.473  0.00  0.00    +0.000 NA
ATOM     14  C   UNL     1       0.752   0.594   0.157  0.00  0.00    +0.000 A 
ENDROOT
BRANCH   1  16
ATOM     15  N   UNL     1       3.423  -0.673   0.746  0.00  0.00    +0.000 NA
ATOM     16  C   UNL     1       2.252  -1.399   0.360  0.00  0.00    +0.000 C 
ATOM     17  O   UNL     1       2.356  -2.642   0.264  0.00  0.00    +0.000 OA
BRANCH  15  18
ATOM     18  C   UNL     1       4.653  -1.395   1.003  0.00  0.00    +0.000 C 
BRANCH  18  19
ATOM     19  C   UNL     1       5.055  -2.138  -0.256  0.00  0.00    +0.000 C 
BRANCH  19  20
ATOM     20  C   UNL     1       6.317  -2.916  -0.089  0.00  0.00    +0.000 C 
BRANCH  20  22
ATOM     21  C   UNL     1       7.694  -1.007  -0.809  0.00  0.00    +0.000 C 
ATOM     22  C   UNL     1       7.469  -2.032   0.271  0.00  0.00    +0.000 C 
ENDBRANCH  20  22
ENDBRANCH  19  20
ENDBRANCH  18  19
ENDBRANCH  15  18
ENDBRANCH   1  16
BRANCH   4  23
ATOM     23  C   UNL     1      -2.506  -0.712  -0.845  0.00  0.00    +0.000 C 
BRANCH  23  24
ATOM     24  C   UNL     1      -3.287  -0.925   0.450  0.00  0.00    +0.000 C 
BRANCH  24  25
ATOM     25  C   UNL     1      -4.709  -1.191   0.209  0.00  0.00    +0.000 A 
ATOM     26  C   UNL     1      -5.149  -2.480   0.041  0.00  0.00    +0.000 A 
ATOM     27  C   UNL     1      -6.480  -2.746  -0.186  0.00  0.00    +0.000 A 
ATOM     28  C   UNL     1      -7.368  -1.700  -0.242  0.00  0.00    +0.000 A 
ATOM     29  C   UNL     1      -6.905  -0.423  -0.071  0.00  0.00    +0.000 A 
ATOM     30  C   UNL     1      -5.588  -0.139   0.154  0.00  0.00    +0.000 A 
ENDBRANCH  24  25
ENDBRANCH  23  24
ENDBRANCH   4  23
TORSDOF 8
