REMARK  Name = 
REMARK  8 active torsions:
REMARK  status: ('A' for Active; 'I' for Inactive)
REMARK    1  A    between atoms: C_2  and  O_3
REMARK    2  A    between atoms: O_3  and  C_4
REMARK    3  A    between atoms: C_9  and  C_10
REMARK    4  A    between atoms: C_10  and  O_12
REMARK    5  A    between atoms: O_12  and  C_13
REMARK    6  A    between atoms: C_13  and  C_14
REMARK    7  A    between atoms: C_13  and  C_25
REMARK    8  A    between atoms: N_16  and  C_17
REMARK                            x       y       z     vdW  Elec       q    Type
REMARK                         _______ _______ _______ _____ _____    ______ ____
ROOT
ATOM      1  C   UNL     1       0.047   0.787  -1.381  0.00  0.00    +0.000 C 
ENDROOT
BRANCH   1   2
ATOM      2  C   UNL     1       0.074   2.250  -1.046  0.00  0.00    +0.000 A 
ATOM      3  C   UNL     1      -0.913   3.040  -1.569  0.00  0.00    +0.000 A 
ATOM      4  C   UNL     1      -1.018   4.417  -1.399  0.00  0.00    +0.000 A 
ATOM      5  C   UNL     1      -0.051   5.005  -0.651  0.00  0.00    +0.000 A 
ATOM      6  C   UNL     1       0.954   4.212  -0.118  0.00  0.00    +0.000 A 
ATOM      7  C   UNL     1       1.051   2.868  -0.281  0.00  0.00    +0.000 A 
ENDBRANCH   1   2
BRANCH   1   8
ATOM      8  C   UNL     1      -1.280   0.262  -0.852  0.00  0.00    +0.000 C 
ATOM      9  O   UNL     1      -1.162  -0.818  -0.068  0.00  0.00    +0.000 OA
ATOM     10  N   UNL     1      -2.597   0.670  -1.074  0.00  0.00    +0.000 NA
BRANCH  10  11
ATOM     11  C   UNL     1      -3.667  -0.241  -0.469  0.00  0.00    +0.000 A 
ATOM     12  C   UNL     1      -3.255  -1.411   0.123  0.00  0.00    +0.000 A 
ATOM     13  C   UNL     1      -4.218  -2.351   0.549  0.00  0.00    +0.000 A 
ATOM     14  C   UNL     1      -3.743  -3.643   1.178  0.00  0.00    +0.000 C 
ATOM     15  C   UNL     1      -5.532  -2.056   0.347  0.00  0.00    +0.000 A 
ATOM     16  C   UNL     1      -5.943  -0.884  -0.251  0.00  0.00    +0.000 A 
ATOM     17  C   UNL     1      -7.393  -0.632  -0.442  0.00  0.00    +0.000 C 
ATOM     18  C   UNL     1      -4.970   0.047  -0.663  0.00  0.00    +0.000 A 
ENDBRANCH  10  11
ENDBRANCH   1   8
BRANCH   1  19
ATOM     19  O   UNL     1       1.057   0.202  -0.342  0.00  0.00    +0.000 OA
BRANCH  19  20
ATOM     20  C   UNL     1       2.126  -0.441  -0.895  0.00  0.00    +0.000 C 
ATOM     21  O   UNL     1       1.955  -0.442  -2.194  0.00  0.00    +0.000 OA
BRANCH  20  27
ATOM     22  C   UNL     1       3.807  -0.950   0.886  0.00  0.00    +0.000 A 
ATOM     23  N   UNL     1       4.844  -1.760   1.244  0.00  0.00    +0.000 NA
ATOM     24  C   UNL     1       5.350  -2.700   0.412  0.00  0.00    +0.000 A 
ATOM     25  C   UNL     1       4.849  -2.898  -0.843  0.00  0.00    +0.000 A 
ATOM     26  C   UNL     1       3.777  -2.063  -1.247  0.00  0.00    +0.000 A 
ATOM     27  C   UNL     1       3.265  -1.086  -0.341  0.00  0.00    +0.000 A 
BRANCH  22  28
ATOM     28  O   UNL     1       3.279   0.023   1.754  0.00  0.00    +0.000 OA
BRANCH  28  30
ATOM     29  C   UNL     1       5.387   0.435   2.796  0.00  0.00    +0.000 C 
ATOM     30  C   UNL     1       3.922   0.157   3.007  0.00  0.00    +0.000 C 
ENDBRANCH  28  30
ENDBRANCH  22  28
ENDBRANCH  20  27
ENDBRANCH  19  20
ENDBRANCH   1  19
TORSDOF 8
