REMARK  Name = 
REMARK  6 active torsions:
REMARK  status: ('A' for Active; 'I' for Inactive)
REMARK    1  A    between atoms: C_2  and  O_3
REMARK    2  A    between atoms: O_3  and  C_4
REMARK    3  A    between atoms: C_7  and  C_8
REMARK    4  A    between atoms: C_10  and  C_11
REMARK    5  A    between atoms: N_13  and  C_14
REMARK    6  A    between atoms: C_20  and  C_21
REMARK                            x       y       z     vdW  Elec       q    Type
REMARK                         _______ _______ _______ _____ _____    ______ ____
ROOT
ATOM      1  C   UNL     1       2.168  -0.418   0.108  0.00  0.00    +0.000 A 
ATOM      2  C   UNL     1       0.965   0.175  -0.297  0.00  0.00    +0.000 A 
ATOM      3  C   UNL     1      -0.228  -0.485  -0.105  0.00  0.00    +0.000 A 
ATOM      4  C   UNL     1      -0.195  -1.725   0.489  0.00  0.00    +0.000 A 
ATOM      5  C   UNL     1      -1.375  -2.390   0.685  0.00  0.00    +0.000 A 
ATOM      6  C   UNL     1      -1.344  -3.632   1.280  0.00  0.00    +0.000 A 
ATOM      7  C   UNL     1      -0.173  -4.231   1.684  0.00  0.00    +0.000 A 
ATOM      8  C   UNL     1       1.020  -3.575   1.493  0.00  0.00    +0.000 A 
ATOM      9  C   UNL     1       0.989  -2.330   0.898  0.00  0.00    +0.000 A 
ATOM     10  N   UNL     1       2.137  -1.629   0.681  0.00  0.00    +0.000 NA
ENDROOT
BRANCH   1  14
ATOM     11  C   UNL     1       5.933   1.457  -0.401  0.00  0.00    +0.000 A 
ATOM     12  C   UNL     1       5.841   0.211   0.183  0.00  0.00    +0.000 A 
ATOM     13  C   UNL     1       4.592  -0.362   0.329  0.00  0.00    +0.000 A 
ATOM     14  C   UNL     1       3.438   0.260  -0.085  0.00  0.00    +0.000 A 
ATOM     15  C   UNL     1       3.533   1.505  -0.668  0.00  0.00    +0.000 A 
ATOM     16  C   UNL     1       4.784   2.104  -0.826  0.00  0.00    +0.000 A 
BRANCH  11  17
ATOM     17  O   UNL     1       7.194   2.028  -0.544  0.00  0.00    +0.000 OA
BRANCH  17  19
ATOM     18  C   UNL     1       6.854   3.252  -2.551  0.00  0.00    +0.000 C 
ATOM     19  C   UNL     1       7.386   3.296  -1.129  0.00  0.00    +0.000 C 
ENDBRANCH  17  19
ENDBRANCH  11  17
ENDBRANCH   1  14
BRANCH   3  20
ATOM     20  C   UNL     1      -1.508   0.084  -0.506  0.00  0.00    +0.000 C 
ATOM     21  O   UNL     1      -1.493   1.220  -1.044  0.00  0.00    +0.000 OA
ATOM     22  N   UNL     1      -2.734  -0.569  -0.321  0.00  0.00    +0.000 NA
BRANCH  22  23
ATOM     23  C   UNL     1      -3.999  -0.042  -0.697  0.00  0.00    +0.000 A 
ATOM     24  C   UNL     1      -4.404  -0.282  -2.003  0.00  0.00    +0.000 A 
ATOM     25  C   UNL     1      -3.524  -1.044  -2.914  0.00  0.00    +0.000 C 
ATOM     26  C   UNL     1      -5.622   0.196  -2.426  0.00  0.00    +0.000 A 
ATOM     27  C   UNL     1      -6.430   0.903  -1.565  0.00  0.00    +0.000 A 
ATOM     28  C   UNL     1      -6.044   1.150  -0.266  0.00  0.00    +0.000 A 
ATOM     29  C   UNL     1      -4.807   0.666   0.168  0.00  0.00    +0.000 A 
BRANCH  29  30
ATOM     30  C   UNL     1      -4.386   0.913   1.560  0.00  0.00    +0.000 C 
ATOM     31  C   UNL     1      -5.467   1.633   2.350  0.00  0.00    +0.000 C 
ATOM     32  C   UNL     1      -3.101   1.661   1.704  0.00  0.00    +0.000 C 
ENDBRANCH  29  30
ENDBRANCH  22  23
ENDBRANCH   3  20
TORSDOF 6
