REMARK  Name = 
REMARK  9 active torsions:
REMARK  status: ('A' for Active; 'I' for Inactive)
REMARK    1  A    between atoms: C_2  and  C_3
REMARK    2  A    between atoms: C_3  and  O_4
REMARK    3  A    between atoms: O_4  and  C_5
REMARK    4  A    between atoms: C_5  and  C_7
REMARK    5  A    between atoms: C_7  and  O_8
REMARK    6  A    between atoms: O_8  and  C_9
REMARK    7  A    between atoms: N_18  and  C_19
REMARK    8  A    between atoms: C_24  and  C_25
REMARK    9  A    between atoms: C_25  and  C_26
REMARK                            x       y       z     vdW  Elec       q    Type
REMARK                         _______ _______ _______ _____ _____    ______ ____
ROOT
ATOM      1  O   UNL     1       0.789  -0.940  -1.186  0.00  0.00    +0.000 OA
ATOM      2  C   UNL     1       1.539   0.059  -1.324  0.00  0.00    +0.000 C 
ATOM      3  N   UNL     1       2.937  -0.155  -1.212  0.00  0.00    +0.000 NA
ENDROOT
BRANCH   3   4
ATOM      4  C   UNL     1       3.494  -1.443  -0.951  0.00  0.00    +0.000 A 
ATOM      5  C   UNL     1       2.626  -2.496  -0.798  0.00  0.00    +0.000 A 
ATOM      6  C   UNL     1       3.100  -3.751  -0.546  0.00  0.00    +0.000 A 
ATOM      7  C   UNL     1       4.453  -3.953  -0.448  0.00  0.00    +0.000 A 
ATOM      8  C   UNL     1       5.312  -2.880  -0.605  0.00  0.00    +0.000 A 
ATOM      9  C   UNL     1       4.862  -1.613  -0.858  0.00  0.00    +0.000 A 
BRANCH   9  10
ATOM     10  C   UNL     1       5.822  -0.510  -1.015  0.00  0.00    +0.000 C 
BRANCH  10  11
ATOM     11  C   UNL     1       5.896   0.359   0.179  0.00  0.00    +0.000 A 
ATOM     12  C   UNL     1       6.793   0.147   1.215  0.00  0.00    +0.000 A 
ATOM     13  C   UNL     1       6.856   0.964   2.324  0.00  0.00    +0.000 A 
ATOM     14  C   UNL     1       6.014   2.027   2.434  0.00  0.00    +0.000 A 
ATOM     15  C   UNL     1       5.107   2.265   1.418  0.00  0.00    +0.000 A 
ATOM     16  C   UNL     1       5.055   1.439   0.310  0.00  0.00    +0.000 A 
ENDBRANCH  10  11
ENDBRANCH   9  10
ENDBRANCH   3   4
BRANCH   2  17
ATOM     17  C   UNL     1       0.975   1.419  -1.598  0.00  0.00    +0.000 C 
BRANCH  17  18
ATOM     18  O   UNL     1      -0.429   1.382  -1.677  0.00  0.00    +0.000 OA
BRANCH  18  19
ATOM     19  C   UNL     1      -1.261   0.969  -0.647  0.00  0.00    +0.000 C 
ATOM     20  O   UNL     1      -0.753   0.598   0.439  0.00  0.00    +0.000 OA
BRANCH  19  21
ATOM     21  C   UNL     1      -2.740   0.967  -0.823  0.00  0.00    +0.000 C 
BRANCH  21  22
ATOM     22  O   UNL     1      -3.344   0.512   0.365  0.00  0.00    +0.000 OA
BRANCH  22  23
ATOM     23  C   UNL     1      -4.736   0.426   0.444  0.00  0.00    +0.000 A 
ATOM     24  C   UNL     1      -5.368  -0.014   1.588  0.00  0.00    +0.000 A 
ATOM     25  C   UNL     1      -6.749  -0.099   1.667  0.00  0.00    +0.000 A 
ATOM     26  C   UNL     1      -7.551   0.253   0.605  0.00  0.00    +0.000 A 
ATOM     27  C   UNL     1      -6.935   0.692  -0.540  0.00  0.00    +0.000 A 
ATOM     28  C   UNL     1      -5.539   0.777  -0.618  0.00  0.00    +0.000 A 
ATOM     29  C   UNL     1      -7.987   0.998  -1.531  0.00  0.00    +0.000 C 
ATOM     30  C   UNL     1      -9.188   1.331  -0.685  0.00  0.00    +0.000 C 
ATOM     31  C   UNL     1      -9.048   0.270   0.416  0.00  0.00    +0.000 C 
ENDBRANCH  22  23
ENDBRANCH  21  22
ENDBRANCH  19  21
ENDBRANCH  18  19
ENDBRANCH  17  18
ENDBRANCH   2  17
TORSDOF 9
