REMARK  Name = 
REMARK  10 active torsions:
REMARK  status: ('A' for Active; 'I' for Inactive)
REMARK    1  A    between atoms: C_2  and  C_3
REMARK    2  A    between atoms: C_3  and  N_4
REMARK    3  A    between atoms: N_4  and  C_5
REMARK    4  A    between atoms: N_4  and  C_8
REMARK    5  A    between atoms: C_5  and  C_6
REMARK    6  A    between atoms: C_8  and  C_9
REMARK    7  A    between atoms: C_9  and  C_11
REMARK    8  A    between atoms: C_11  and  N_12
REMARK    9  A    between atoms: C_13  and  C_14
REMARK   10  A    between atoms: C_20  and  C_21
REMARK                            x       y       z     vdW  Elec       q    Type
REMARK                         _______ _______ _______ _____ _____    ______ ____
ROOT
ATOM      1  N   UNL     1      -0.110  -0.789  -0.243  0.00  0.00    +0.000 N 
ATOM      2  C   UNL     1      -0.898   0.058   0.491  0.00  0.00    +0.000 A 
ATOM      3  C   UNL     1      -2.030   0.213  -0.266  0.00  0.00    +0.000 A 
ATOM      4  C   UNL     1      -1.954  -0.514  -1.435  0.00  0.00    +0.000 A 
ATOM      5  C   UNL     1      -2.808  -0.709  -2.503  0.00  0.00    +0.000 A 
ATOM      6  C   UNL     1      -2.504  -1.523  -3.569  0.00  0.00    +0.000 A 
ATOM      7  C   UNL     1      -3.426  -1.728  -4.718  0.00  0.00    +0.000 C 
ATOM      8  C   UNL     1      -1.276  -2.148  -3.516  0.00  0.00    +0.000 A 
ATOM      9  C   UNL     1      -0.413  -1.960  -2.453  0.00  0.00    +0.000 A 
ATOM     10  C   UNL     1       0.853  -2.720  -2.471  0.00  0.00    +0.000 C 
ATOM     11  C   UNL     1      -0.714  -1.145  -1.388  0.00  0.00    +0.000 A 
ENDROOT
BRANCH   2  12
ATOM     12  C   UNL     1      -0.559   0.640   1.791  0.00  0.00    +0.000 A 
ATOM     13  C   UNL     1      -0.432   1.994   1.998  0.00  0.00    +0.000 A 
ATOM     14  C   UNL     1      -0.107   2.528   3.242  0.00  0.00    +0.000 A 
ATOM     15  C   UNL     1       0.101   1.710   4.329  0.00  0.00    +0.000 A 
ATOM     16  C   UNL     1      -0.024   0.361   4.133  0.00  0.00    +0.000 A 
ATOM     17  C   UNL     1      -0.346  -0.170   2.898  0.00  0.00    +0.000 A 
ENDBRANCH   2  12
BRANCH   3  18
ATOM     18  C   UNL     1      -3.165   1.041   0.120  0.00  0.00    +0.000 A 
ATOM     19  C   UNL     1      -4.368   0.454   0.388  0.00  0.00    +0.000 A 
ATOM     20  C   UNL     1      -5.459   1.159   0.747  0.00  0.00    +0.000 A 
ATOM     21  C   UNL     1      -5.355   2.533   0.848  0.00  0.00    +0.000 A 
ATOM     22  C   UNL     1      -4.155   3.152   0.583  0.00  0.00    +0.000 A 
ATOM     23  C   UNL     1      -3.071   2.396   0.221  0.00  0.00    +0.000 A 
ENDBRANCH   3  18
BRANCH   1  24
ATOM     24  C   UNL     1       1.176  -1.232   0.233  0.00  0.00    +0.000 C 
BRANCH  24  25
ATOM     25  C   UNL     1       2.229   0.012  -0.073  0.00  0.00    +0.000 C 
ATOM     26  O   UNL     1       2.583  -0.424  -1.474  0.00  0.00    +0.000 OA
BRANCH  25  27
ATOM     27  C   UNL     1       3.517  -0.852   0.594  0.00  0.00    +0.000 C 
BRANCH  27  28
ATOM     28  N   UNL     1       4.659  -0.293  -0.019  0.00  0.00    +0.000 NA
BRANCH  28  29
ATOM     29  C   UNL     1       4.987   1.036   0.333  0.00  0.00    +0.000 C 
BRANCH  29  31
ATOM     30  C   UNL     1       3.350   2.484   1.489  0.00  0.00    +0.000 C 
ATOM     31  C   UNL     1       3.756   1.855   0.389  0.00  0.00    +0.000 C 
ENDBRANCH  29  31
ENDBRANCH  28  29
BRANCH  28  32
ATOM     32  C   UNL     1       5.715  -1.236  -0.111  0.00  0.00    +0.000 C 
BRANCH  32  33
ATOM     33  C   UNL     1       5.088  -2.549  -0.497  0.00  0.00    +0.000 C 
ATOM     34  C   UNL     1       5.159  -3.635   0.229  0.00  0.00    +0.000 C 
ENDBRANCH  32  33
ENDBRANCH  28  32
ENDBRANCH  27  28
ENDBRANCH  25  27
ENDBRANCH  24  25
ENDBRANCH   1  24
TORSDOF 10
