REMARK  Name = 
REMARK  8 active torsions:
REMARK  status: ('A' for Active; 'I' for Inactive)
REMARK    1  A    between atoms: C_2  and  N_3
REMARK    2  A    between atoms: N_3  and  C_4
REMARK    3  A    between atoms: N_3  and  C_6
REMARK    4  A    between atoms: C_6  and  C_7
REMARK    5  A    between atoms: C_7  and  C_9
REMARK    6  A    between atoms: C_9  and  N_10
REMARK    7  A    between atoms: C_11  and  C_12
REMARK    8  A    between atoms: C_18  and  C_19
REMARK                            x       y       z     vdW  Elec       q    Type
REMARK                         _______ _______ _______ _____ _____    ______ ____
ROOT
ATOM      1  N   UNL     1       0.318   0.023   0.568  0.00  0.00    +0.000 N 
ATOM      2  C   UNL     1      -0.635   0.968   0.202  0.00  0.00    +0.000 A 
ATOM      3  C   UNL     1      -1.711   0.274  -0.278  0.00  0.00    +0.000 A 
ATOM      4  C   UNL     1      -1.468  -1.083  -0.219  0.00  0.00    +0.000 A 
ATOM      5  C   UNL     1      -2.256  -2.150  -0.556  0.00  0.00    +0.000 A 
ATOM      6  C   UNL     1      -1.814  -3.442  -0.368  0.00  0.00    +0.000 A 
ATOM      7  C   UNL     1      -0.558  -3.584   0.170  0.00  0.00    +0.000 A 
ATOM      8  C   UNL     1      -0.057  -4.858   0.429  0.00  0.00    +0.000 A 
ATOM      9  C   UNL     1       1.171  -5.066   0.996  0.00  0.00    +0.000 A 
ATOM     10  C   UNL     1       1.926  -3.947   1.315  0.00  0.00    +0.000 A 
ATOM     11  C   UNL     1       1.463  -2.678   1.073  0.00  0.00    +0.000 A 
ATOM     12  C   UNL     1       0.233  -2.492   0.505  0.00  0.00    +0.000 A 
ATOM     13  C   UNL     1      -0.183  -1.184   0.321  0.00  0.00    +0.000 A 
ENDROOT
BRANCH   2  14
ATOM     14  C   UNL     1      -0.636   2.413   0.313  0.00  0.00    +0.000 A 
ATOM     15  C   UNL     1      -0.316   3.024   1.541  0.00  0.00    +0.000 A 
ATOM     16  C   UNL     1      -0.322   4.378   1.734  0.00  0.00    +0.000 A 
ATOM     17  C   UNL     1      -0.650   5.211   0.703  0.00  0.00    +0.000 A 
ATOM     18  C   UNL     1      -0.971   4.666  -0.518  0.00  0.00    +0.000 A 
ATOM     19  C   UNL     1      -0.959   3.292  -0.692  0.00  0.00    +0.000 A 
ENDBRANCH   2  14
BRANCH   3  20
ATOM     20  C   UNL     1      -2.959   0.838  -0.794  0.00  0.00    +0.000 A 
ATOM     21  C   UNL     1      -4.136   0.695  -0.105  0.00  0.00    +0.000 A 
ATOM     22  C   UNL     1      -5.340   1.217  -0.579  0.00  0.00    +0.000 A 
ATOM     23  C   UNL     1      -5.371   1.898  -1.770  0.00  0.00    +0.000 A 
ATOM     24  C   UNL     1      -4.201   2.053  -2.477  0.00  0.00    +0.000 A 
ATOM     25  C   UNL     1      -3.018   1.527  -1.987  0.00  0.00    +0.000 A 
ENDBRANCH   3  20
BRANCH   1  26
ATOM     26  C   UNL     1       1.514   0.476   1.114  0.00  0.00    +0.000 C 
BRANCH  26  27
ATOM     27  C   UNL     1       2.599   1.012  -0.055  0.00  0.00    +0.000 C 
ATOM     28  O   UNL     1       1.422   1.289  -1.063  0.00  0.00    +0.000 OA
BRANCH  27  29
ATOM     29  C   UNL     1       2.840  -0.455  -0.720  0.00  0.00    +0.000 C 
BRANCH  29  30
ATOM     30  N   UNL     1       4.074  -0.915  -0.192  0.00  0.00    +0.000 NA
BRANCH  30  32
ATOM     31  C   UNL     1       4.438   0.137   1.982  0.00  0.00    +0.000 C 
ATOM     32  C   UNL     1       4.121  -1.124   1.188  0.00  0.00    +0.000 C 
ENDBRANCH  30  32
BRANCH  30  33
ATOM     33  C   UNL     1       5.260  -0.600  -0.889  0.00  0.00    +0.000 C 
ATOM     34  C   UNL     1       6.179  -1.813  -0.890  0.00  0.00    +0.000 C 
ENDBRANCH  30  33
ENDBRANCH  29  30
ENDBRANCH  27  29
ENDBRANCH  26  27
ENDBRANCH   1  26
TORSDOF 8
