REMARK  Name = 
REMARK  6 active torsions:
REMARK  status: ('A' for Active; 'I' for Inactive)
REMARK    1  A    between atoms: C_2  and  C_3
REMARK    2  A    between atoms: C_3  and  S_4
REMARK    3  A    between atoms: C_3  and  C_20
REMARK    4  A    between atoms: S_4  and  C_5
REMARK    5  A    between atoms: N_15  and  C_16
REMARK    6  A    between atoms: N_22  and  C_23
REMARK                            x       y       z     vdW  Elec       q    Type
REMARK                         _______ _______ _______ _____ _____    ______ ____
ROOT
ATOM      1  C   UNL     1       0.535   1.289   1.749  0.00  0.00    +0.000 C 
ENDROOT
BRANCH   1   2
ATOM      2  C   UNL     1       2.054   1.137   1.883  0.00  0.00    +0.000 C 
ATOM      3  O   UNL     1       2.536   1.703   2.886  0.00  0.00    +0.000 OA
ATOM      4  N   UNL     1       2.888   0.459   1.029  0.00  0.00    +0.000 NA
BRANCH   4   5
ATOM      5  C   UNL     1       4.288   0.301   1.125  0.00  0.00    +0.000 A 
ATOM      6  C   UNL     1       4.911   0.892   2.203  0.00  0.00    +0.000 A 
ATOM      7  C   UNL     1       6.273   0.810   2.408  0.00  0.00    +0.000 A 
ATOM      8  C   UNL     1       6.975   0.091   1.457  0.00  0.00    +0.000 A 
ATOM      9  C   UNL     1       6.364  -0.508   0.369  0.00  0.00    +0.000 A 
ATOM     10  C   UNL     1       7.084  -1.222  -0.571  0.00  0.00    +0.000 A 
ATOM     11  C   UNL     1       6.417  -1.795  -1.632  0.00  0.00    +0.000 A 
ATOM     12  C   UNL     1       5.053  -1.673  -1.775  0.00  0.00    +0.000 A 
ATOM     13  C   UNL     1       4.307  -0.970  -0.859  0.00  0.00    +0.000 A 
ATOM     14  C   UNL     1       5.015  -0.402   0.204  0.00  0.00    +0.000 A 
ENDBRANCH   4   5
ENDBRANCH   1   2
BRANCH   1  16
ATOM     15  C   UNL     1       0.101  -0.548   3.284  0.00  0.00    +0.000 C 
ATOM     16  C   UNL     1       0.103  -0.237   1.794  0.00  0.00    +0.000 C 
ENDBRANCH   1  16
BRANCH   1  17
ATOM     17  S   UNL     1       0.465   1.428  -0.152  0.00  0.00    +0.000 S 
BRANCH  17  18
ATOM     18  C   UNL     1      -1.293   1.216  -0.500  0.00  0.00    +0.000 A 
ATOM     19  N   UNL     1      -2.104   2.288  -0.533  0.00  0.00    +0.000 NA
ATOM     20  N   UNL     1      -3.393   2.219  -0.778  0.00  0.00    +0.000 NA
ATOM     21  C   UNL     1      -3.952   0.997  -1.016  0.00  0.00    +0.000 A 
ATOM     22  C   UNL     1      -5.251   0.617  -1.297  0.00  0.00    +0.000 A 
ATOM     23  C   UNL     1      -6.440   1.326  -1.439  0.00  0.00    +0.000 A 
ATOM     24  C   UNL     1      -7.612   0.649  -1.729  0.00  0.00    +0.000 A 
ATOM     25  C   UNL     1      -7.566  -0.728  -1.872  0.00  0.00    +0.000 A 
ATOM     26  C   UNL     1      -6.400  -1.424  -1.733  0.00  0.00    +0.000 A 
ATOM     27  C   UNL     1      -5.218  -0.755  -1.441  0.00  0.00    +0.000 A 
ATOM     28  N   UNL     1      -3.951  -1.189  -1.255  0.00  0.00    +0.000 N 
ATOM     29  C   UNL     1      -3.155  -0.128  -0.992  0.00  0.00    +0.000 A 
ATOM     30  N   UNL     1      -1.829   0.004  -0.732  0.00  0.00    +0.000 NA
BRANCH  28  31
ATOM     31  C   UNL     1      -3.551  -2.581  -1.333  0.00  0.00    +0.000 C 
ATOM     32  C   UNL     1      -3.654  -3.266   0.023  0.00  0.00    +0.000 C 
ENDBRANCH  28  31
ENDBRANCH  17  18
ENDBRANCH   1  17
TORSDOF 6
