REMARK  Name = 
REMARK  7 active torsions:
REMARK  status: ('A' for Active; 'I' for Inactive)
REMARK    1  A    between atoms: C_2  and  C_3
REMARK    2  A    between atoms: C_3  and  C_5
REMARK    3  A    between atoms: C_10  and  N_11
REMARK    4  A    between atoms: C_12  and  C_14
REMARK    5  A    between atoms: C_14  and  O_15
REMARK    6  A    between atoms: O_15  and  C_16
REMARK    7  A    between atoms: C_16  and  C_18
REMARK                            x       y       z     vdW  Elec       q    Type
REMARK                         _______ _______ _______ _____ _____    ______ ____
ROOT
ATOM      1  C   UNL     1       1.800   1.114  -0.456  0.00  0.00    +0.000 C 
ATOM      2  O   UNL     1       1.737   2.267  -0.914  0.00  0.00    +0.000 OA
ENDROOT
BRANCH   1   3
ATOM      3  C   UNL     1       3.076   0.437  -0.264  0.00  0.00    +0.000 A 
ATOM      4  C   UNL     1       3.736   0.558   0.936  0.00  0.00    +0.000 A 
ATOM      5  C   UNL     1       3.232   1.301   1.974  0.00  0.00    +0.000 A 
ATOM      6  C   UNL     1       3.901   1.424   3.191  0.00  0.00    +0.000 A 
ATOM      7  C   UNL     1       5.096   0.772   3.327  0.00  0.00    +0.000 A 
ATOM      8  C   UNL     1       5.625   0.019   2.300  0.00  0.00    +0.000 A 
ATOM      9  C   UNL     1       4.945  -0.094   1.090  0.00  0.00    +0.000 A 
ATOM     10  C   UNL     1       5.443  -0.841   0.036  0.00  0.00    +0.000 A 
ATOM     11  C   UNL     1       4.782  -0.963  -1.165  0.00  0.00    +0.000 A 
ATOM     12  C   UNL     1       5.292  -1.713  -2.215  0.00  0.00    +0.000 A 
ATOM     13  C   UNL     1       4.610  -1.819  -3.412  0.00  0.00    +0.000 A 
ATOM     14  C   UNL     1       3.408  -1.177  -3.580  0.00  0.00    +0.000 A 
ATOM     15  C   UNL     1       2.908  -0.431  -2.527  0.00  0.00    +0.000 A 
ATOM     16  C   UNL     1       3.574  -0.314  -1.326  0.00  0.00    +0.000 A 
ENDBRANCH   1   3
BRANCH   1  17
ATOM     17  O   UNL     1       0.646   0.428  -0.110  0.00  0.00    +0.000 OA
BRANCH  17  18
ATOM     18  C   UNL     1      -0.594   1.070  -0.293  0.00  0.00    +0.000 C 
BRANCH  18  20
ATOM     19  N   UNL     1      -3.045   0.603   0.041  0.00  0.00    +0.000 NA
ATOM     20  C   UNL     1      -1.695   0.181   0.149  0.00  0.00    +0.000 C 
ATOM     21  O   UNL     1      -1.400  -0.944   0.615  0.00  0.00    +0.000 OA
BRANCH  19  27
ATOM     22  C   UNL     1      -5.401   0.039   0.387  0.00  0.00    +0.000 A 
ATOM     23  C   UNL     1      -6.348  -0.803   0.807  0.00  0.00    +0.000 A 
ATOM     24  C   UNL     1      -6.053  -2.063   1.366  0.00  0.00    +0.000 A 
ATOM     25  C   UNL     1      -4.711  -2.364   1.447  0.00  0.00    +0.000 A 
ATOM     26  C   UNL     1      -3.741  -1.520   1.025  0.00  0.00    +0.000 A 
ATOM     27  C   UNL     1      -4.081  -0.299   0.487  0.00  0.00    +0.000 A 
BRANCH  22  28
ATOM     28  C   UNL     1      -5.803   1.421  -0.210  0.00  0.00    +0.000 C 
ATOM     29  C   UNL     1      -5.572   1.001  -1.792  0.00  0.00    +0.000 C 
BRANCH  28  31
ATOM     30  C   UNL     1      -7.954   1.513   1.090  0.00  0.00    +0.000 C 
ATOM     31  C   UNL     1      -7.414   1.195  -0.277  0.00  0.00    +0.000 C 
ENDBRANCH  28  31
ENDBRANCH  22  28
ENDBRANCH  19  27
ENDBRANCH  18  20
ENDBRANCH  17  18
ENDBRANCH   1  17
TORSDOF 7
