REMARK  Name = 
REMARK  9 active torsions:
REMARK  status: ('A' for Active; 'I' for Inactive)
REMARK    1  A    between atoms: O_2  and  C_3
REMARK    2  A    between atoms: C_3  and  C_5
REMARK    3  A    between atoms: C_11  and  C_12
REMARK    4  A    between atoms: C_12  and  C_13
REMARK    5  A    between atoms: C_13  and  C_14
REMARK    6  A    between atoms: C_14  and  C_15
REMARK    7  A    between atoms: C_15  and  N_16
REMARK    8  A    between atoms: C_20  and  C_21
REMARK    9  A    between atoms: C_21  and  C_22
REMARK                            x       y       z     vdW  Elec       q    Type
REMARK                         _______ _______ _______ _____ _____    ______ ____
ROOT
ATOM      1  C   UNL     1       0.912   0.575   0.993  0.00  0.00    +0.000 C 
ENDROOT
BRANCH   1   2
ATOM      2  C   UNL     1       1.663   1.665   0.293  0.00  0.00    +0.000 C 
BRANCH   2   9
ATOM      3  C   UNL     1       5.519  -0.678  -0.509  0.00  0.00    +0.000 A 
ATOM      4  C   UNL     1       5.712  -0.844  -1.863  0.00  0.00    +0.000 A 
ATOM      5  C   UNL     1       4.834  -0.353  -2.808  0.00  0.00    +0.000 A 
ATOM      6  C   UNL     1       3.728   0.327  -2.383  0.00  0.00    +0.000 A 
ATOM      7  N   UNL     1       2.741   0.897  -3.097  0.00  0.00    +0.000 NA
ATOM      8  C   UNL     1       1.886   1.446  -2.209  0.00  0.00    +0.000 A 
ATOM      9  C   UNL     1       2.330   1.224  -0.938  0.00  0.00    +0.000 A 
ATOM     10  C   UNL     1       3.512   0.507  -1.031  0.00  0.00    +0.000 A 
ATOM     11  C   UNL     1       4.407   0.005  -0.082  0.00  0.00    +0.000 A 
BRANCH   3  12
ATOM     12  C   UNL     1       6.501  -1.221   0.442  0.00  0.00    +0.000 C 
ATOM     13  O   UNL     1       7.527  -1.836  -0.009  0.00  0.00    +0.000 OA
BRANCH  12  15
ATOM     14  C   UNL     1       7.373  -1.658   2.681  0.00  0.00    +0.000 C 
ATOM     15  O   UNL     1       6.380  -1.106   1.803  0.00  0.00    +0.000 OA
ENDBRANCH  12  15
ENDBRANCH   3  12
ENDBRANCH   2   9
ENDBRANCH   1   2
BRANCH   1  16
ATOM     16  C   UNL     1      -0.186  -0.005   0.116  0.00  0.00    +0.000 C 
BRANCH  16  17
ATOM     17  C   UNL     1      -1.184   1.102  -0.261  0.00  0.00    +0.000 C 
BRANCH  17  18
ATOM     18  N   UNL     1      -1.744   1.618   0.968  0.00  0.00    +0.000 NA
ATOM     19  C   UNL     1      -2.658   2.700   0.676  0.00  0.00    +0.000 C 
ATOM     20  C   UNL     1      -3.748   2.167  -0.225  0.00  0.00    +0.000 C 
ATOM     21  C   UNL     1      -4.484   1.089   0.588  0.00  0.00    +0.000 C 
ATOM     22  C   UNL     1      -3.378  -0.153   0.450  0.00  0.00    +0.000 C 
ATOM     23  C   UNL     1      -2.414   0.506   1.632  0.00  0.00    +0.000 C 
BRANCH  22  24
ATOM     24  C   UNL     1      -4.165  -1.113   1.527  0.00  0.00    +0.000 C 
BRANCH  24  25
ATOM     25  C   UNL     1      -5.503  -1.336   0.989  0.00  0.00    +0.000 A 
ATOM     26  C   UNL     1      -6.491  -0.421   1.376  0.00  0.00    +0.000 A 
ATOM     27  C   UNL     1      -7.799  -0.514   0.940  0.00  0.00    +0.000 A 
ATOM     28  C   UNL     1      -8.158  -1.520   0.105  0.00  0.00    +0.000 A 
ATOM     29  C   UNL     1      -7.220  -2.447  -0.305  0.00  0.00    +0.000 A 
ATOM     30  C   UNL     1      -5.892  -2.348   0.142  0.00  0.00    +0.000 A 
ENDBRANCH  24  25
ENDBRANCH  22  24
ENDBRANCH  17  18
ENDBRANCH  16  17
ENDBRANCH   1  16
TORSDOF 9
