REMARK  Name = 
REMARK  8 active torsions:
REMARK  status: ('A' for Active; 'I' for Inactive)
REMARK    1  A    between atoms: C_2  and  C_3
REMARK    2  A    between atoms: C_3  and  C_4
REMARK    3  A    between atoms: C_4  and  O_5
REMARK    4  A    between atoms: O_5  and  C_6
REMARK    5  A    between atoms: C_9  and  C_10
REMARK    6  A    between atoms: C_20  and  O_21
REMARK    7  A    between atoms: O_21  and  C_22
REMARK    8  A    between atoms: C_22  and  C_23
REMARK                            x       y       z     vdW  Elec       q    Type
REMARK                         _______ _______ _______ _____ _____    ______ ____
ROOT
ATOM      1  C   UNL     1       2.222   0.636  -3.153  0.00  0.00    +0.000 C 
ATOM      2  N   UNL     1       2.307   2.178  -3.369  0.00  0.00    +0.000 NA
ATOM      3  C   UNL     1       2.111   2.842  -2.135  0.00  0.00    +0.000 C 
ATOM      4  C   UNL     1       0.631   2.938  -1.852  0.00  0.00    +0.000 C 
ATOM      5  C   UNL     1       0.117   1.554  -1.967  0.00  0.00    +0.000 A 
ATOM      6  C   UNL     1       0.791   0.566  -2.523  0.00  0.00    +0.000 A 
ATOM      7  N   UNL     1       0.023  -0.533  -2.452  0.00  0.00    +0.000 NA
ATOM      8  C   UNL     1      -1.161  -0.234  -1.839  0.00  0.00    +0.000 A 
ATOM      9  C   UNL     1      -2.287  -0.968  -1.513  0.00  0.00    +0.000 A 
ATOM     10  C   UNL     1      -3.341  -0.342  -0.877  0.00  0.00    +0.000 A 
ATOM     11  C   UNL     1      -3.340   0.995  -0.539  0.00  0.00    +0.000 A 
ATOM     12  C   UNL     1      -2.200   1.706  -0.877  0.00  0.00    +0.000 A 
ATOM     13  C   UNL     1      -1.137   1.104  -1.512  0.00  0.00    +0.000 A 
ENDROOT
BRANCH   1  17
ATOM     14  C   UNL     1       4.660   0.607   0.427  0.00  0.00    +0.000 A 
ATOM     15  C   UNL     1       5.039   1.297  -0.703  0.00  0.00    +0.000 A 
ATOM     16  C   UNL     1       4.255   1.297  -1.828  0.00  0.00    +0.000 A 
ATOM     17  C   UNL     1       3.074   0.589  -1.804  0.00  0.00    +0.000 A 
ATOM     18  C   UNL     1       2.675  -0.090  -0.729  0.00  0.00    +0.000 A 
ATOM     19  C   UNL     1       3.470  -0.085   0.399  0.00  0.00    +0.000 A 
BRANCH  14  20
ATOM     20  O   UNL     1       5.515   0.663   1.517  0.00  0.00    +0.000 OA
BRANCH  20  21
ATOM     21  C   UNL     1       5.136  -0.042   2.683  0.00  0.00    +0.000 C 
BRANCH  21  22
ATOM     22  C   UNL     1       4.990  -1.538   2.374  0.00  0.00    +0.000 C 
BRANCH  22  24
ATOM     23  C   UNL     1       3.278  -1.844   4.169  0.00  0.00    +0.000 C 
ATOM     24  C   UNL     1       4.591  -2.299   3.595  0.00  0.00    +0.000 C 
ENDBRANCH  22  24
ENDBRANCH  21  22
ENDBRANCH  20  21
ENDBRANCH  14  20
ENDBRANCH   1  17
BRANCH  11  25
ATOM     25  O   UNL     1      -4.423   1.575   0.099  0.00  0.00    +0.000 OA
BRANCH  25  26
ATOM     26  C   UNL     1      -5.589   0.933   0.466  0.00  0.00    +0.000 C 
BRANCH  26  27
ATOM     27  C   UNL     1      -5.407  -0.181   1.405  0.00  0.00    +0.000 A 
ATOM     28  C   UNL     1      -5.218  -1.477   0.999  0.00  0.00    +0.000 A 
ATOM     29  C   UNL     1      -5.047  -2.521   1.882  0.00  0.00    +0.000 A 
ATOM     30  C   UNL     1      -5.063  -2.276   3.232  0.00  0.00    +0.000 A 
ATOM     31  C   UNL     1      -5.251  -0.987   3.669  0.00  0.00    +0.000 A 
ATOM     32  C   UNL     1      -5.423   0.064   2.756  0.00  0.00    +0.000 A 
ENDBRANCH  26  27
ENDBRANCH  25  26
ENDBRANCH  11  25
TORSDOF 8
