REMARK  Name = 
REMARK  8 active torsions:
REMARK  status: ('A' for Active; 'I' for Inactive)
REMARK    1  A    between atoms: C_6  and  O_7
REMARK    2  A    between atoms: O_7  and  C_8
REMARK    3  A    between atoms: C_8  and  C_9
REMARK    4  A    between atoms: C_9  and  N_10
REMARK    5  A    between atoms: C_11  and  C_13
REMARK    6  A    between atoms: C_18  and  S_19
REMARK    7  A    between atoms: S_19  and  C_20
REMARK    8  A    between atoms: C_25  and  C_26
REMARK                            x       y       z     vdW  Elec       q    Type
REMARK                         _______ _______ _______ _____ _____    ______ ____
ROOT
ATOM      1  N   UNL     1       0.877  -1.467   0.419  0.00  0.00    +0.000 NA
ATOM      2  C   UNL     1      -0.389  -0.807   0.230  0.00  0.00    +0.000 C 
ATOM      3  O   UNL     1      -0.658   0.087   1.049  0.00  0.00    +0.000 OA
ENDROOT
BRANCH   2   4
ATOM      4  C   UNL     1      -1.252  -1.206  -0.867  0.00  0.00    +0.000 A 
ATOM      5  C   UNL     1      -0.656  -1.624  -2.071  0.00  0.00    +0.000 A 
ATOM      6  C   UNL     1      -1.455  -2.036  -3.102  0.00  0.00    +0.000 A 
ATOM      7  C   UNL     1      -2.814  -2.045  -2.973  0.00  0.00    +0.000 A 
ATOM      8  C   UNL     1      -3.433  -1.645  -1.815  0.00  0.00    +0.000 A 
ATOM      9  C   UNL     1      -2.614  -1.220  -0.753  0.00  0.00    +0.000 A 
BRANCH   9  10
ATOM     10  S   UNL     1      -3.376  -0.707   0.788  0.00  0.00    +0.000 S 
BRANCH  10  11
ATOM     11  C   UNL     1      -3.943   0.973   0.687  0.00  0.00    +0.000 A 
ATOM     12  C   UNL     1      -3.149   2.016   1.054  0.00  0.00    +0.000 A 
ATOM     13  C   UNL     1      -3.549   3.351   0.992  0.00  0.00    +0.000 A 
ATOM     14  C   UNL     1      -4.811   3.606   0.537  0.00  0.00    +0.000 A 
ATOM     15  C   UNL     1      -5.636   2.567   0.160  0.00  0.00    +0.000 A 
ATOM     16  C   UNL     1      -5.230   1.241   0.224  0.00  0.00    +0.000 A 
BRANCH  16  17
ATOM     17  C   UNL     1      -6.119   0.202  -0.177  0.00  0.00    +0.000 C 
ATOM     18  N   UNL     1      -6.845  -0.660  -0.489  0.00  0.00    +0.000 NA
ENDBRANCH  16  17
ENDBRANCH  10  11
ENDBRANCH   9  10
ENDBRANCH   2   4
BRANCH   1  19
ATOM     19  C   UNL     1       1.772  -1.112   1.490  0.00  0.00    +0.000 C 
BRANCH  19  20
ATOM     20  C   UNL     1       2.987  -1.941   1.449  0.00  0.00    +0.000 C 
BRANCH  20  21
ATOM     21  O   UNL     1       3.776  -1.850   0.323  0.00  0.00    +0.000 OA
BRANCH  21  27
ATOM     22  C   UNL     1       6.739   2.825  -0.750  0.00  0.00    +0.000 C 
ATOM     23  C   UNL     1       5.902   1.619  -0.521  0.00  0.00    +0.000 A 
ATOM     24  C   UNL     1       4.706   1.423  -1.142  0.00  0.00    +0.000 A 
ATOM     25  C   UNL     1       3.958   0.276  -0.894  0.00  0.00    +0.000 A 
ATOM     26  C   UNL     1       2.663   0.077  -1.624  0.00  0.00    +0.000 C 
ATOM     27  C   UNL     1       4.399  -0.667  -0.033  0.00  0.00    +0.000 A 
ATOM     28  C   UNL     1       5.636  -0.456   0.604  0.00  0.00    +0.000 A 
ATOM     29  C   UNL     1       6.141  -1.491   1.560  0.00  0.00    +0.000 C 
ATOM     30  C   UNL     1       6.373   0.672   0.360  0.00  0.00    +0.000 A 
ENDBRANCH  21  27
ENDBRANCH  20  21
ENDBRANCH  19  20
ENDBRANCH   1  19
TORSDOF 8
