REMARK  Name = 
REMARK  7 active torsions:
REMARK  status: ('A' for Active; 'I' for Inactive)
REMARK    1  A    between atoms: C_2  and  C_3
REMARK    2  A    between atoms: C_3  and  C_5
REMARK    3  A    between atoms: C_5  and  O_6
REMARK    4  A    between atoms: O_6  and  C_7
REMARK    5  A    between atoms: C_7  and  C_9
REMARK    6  A    between atoms: N_12  and  C_13
REMARK    7  A    between atoms: C_13  and  C_15
REMARK                            x       y       z     vdW  Elec       q    Type
REMARK                         _______ _______ _______ _____ _____    ______ ____
ROOT
ATOM      1  C   UNL     1       0.768  -0.005  -0.180  0.00  0.00    +0.000 A 
ATOM      2  C   UNL     1      -0.119   0.885  -0.810  0.00  0.00    +0.000 A 
ATOM      3  N   UNL     1       0.296   2.222  -1.036  0.00  0.00    +0.000 NA
ATOM      4  N   UNL     1      -1.254   0.256  -1.091  0.00  0.00    +0.000 N 
ATOM      5  C   UNL     1      -1.127  -0.991  -0.669  0.00  0.00    +0.000 A 
ATOM      6  N   UNL     1      -1.976  -2.012  -0.717  0.00  0.00    +0.000 NA
ATOM      7  C   UNL     1      -1.670  -3.225  -0.232  0.00  0.00    +0.000 A 
ATOM      8  C   UNL     1      -2.573  -4.281  -0.291  0.00  0.00    +0.000 A 
ATOM      9  C   UNL     1      -2.219  -5.510   0.219  0.00  0.00    +0.000 A 
ATOM     10  C   UNL     1      -0.974  -5.706   0.790  0.00  0.00    +0.000 A 
ATOM     11  C   UNL     1      -0.085  -4.660   0.846  0.00  0.00    +0.000 A 
ATOM     12  C   UNL     1      -0.438  -3.428   0.336  0.00  0.00    +0.000 A 
ATOM     13  N   UNL     1       0.434  -2.407   0.393  0.00  0.00    +0.000 NA
ATOM     14  C   UNL     1       0.105  -1.206  -0.098  0.00  0.00    +0.000 A 
ENDROOT
BRANCH   1  15
ATOM     15  C   UNL     1       2.111   0.245   0.299  0.00  0.00    +0.000 C 
ATOM     16  O   UNL     1       2.768  -0.663   0.839  0.00  0.00    +0.000 OA
BRANCH  15  17
ATOM     17  O   UNL     1       2.648   1.483   0.153  0.00  0.00    +0.000 OA
BRANCH  17  18
ATOM     18  C   UNL     1       3.842   2.036   0.478  0.00  0.00    +0.000 C 
BRANCH  18  19
ATOM     19  C   UNL     1       4.996   1.241  -0.346  0.00  0.00    +0.000 C 
ATOM     20  C   UNL     1       5.263   0.150   0.888  0.00  0.00    +0.000 C 
BRANCH  19  22
ATOM     21  C   UNL     1       6.178   3.347  -0.740  0.00  0.00    +0.000 C 
ATOM     22  C   UNL     1       6.218   2.213   0.265  0.00  0.00    +0.000 C 
ENDBRANCH  19  22
ENDBRANCH  18  19
ENDBRANCH  17  18
ENDBRANCH  15  17
ENDBRANCH   1  15
BRANCH   4  23
ATOM     23  C   UNL     1      -2.448   0.909  -1.779  0.00  0.00    +0.000 C 
ATOM     24  C   UNL     1      -3.642  -0.055  -1.174  0.00  0.00    +0.000 C 
BRANCH  23  25
ATOM     25  C   UNL     1      -2.683   2.117  -0.782  0.00  0.00    +0.000 A 
ATOM     26  C   UNL     1      -2.257   3.355  -1.138  0.00  0.00    +0.000 A 
ATOM     27  C   UNL     1      -2.406   4.446  -0.338  0.00  0.00    +0.000 A 
ATOM     28  C   UNL     1      -3.020   4.261   0.885  0.00  0.00    +0.000 A 
ATOM     29  C   UNL     1      -3.456   3.033   1.268  0.00  0.00    +0.000 A 
ATOM     30  C   UNL     1      -3.279   1.948   0.411  0.00  0.00    +0.000 A 
ENDBRANCH  23  25
ENDBRANCH   4  23
TORSDOF 7
