REMARK  Name = 
REMARK  9 active torsions:
REMARK  status: ('A' for Active; 'I' for Inactive)
REMARK    1  A    between atoms: C_2  and  C_3
REMARK    2  A    between atoms: C_3  and  C_5
REMARK    3  A    between atoms: C_10  and  N_11
REMARK    4  A    between atoms: C_12  and  C_14
REMARK    5  A    between atoms: C_14  and  O_15
REMARK    6  A    between atoms: O_15  and  C_16
REMARK    7  A    between atoms: C_16  and  C_18
REMARK    8  A    between atoms: C_18  and  C_19
REMARK    9  A    between atoms: C_18  and  C_25
REMARK                            x       y       z     vdW  Elec       q    Type
REMARK                         _______ _______ _______ _____ _____    ______ ____
ROOT
ATOM      1  O   UNL     1      -0.711  -1.014  -0.112  0.00  0.00    +0.000 OA
ENDROOT
BRANCH   1   2
ATOM      2  C   UNL     1      -1.667  -0.104   0.227  0.00  0.00    +0.000 C 
ATOM      3  O   UNL     1      -1.314   0.778   1.034  0.00  0.00    +0.000 OA
BRANCH   2   4
ATOM      4  C   UNL     1      -3.047  -0.120  -0.301  0.00  0.00    +0.000 C 
BRANCH   4   5
ATOM      5  C   UNL     1      -3.784  -1.351   0.008  0.00  0.00    +0.000 A 
ATOM      6  C   UNL     1      -3.828  -1.984   1.222  0.00  0.00    +0.000 A 
ATOM      7  C   UNL     1      -4.569  -3.131   1.369  0.00  0.00    +0.000 A 
ATOM      8  C   UNL     1      -5.271  -3.666   0.327  0.00  0.00    +0.000 A 
ATOM      9  C   UNL     1      -5.237  -3.047  -0.886  0.00  0.00    +0.000 A 
ATOM     10  C   UNL     1      -4.505  -1.913  -1.033  0.00  0.00    +0.000 A 
ENDBRANCH   4   5
BRANCH   4  11
ATOM     11  C   UNL     1      -3.824   1.093  -0.046  0.00  0.00    +0.000 A 
ATOM     12  C   UNL     1      -3.838   1.781   1.153  0.00  0.00    +0.000 A 
ATOM     13  C   UNL     1      -4.628   2.895   1.228  0.00  0.00    +0.000 A 
ATOM     14  C   UNL     1      -5.385   3.329   0.164  0.00  0.00    +0.000 A 
ATOM     15  C   UNL     1      -5.368   2.648  -1.015  0.00  0.00    +0.000 A 
ATOM     16  C   UNL     1      -4.595   1.540  -1.123  0.00  0.00    +0.000 A 
ENDBRANCH   4  11
ENDBRANCH   2   4
ENDBRANCH   1   2
BRANCH   1  17
ATOM     17  C   UNL     1       0.575  -1.146   0.262  0.00  0.00    +0.000 C 
BRANCH  17  19
ATOM     18  N   UNL     1       2.897  -0.351   0.373  0.00  0.00    +0.000 NA
ATOM     19  C   UNL     1       1.538  -0.114   0.006  0.00  0.00    +0.000 C 
ATOM     20  O   UNL     1       1.384   1.006  -0.507  0.00  0.00    +0.000 OA
BRANCH  18  26
ATOM     21  C   UNL     1       5.190   0.176   0.541  0.00  0.00    +0.000 A 
ATOM     22  C   UNL     1       6.292   0.991   0.393  0.00  0.00    +0.000 A 
ATOM     23  C   UNL     1       6.172   2.265  -0.142  0.00  0.00    +0.000 A 
ATOM     24  C   UNL     1       4.916   2.693  -0.522  0.00  0.00    +0.000 A 
ATOM     25  C   UNL     1       3.820   1.837  -0.357  0.00  0.00    +0.000 A 
ATOM     26  C   UNL     1       3.933   0.581   0.170  0.00  0.00    +0.000 A 
BRANCH  21  27
ATOM     27  C   UNL     1       5.383  -1.243   1.187  0.00  0.00    +0.000 C 
ATOM     28  C   UNL     1       5.033  -2.181  -0.088  0.00  0.00    +0.000 C 
BRANCH  27  30
ATOM     29  C   UNL     1       7.466  -0.883  -0.231  0.00  0.00    +0.000 C 
ATOM     30  C   UNL     1       6.970  -1.366   1.069  0.00  0.00    +0.000 C 
ENDBRANCH  27  30
ENDBRANCH  21  27
ENDBRANCH  18  26
ENDBRANCH  17  19
ENDBRANCH   1  17
TORSDOF 9
