REMARK  Name = 
REMARK  7 active torsions:
REMARK  status: ('A' for Active; 'I' for Inactive)
REMARK    1  A    between atoms: C_2  and  O_3
REMARK    2  A    between atoms: O_3  and  C_4
REMARK    3  A    between atoms: C_9  and  N_10
REMARK    4  A    between atoms: N_10  and  C_11
REMARK    5  A    between atoms: C_12  and  S_13
REMARK    6  A    between atoms: S_13  and  C_14
REMARK    7  A    between atoms: N_23  and  C_24
REMARK                            x       y       z     vdW  Elec       q    Type
REMARK                         _______ _______ _______ _____ _____    ______ ____
ROOT
ATOM      1  C   UNL     1      -1.008  -0.571   0.240  0.00  0.00    +0.000 C 
ATOM      2  C   UNL     1       0.184  -0.156  -0.115  0.00  0.00    +0.000 C 
ATOM      3  C   UNL     1       0.276   1.313   0.074  0.00  0.00    +0.000 C 
ATOM      4  O   UNL     1       1.291   1.999  -0.177  0.00  0.00    +0.000 OA
ATOM      5  N   UNL     1      -0.970   1.766   0.577  0.00  0.00    +0.000 N 
ATOM      6  C   UNL     1      -1.789   0.613   0.691  0.00  0.00    +0.000 C 
ATOM      7  O   UNL     1      -2.983   0.537   1.097  0.00  0.00    +0.000 OA
ENDROOT
BRANCH   5   8
ATOM      8  C   UNL     1      -1.338   3.110   0.901  0.00  0.00    +0.000 A 
ATOM      9  C   UNL     1      -0.746   3.795   1.912  0.00  0.00    +0.000 A 
ATOM     10  C   UNL     1      -1.089   5.087   2.235  0.00  0.00    +0.000 A 
ATOM     11  C   UNL     1      -2.074   5.682   1.486  0.00  0.00    +0.000 A 
ATOM     12  C   UNL     1      -2.697   5.005   0.445  0.00  0.00    +0.000 A 
ATOM     13  C   UNL     1      -3.775   5.675  -0.363  0.00  0.00    +0.000 C 
ATOM     14  C   UNL     1      -2.328   3.712   0.150  0.00  0.00    +0.000 A 
ATOM     15  C   UNL     1      -3.010   3.001  -0.972  0.00  0.00    +0.000 C 
ENDBRANCH   5   8
BRANCH   1  16
ATOM     16  N   UNL     1      -1.475  -1.901   0.206  0.00  0.00    +0.000 NA
BRANCH  16  22
ATOM     17  C   UNL     1      -1.412  -4.297   0.386  0.00  0.00    +0.000 A 
ATOM     18  C   UNL     1      -0.806  -5.470   0.770  0.00  0.00    +0.000 A 
ATOM     19  C   UNL     1       0.445  -5.490   1.389  0.00  0.00    +0.000 A 
ATOM     20  C   UNL     1       1.062  -4.277   1.607  0.00  0.00    +0.000 A 
ATOM     21  C   UNL     1       0.437  -3.110   1.214  0.00  0.00    +0.000 A 
ATOM     22  C   UNL     1      -0.795  -3.060   0.602  0.00  0.00    +0.000 A 
BRANCH  17  23
ATOM     23  O   UNL     1      -2.650  -4.358  -0.223  0.00  0.00    +0.000 OA
BRANCH  23  25
ATOM     24  C   UNL     1      -2.353  -6.421  -1.327  0.00  0.00    +0.000 C 
ATOM     25  C   UNL     1      -3.270  -5.611  -0.443  0.00  0.00    +0.000 C 
ENDBRANCH  23  25
ENDBRANCH  17  23
ENDBRANCH  16  22
ENDBRANCH   1  16
BRANCH   2  26
ATOM     26  S   UNL     1       1.491  -1.210  -0.728  0.00  0.00    +0.000 S 
BRANCH  26  27
ATOM     27  C   UNL     1       2.962  -0.292  -1.050  0.00  0.00    +0.000 A 
ATOM     28  C   UNL     1       3.216   0.266  -2.278  0.00  0.00    +0.000 A 
ATOM     29  C   UNL     1       4.372   0.997  -2.546  0.00  0.00    +0.000 A 
ATOM     30  C   UNL     1       5.302   1.175  -1.559  0.00  0.00    +0.000 A 
ATOM     31  C   UNL     1       6.540   1.970  -1.883  0.00  0.00    +0.000 C 
ATOM     32  C   UNL     1       5.075   0.629  -0.322  0.00  0.00    +0.000 A 
ATOM     33  C   UNL     1       3.915  -0.107  -0.049  0.00  0.00    +0.000 A 
ENDBRANCH  26  27
ENDBRANCH   2  26
TORSDOF 7
