REMARK  Name = 
REMARK  7 active torsions:
REMARK  status: ('A' for Active; 'I' for Inactive)
REMARK    1  A    between atoms: O_2  and  C_3
REMARK    2  A    between atoms: C_7  and  C_8
REMARK    3  A    between atoms: N_10  and  C_11
REMARK    4  A    between atoms: C_15  and  C_16
REMARK    5  A    between atoms: N_18  and  C_19
REMARK    6  A    between atoms: C_19  and  C_20
REMARK    7  A    between atoms: C_20  and  C_21
REMARK                            x       y       z     vdW  Elec       q    Type
REMARK                         _______ _______ _______ _____ _____    ______ ____
ROOT
ATOM      1  C   UNL     1      -1.457   0.217  -0.965  0.00  0.00    +0.000 A 
ATOM      2  S   UNL     1      -2.284   0.361  -2.518  0.00  0.00    +0.000 S 
ATOM      3  C   UNL     1      -0.954   0.356  -3.545  0.00  0.00    +0.000 A 
ATOM      4  C   UNL     1       0.092   0.246  -2.698  0.00  0.00    +0.000 A 
ATOM      5  C   UNL     1      -0.152   0.173  -1.360  0.00  0.00    +0.000 A 
ATOM      6  C   UNL     1       1.501   0.203  -3.340  0.00  0.00    +0.000 C 
ATOM      7  C   UNL     1       1.342  -0.484  -4.677  0.00  0.00    +0.000 C 
ATOM      8  C   UNL     1       0.526   0.509  -5.516  0.00  0.00    +0.000 C 
ATOM      9  C   UNL     1      -0.869   0.443  -5.043  0.00  0.00    +0.000 C 
ENDROOT
BRANCH   1  12
ATOM     10  C   UNL     1      -2.407   0.102   1.450  0.00  0.00    +0.000 C 
ATOM     11  O   UNL     1      -1.418  -0.008   2.203  0.00  0.00    +0.000 OA
ATOM     12  N   UNL     1      -2.222   0.183   0.154  0.00  0.00    +0.000 NA
BRANCH  10  17
ATOM     13  C   UNL     1      -6.131   0.294   2.071  0.00  0.00    +0.000 A 
ATOM     14  C   UNL     1      -6.191   0.184   3.426  0.00  0.00    +0.000 A 
ATOM     15  C   UNL     1      -5.019   0.045   4.162  0.00  0.00    +0.000 A 
ATOM     16  C   UNL     1      -3.810   0.022   3.500  0.00  0.00    +0.000 A 
ATOM     17  C   UNL     1      -3.739   0.132   2.137  0.00  0.00    +0.000 A 
ATOM     18  C   UNL     1      -4.910   0.268   1.428  0.00  0.00    +0.000 A 
BRANCH  13  20
ATOM     19  C   UNL     1      -7.306   0.551  -0.062  0.00  0.00    +0.000 C 
ATOM     20  O   UNL     1      -7.328   0.434   1.342  0.00  0.00    +0.000 OA
ENDBRANCH  13  20
ENDBRANCH  10  17
ENDBRANCH   1  12
BRANCH   5  21
ATOM     21  C   UNL     1       0.944   0.055  -0.355  0.00  0.00    +0.000 C 
ATOM     22  O   UNL     1       0.774  -0.006   0.846  0.00  0.00    +0.000 OA
ATOM     23  N   UNL     1       2.302   0.007  -0.794  0.00  0.00    +0.000 NA
BRANCH  23  24
ATOM     24  C   UNL     1       3.397  -0.109   0.186  0.00  0.00    +0.000 C 
BRANCH  24  25
ATOM     25  C   UNL     1       4.718  -0.138  -0.547  0.00  0.00    +0.000 C 
BRANCH  25  26
ATOM     26  C   UNL     1       5.785  -0.255   0.478  0.00  0.00    +0.000 A 
ATOM     27  C   UNL     1       6.181  -1.523   0.850  0.00  0.00    +0.000 A 
ATOM     28  C   UNL     1       7.167  -1.714   1.795  0.00  0.00    +0.000 A 
ATOM     29  C   UNL     1       7.755  -0.583   2.367  0.00  0.00    +0.000 A 
ATOM     30  C   UNL     1       7.348   0.662   1.984  0.00  0.00    +0.000 A 
ATOM     31  C   UNL     1       6.364   0.879   1.040  0.00  0.00    +0.000 A 
ENDBRANCH  25  26
ENDBRANCH  24  25
ENDBRANCH  23  24
ENDBRANCH   5  21
TORSDOF 7
