REMARK  Name = 
REMARK  7 active torsions:
REMARK  status: ('A' for Active; 'I' for Inactive)
REMARK    1  A    between atoms: O_2  and  C_3
REMARK    2  A    between atoms: C_6  and  N_7
REMARK    3  A    between atoms: C_10  and  N_11
REMARK    4  A    between atoms: N_11  and  C_12
REMARK    5  A    between atoms: C_15  and  C_16
REMARK    6  A    between atoms: C_21  and  S_22
REMARK    7  A    between atoms: S_22  and  C_23
REMARK                            x       y       z     vdW  Elec       q    Type
REMARK                         _______ _______ _______ _____ _____    ______ ____
ROOT
ATOM      1  N   UNL     1       1.949  -0.337   0.344  0.00  0.00    +0.000 N 
ATOM      2  C   UNL     1       1.049  -1.201   1.008  0.00  0.00    +0.000 C 
ATOM      3  O   UNL     1       1.312  -2.409   1.341  0.00  0.00    +0.000 OA
ATOM      4  C   UNL     1      -0.185  -0.496   1.239  0.00  0.00    +0.000 C 
ATOM      5  C   UNL     1      -0.110   0.763   0.755  0.00  0.00    +0.000 C 
ATOM      6  C   UNL     1       1.221   0.888   0.188  0.00  0.00    +0.000 C 
ATOM      7  O   UNL     1       1.716   1.905  -0.373  0.00  0.00    +0.000 OA
ENDROOT
BRANCH   1  11
ATOM      8  C   UNL     1       5.878  -1.201  -0.867  0.00  0.00    +0.000 A 
ATOM      9  C   UNL     1       5.591  -0.937   0.460  0.00  0.00    +0.000 A 
ATOM     10  C   UNL     1       4.278  -0.652   0.844  0.00  0.00    +0.000 A 
ATOM     11  C   UNL     1       3.251  -0.625  -0.061  0.00  0.00    +0.000 A 
ATOM     12  C   UNL     1       3.527  -0.886  -1.379  0.00  0.00    +0.000 A 
ATOM     13  C   UNL     1       4.837  -1.171  -1.769  0.00  0.00    +0.000 A 
BRANCH   8  15
ATOM     14  C   UNL     1       7.397  -1.749  -2.653  0.00  0.00    +0.000 C 
ATOM     15  O   UNL     1       7.167  -1.488  -1.285  0.00  0.00    +0.000 OA
ENDBRANCH   8  15
ENDBRANCH   1  11
BRANCH   4  16
ATOM     16  N   UNL     1      -1.340  -1.022   1.883  0.00  0.00    +0.000 NA
BRANCH  16  17
ATOM     17  C   UNL     1      -2.473  -1.461   1.116  0.00  0.00    +0.000 A 
ATOM     18  C   UNL     1      -3.598  -1.967   1.745  0.00  0.00    +0.000 A 
ATOM     19  C   UNL     1      -4.679  -2.386   1.000  0.00  0.00    +0.000 A 
ATOM     20  C   UNL     1      -4.707  -2.328  -0.377  0.00  0.00    +0.000 A 
ATOM     21  C   UNL     1      -3.590  -1.825  -1.010  0.00  0.00    +0.000 A 
ATOM     22  C   UNL     1      -2.500  -1.403  -0.260  0.00  0.00    +0.000 A 
BRANCH  20  23
ATOM     23  C   UNL     1      -5.883  -2.784  -1.169  0.00  0.00    +0.000 C 
ATOM     24  C   UNL     1      -7.067  -1.869  -0.981  0.00  0.00    +0.000 C 
ATOM     25  C   UNL     1      -6.280  -4.195  -0.799  0.00  0.00    +0.000 C 
ENDBRANCH  20  23
ENDBRANCH  16  17
ENDBRANCH   4  16
BRANCH   5  26
ATOM     26  S   UNL     1      -1.460   1.902   0.876  0.00  0.00    +0.000 S 
BRANCH  26  27
ATOM     27  C   UNL     1      -1.085   3.494   0.212  0.00  0.00    +0.000 A 
ATOM     28  C   UNL     1       0.091   3.897  -0.348  0.00  0.00    +0.000 A 
ATOM     29  C   UNL     1       0.320   5.155  -0.845  0.00  0.00    +0.000 A 
ATOM     30  C   UNL     1      -0.674   6.140  -0.810  0.00  0.00    +0.000 A 
ATOM     31  C   UNL     1      -1.871   5.753  -0.247  0.00  0.00    +0.000 A 
ATOM     32  C   UNL     1      -2.083   4.492   0.245  0.00  0.00    +0.000 A 
ENDBRANCH  26  27
ENDBRANCH   5  26
TORSDOF 7
