REMARK  Name = 
REMARK  7 active torsions:
REMARK  status: ('A' for Active; 'I' for Inactive)
REMARK    1  A    between atoms: O_2  and  C_3
REMARK    2  A    between atoms: C_6  and  C_7
REMARK    3  A    between atoms: C_7  and  N_8
REMARK    4  A    between atoms: C_9  and  C_11
REMARK    5  A    between atoms: C_13  and  C_14
REMARK    6  A    between atoms: C_18  and  O_19
REMARK    7  A    between atoms: O_19  and  C_20
REMARK                            x       y       z     vdW  Elec       q    Type
REMARK                         _______ _______ _______ _____ _____    ______ ____
ROOT
ATOM      1  C   UNL     1      -0.327  -1.268  -0.193  0.00  0.00    +0.000 A 
ATOM      2  C   UNL     1       0.900  -0.639  -0.191  0.00  0.00    +0.000 A 
ATOM      3  C   UNL     1       1.962  -1.283   0.451  0.00  0.00    +0.000 A 
ATOM      4  N   UNL     1       1.826  -2.470   1.053  0.00  0.00    +0.000 NA
ATOM      5  C   UNL     1       0.637  -3.102   1.063  0.00  0.00    +0.000 A 
ATOM      6  C   UNL     1       0.495  -4.343   1.692  0.00  0.00    +0.000 A 
ATOM      7  C   UNL     1      -0.718  -4.976   1.697  0.00  0.00    +0.000 A 
ATOM      8  C   UNL     1      -1.775  -4.354   1.068  0.00  0.00    +0.000 A 
ATOM      9  C   UNL     1      -1.652  -3.131   0.444  0.00  0.00    +0.000 A 
ATOM     10  C   UNL     1      -0.419  -2.487   0.439  0.00  0.00    +0.000 A 
ENDROOT
BRANCH   3  11
ATOM     11  C   UNL     1       3.261  -0.612   0.451  0.00  0.00    +0.000 A 
ATOM     12  C   UNL     1       4.352  -1.190   1.067  0.00  0.00    +0.000 A 
ATOM     13  C   UNL     1       5.596  -0.603   1.097  0.00  0.00    +0.000 A 
ATOM     14  C   UNL     1       5.770   0.615   0.488  0.00  0.00    +0.000 A 
ATOM     15  C   UNL     1       4.702   1.210  -0.131  0.00  0.00    +0.000 A 
ATOM     16  C   UNL     1       3.458   0.605  -0.151  0.00  0.00    +0.000 A 
BRANCH  15  17
ATOM     17  O   UNL     1       4.854   2.430  -0.747  0.00  0.00    +0.000 OA
BRANCH  17  18
ATOM     18  C   UNL     1       6.059   3.147  -0.798  0.00  0.00    +0.000 C 
ATOM     19  C   UNL     1       5.850   4.448  -1.559  0.00  0.00    +0.000 C 
ATOM     20  C   UNL     1       6.506   3.530   0.614  0.00  0.00    +0.000 C 
ENDBRANCH  17  18
ENDBRANCH  15  17
ENDBRANCH   3  11
BRANCH   1  22
ATOM     21  N   UNL     1      -2.759  -1.249  -0.869  0.00  0.00    +0.000 NA
ATOM     22  C   UNL     1      -1.474  -0.638  -0.849  0.00  0.00    +0.000 C 
ATOM     23  O   UNL     1      -1.381   0.473  -1.428  0.00  0.00    +0.000 OA
BRANCH  21  24
ATOM     24  C   UNL     1      -3.902  -0.644  -1.511  0.00  0.00    +0.000 C 
BRANCH  24  28
ATOM     25  C   UNL     1      -5.592   2.556   0.711  0.00  0.00    +0.000 A 
ATOM     26  C   UNL     1      -4.497   1.851   1.163  0.00  0.00    +0.000 A 
ATOM     27  C   UNL     1      -3.938   0.814   0.456  0.00  0.00    +0.000 A 
ATOM     28  C   UNL     1      -4.484   0.460  -0.742  0.00  0.00    +0.000 A 
ATOM     29  C   UNL     1      -5.568   1.138  -1.217  0.00  0.00    +0.000 A 
ATOM     30  C   UNL     1      -6.142   2.196  -0.501  0.00  0.00    +0.000 A 
BRANCH  25  32
ATOM     31  C   UNL     1      -5.500   3.923   2.719  0.00  0.00    +0.000 C 
ATOM     32  O   UNL     1      -6.101   3.593   1.482  0.00  0.00    +0.000 OA
ENDBRANCH  25  32
ENDBRANCH  24  28
ENDBRANCH  21  24
ENDBRANCH   1  22
TORSDOF 7
