REMARK  Name = 
REMARK  7 active torsions:
REMARK  status: ('A' for Active; 'I' for Inactive)
REMARK    1  A    between atoms: C_2  and  C_3
REMARK    2  A    between atoms: C_3  and  C_4
REMARK    3  A    between atoms: C_4  and  C_5
REMARK    4  A    between atoms: C_8  and  N_9
REMARK    5  A    between atoms: C_10  and  C_12
REMARK    6  A    between atoms: C_13  and  N_14
REMARK    7  A    between atoms: C_15  and  C_17
REMARK                            x       y       z     vdW  Elec       q    Type
REMARK                         _______ _______ _______ _____ _____    ______ ____
ROOT
ATOM      1  C   UNL     1      -1.353  -1.868   0.027  0.00  0.00    +0.000 A 
ATOM      2  C   UNL     1      -2.545  -1.244  -0.132  0.00  0.00    +0.000 A 
ATOM      3  S   UNL     1      -3.646  -2.636  -0.179  0.00  0.00    +0.000 S 
ATOM      4  C   UNL     1      -2.534  -3.878  -0.006  0.00  0.00    +0.000 A 
ATOM      5  C   UNL     1      -2.770  -5.381   0.038  0.00  0.00    +0.000 C 
ATOM      6  C   UNL     1      -1.345  -3.233   0.089  0.00  0.00    +0.000 A 
ATOM      7  C   UNL     1      -0.078  -4.082   0.255  0.00  0.00    +0.000 C 
ENDROOT
BRANCH   1   9
ATOM      8  N   UNL     1       1.182  -1.770   0.348  0.00  0.00    +0.000 NA
ATOM      9  C   UNL     1      -0.091  -1.124   0.309  0.00  0.00    +0.000 C 
ATOM     10  O   UNL     1      -0.101   0.079   0.517  0.00  0.00    +0.000 OA
BRANCH   8  14
ATOM     11  C   UNL     1       4.720   0.368   1.140  0.00  0.00    +0.000 A 
ATOM     12  C   UNL     1       4.754  -0.991   0.899  0.00  0.00    +0.000 A 
ATOM     13  C   UNL     1       3.571  -1.689   0.637  0.00  0.00    +0.000 A 
ATOM     14  C   UNL     1       2.377  -1.009   0.623  0.00  0.00    +0.000 A 
ATOM     15  C   UNL     1       2.309   0.337   0.857  0.00  0.00    +0.000 A 
ATOM     16  C   UNL     1       3.499   0.999   1.114  0.00  0.00    +0.000 A 
BRANCH  11  17
ATOM     17  C   UNL     1       5.986   1.104   1.418  0.00  0.00    +0.000 C 
BRANCH  17  18
ATOM     18  C   UNL     1       6.588   1.611   0.128  0.00  0.00    +0.000 C 
BRANCH  18  20
ATOM     19  C   UNL     1       7.492   1.069  -2.064  0.00  0.00    +0.000 C 
ATOM     20  C   UNL     1       6.890   0.463  -0.793  0.00  0.00    +0.000 C 
ENDBRANCH  18  20
ENDBRANCH  17  18
ENDBRANCH  11  17
ENDBRANCH   8  14
ENDBRANCH   1   9
BRANCH   2  21
ATOM     21  N   UNL     1      -3.025   0.038  -0.398  0.00  0.00    +0.000 NA
ATOM     22  C   UNL     1      -2.667   1.246  -0.848  0.00  0.00    +0.000 C 
ATOM     23  O   UNL     1      -1.499   1.457  -1.238  0.00  0.00    +0.000 OA
BRANCH  22  24
ATOM     24  C   UNL     1      -3.665   2.337  -0.883  0.00  0.00    +0.000 A 
ATOM     25  C   UNL     1      -4.952   2.123  -0.464  0.00  0.00    +0.000 A 
ATOM     26  C   UNL     1      -5.908   3.114  -0.482  0.00  0.00    +0.000 A 
ATOM     27  C   UNL     1      -5.568   4.367  -0.935  0.00  0.00    +0.000 A 
ATOM     28  C   UNL     1      -4.282   4.603  -1.359  0.00  0.00    +0.000 A 
ATOM     29  C   UNL     1      -3.338   3.591  -1.332  0.00  0.00    +0.000 A 
ENDBRANCH  22  24
ENDBRANCH   2  21
TORSDOF 7
