REMARK  Name = 
REMARK  7 active torsions:
REMARK  status: ('A' for Active; 'I' for Inactive)
REMARK    1  A    between atoms: C_5  and  S_6
REMARK    2  A    between atoms: S_6  and  C_7
REMARK    3  A    between atoms: C_8  and  N_9
REMARK    4  A    between atoms: N_9  and  C_10
REMARK    5  A    between atoms: N_20  and  C_21
REMARK    6  A    between atoms: C_21  and  C_22
REMARK    7  A    between atoms: C_22  and  C_23
REMARK                            x       y       z     vdW  Elec       q    Type
REMARK                         _______ _______ _______ _____ _____    ______ ____
ROOT
ATOM      1  C   UNL     1      -0.702  -0.027  -0.794  0.00  0.00    +0.000 C 
ATOM      2  C   UNL     1      -0.472  -1.299  -1.054  0.00  0.00    +0.000 C 
ATOM      3  C   UNL     1       0.942  -1.597  -1.065  0.00  0.00    +0.000 C 
ATOM      4  O   UNL     1       1.519  -2.715  -1.279  0.00  0.00    +0.000 OA
ATOM      5  N   UNL     1       1.614  -0.386  -0.785  0.00  0.00    +0.000 N 
ATOM      6  C   UNL     1       0.611   0.596  -0.615  0.00  0.00    +0.000 C 
ATOM      7  O   UNL     1       0.749   1.813  -0.353  0.00  0.00    +0.000 OA
ENDROOT
BRANCH   1   8
ATOM      8  S   UNL     1      -2.314   0.715  -0.697  0.00  0.00    +0.000 S 
BRANCH   8  13
ATOM      9  C   UNL     1      -1.933   6.668   0.570  0.00  0.00    +0.000 C 
ATOM     10  C   UNL     1      -2.026   5.214   0.250  0.00  0.00    +0.000 A 
ATOM     11  C   UNL     1      -2.029   4.755  -1.050  0.00  0.00    +0.000 A 
ATOM     12  C   UNL     1      -2.115   3.404  -1.326  0.00  0.00    +0.000 A 
ATOM     13  C   UNL     1      -2.203   2.456  -0.326  0.00  0.00    +0.000 A 
ATOM     14  C   UNL     1      -2.199   2.929   0.978  0.00  0.00    +0.000 A 
ATOM     15  C   UNL     1      -2.113   4.277   1.258  0.00  0.00    +0.000 A 
ENDBRANCH   8  13
ENDBRANCH   1   8
BRANCH   2  16
ATOM     16  N   UNL     1      -1.487  -2.271  -1.296  0.00  0.00    +0.000 NA
BRANCH  16  17
ATOM     17  C   UNL     1      -2.538  -2.508  -0.380  0.00  0.00    +0.000 A 
ATOM     18  C   UNL     1      -2.675  -1.830   0.813  0.00  0.00    +0.000 A 
ATOM     19  C   UNL     1      -3.714  -2.086   1.685  0.00  0.00    +0.000 A 
ATOM     20  C   UNL     1      -4.664  -3.056   1.367  0.00  0.00    +0.000 A 
ATOM     21  C   UNL     1      -5.801  -3.352   2.298  0.00  0.00    +0.000 C 
ATOM     22  C   UNL     1      -4.503  -3.719   0.168  0.00  0.00    +0.000 A 
ATOM     23  C   UNL     1      -3.474  -3.470  -0.703  0.00  0.00    +0.000 A 
ATOM     24  C   UNL     1      -3.408  -4.251  -1.965  0.00  0.00    +0.000 C 
ENDBRANCH  16  17
ENDBRANCH   2  16
BRANCH   5  25
ATOM     25  C   UNL     1       3.033  -0.194  -0.692  0.00  0.00    +0.000 C 
BRANCH  25  26
ATOM     26  C   UNL     1       3.553  -0.405   0.714  0.00  0.00    +0.000 C 
BRANCH  26  27
ATOM     27  C   UNL     1       5.035  -0.178   0.683  0.00  0.00    +0.000 A 
ATOM     28  C   UNL     1       5.910  -1.226   0.431  0.00  0.00    +0.000 A 
ATOM     29  C   UNL     1       7.267  -0.980   0.409  0.00  0.00    +0.000 A 
ATOM     30  C   UNL     1       7.737   0.300   0.638  0.00  0.00    +0.000 A 
ATOM     31  C   UNL     1       6.872   1.341   0.888  0.00  0.00    +0.000 A 
ATOM     32  C   UNL     1       5.528   1.083   0.907  0.00  0.00    +0.000 A 
ENDBRANCH  26  27
ENDBRANCH  25  26
ENDBRANCH   5  25
TORSDOF 7
