REMARK  Name = 
REMARK  7 active torsions:
REMARK  status: ('A' for Active; 'I' for Inactive)
REMARK    1  A    between atoms: O_2  and  C_3
REMARK    2  A    between atoms: C_7  and  C_8
REMARK    3  A    between atoms: N_9  and  N_10
REMARK    4  A    between atoms: C_11  and  C_13
REMARK    5  A    between atoms: C_13  and  S_14
REMARK    6  A    between atoms: S_14  and  C_15
REMARK    7  A    between atoms: C_28  and  O_29
REMARK                            x       y       z     vdW  Elec       q    Type
REMARK                         _______ _______ _______ _____ _____    ______ ____
ROOT
ATOM      1  N   UNL     1       1.162  -0.592   1.174  0.00  0.00    +0.000 NA
ATOM      2  C   UNL     1      -0.053   0.179   1.222  0.00  0.00    +0.000 C 
ATOM      3  O   UNL     1      -0.216   1.058   0.345  0.00  0.00    +0.000 OA
ENDROOT
BRANCH   1   5
ATOM      4  C   UNL     1       3.385  -0.279   0.448  0.00  0.00    +0.000 C 
ATOM      5  N   UNL     1       2.133  -0.378   0.190  0.00  0.00    +0.000 NA
BRANCH   4  10
ATOM      6  C   UNL     1       6.645   0.253  -1.254  0.00  0.00    +0.000 A 
ATOM      7  C   UNL     1       6.201   0.358  -2.551  0.00  0.00    +0.000 A 
ATOM      8  C   UNL     1       4.876   0.264  -2.922  0.00  0.00    +0.000 A 
ATOM      9  C   UNL     1       3.945   0.053  -1.928  0.00  0.00    +0.000 A 
ATOM     10  C   UNL     1       4.365  -0.056  -0.610  0.00  0.00    +0.000 A 
ATOM     11  C   UNL     1       5.703   0.042  -0.267  0.00  0.00    +0.000 A 
BRANCH   6  13
ATOM     12  C   UNL     1       8.921   0.570  -1.960  0.00  0.00    +0.000 C 
ATOM     13  O   UNL     1       7.986   0.352  -0.908  0.00  0.00    +0.000 OA
ENDBRANCH   6  13
BRANCH  11  14
ATOM     14  O   UNL     1       6.084  -0.072   1.060  0.00  0.00    +0.000 OA
ATOM     15  C   UNL     1       6.421  -1.289   1.685  0.00  0.00    +0.000 C 
ENDBRANCH  11  14
ENDBRANCH   4  10
ENDBRANCH   1   5
BRANCH   2  16
ATOM     16  C   UNL     1      -1.062  -0.091   2.299  0.00  0.00    +0.000 C 
BRANCH  16  17
ATOM     17  S   UNL     1      -2.448   1.049   2.057  0.00  0.00    +0.000 S 
BRANCH  17  18
ATOM     18  C   UNL     1      -3.268   0.634   0.519  0.00  0.00    +0.000 C 
ATOM     19  C   UNL     1      -4.419   1.478   0.191  0.00  0.00    +0.000 A 
ATOM     20  C   UNL     1      -4.596   2.862   0.068  0.00  0.00    +0.000 A 
ATOM     21  C   UNL     1      -5.822   3.403  -0.260  0.00  0.00    +0.000 A 
ATOM     22  C   UNL     1      -6.906   2.579  -0.474  0.00  0.00    +0.000 A 
ATOM     23  C   UNL     1      -6.710   1.214  -0.347  0.00  0.00    +0.000 A 
ATOM     24  C   UNL     1      -5.491   0.657  -0.020  0.00  0.00    +0.000 A 
ATOM     25  C   UNL     1      -5.088  -0.745   0.158  0.00  0.00    +0.000 A 
ATOM     26  C   UNL     1      -5.847  -1.921   0.042  0.00  0.00    +0.000 A 
ATOM     27  C   UNL     1      -5.186  -3.107   0.269  0.00  0.00    +0.000 A 
ATOM     28  C   UNL     1      -3.846  -3.142   0.594  0.00  0.00    +0.000 A 
ATOM     29  C   UNL     1      -3.113  -1.986   0.704  0.00  0.00    +0.000 A 
ATOM     30  C   UNL     1      -3.758  -0.757   0.479  0.00  0.00    +0.000 A 
ENDBRANCH  17  18
ENDBRANCH  16  17
ENDBRANCH   2  16
TORSDOF 7
