REMARK  Name = 
REMARK  9 active torsions:
REMARK  status: ('A' for Active; 'I' for Inactive)
REMARK    1  A    between atoms: C_2  and  O_4
REMARK    2  A    between atoms: O_4  and  C_5
REMARK    3  A    between atoms: C_8  and  C_9
REMARK    4  A    between atoms: C_9  and  C_10
REMARK    5  A    between atoms: C_9  and  C_21
REMARK    6  A    between atoms: C_10  and  C_11
REMARK    7  A    between atoms: C_11  and  N_12
REMARK    8  A    between atoms: N_12  and  C_13
REMARK    9  A    between atoms: C_13  and  C_14
REMARK                            x       y       z     vdW  Elec       q    Type
REMARK                         _______ _______ _______ _____ _____    ______ ____
ROOT
ATOM      1  C   UNL     1       0.602   1.356  -1.166  0.00  0.00    +0.000 C 
ENDROOT
BRANCH   1   5
ATOM      2  C   UNL     1       3.809  -1.203  -0.079  0.00  0.00    +0.000 A 
ATOM      3  C   UNL     1       3.963  -0.283  -1.077  0.00  0.00    +0.000 A 
ATOM      4  C   UNL     1       2.873   0.557  -1.381  0.00  0.00    +0.000 A 
ATOM      5  C   UNL     1       1.706   0.427  -0.676  0.00  0.00    +0.000 A 
ATOM      6  C   UNL     1       1.611  -0.469   0.271  0.00  0.00    +0.000 A 
ATOM      7  C   UNL     1       2.621  -1.330   0.637  0.00  0.00    +0.000 A 
BRANCH   2   8
ATOM      8  O   UNL     1       4.870  -2.071   0.296  0.00  0.00    +0.000 OA
BRANCH   8  10
ATOM      9  C   UNL     1       4.463  -2.969   2.522  0.00  0.00    +0.000 C 
ATOM     10  C   UNL     1       4.474  -3.269   1.009  0.00  0.00    +0.000 C 
ATOM     11  C   UNL     1       5.859  -4.107   0.952  0.00  0.00    +0.000 C 
ENDBRANCH   8  10
ENDBRANCH   2   8
ENDBRANCH   1   5
BRANCH   1  12
ATOM     12  C   UNL     1       0.964   2.800  -0.764  0.00  0.00    +0.000 A 
ATOM     13  C   UNL     1       1.227   3.596  -1.868  0.00  0.00    +0.000 A 
ATOM     14  C   UNL     1       1.355   5.005  -1.716  0.00  0.00    +0.000 A 
ATOM     15  C   UNL     1       1.206   5.467  -0.455  0.00  0.00    +0.000 A 
ATOM     16  C   UNL     1       0.999   4.739   0.619  0.00  0.00    +0.000 A 
ATOM     17  C   UNL     1       0.862   3.337   0.473  0.00  0.00    +0.000 A 
ENDBRANCH   1  12
BRANCH   1  18
ATOM     18  C   UNL     1      -0.554   1.139  -0.041  0.00  0.00    +0.000 C 
BRANCH  18  19
ATOM     19  C   UNL     1      -1.005  -0.076  -0.016  0.00  0.00    +0.000 C 
BRANCH  19  20
ATOM     20  N   UNL     1      -1.431  -1.280   0.015  0.00  0.00    +0.000 NA
BRANCH  20  21
ATOM     21  C   UNL     1      -2.490  -1.474  -0.938  0.00  0.00    +0.000 C 
BRANCH  21  22
ATOM     22  C   UNL     1      -3.810  -1.407  -0.248  0.00  0.00    +0.000 A 
ATOM     23  C   UNL     1      -3.971  -1.461   1.102  0.00  0.00    +0.000 A 
ATOM     24  C   UNL     1      -5.205  -1.469   1.688  0.00  0.00    +0.000 A 
ATOM     25  C   UNL     1      -6.321  -1.412   0.851  0.00  0.00    +0.000 A 
ATOM     26  O   UNL     1      -7.563  -1.444   1.518  0.00  0.00    +0.000 OA
ATOM     27  C   UNL     1      -6.192  -1.349  -0.460  0.00  0.00    +0.000 A 
ATOM     28  C   UNL     1      -4.921  -1.349  -1.069  0.00  0.00    +0.000 A 
ENDBRANCH  21  22
ENDBRANCH  20  21
ENDBRANCH  19  20
ENDBRANCH  18  19
ENDBRANCH   1  18
TORSDOF 9
