REMARK  Name = 
REMARK  8 active torsions:
REMARK  status: ('A' for Active; 'I' for Inactive)
REMARK    1  A    between atoms: C_2  and  O_3
REMARK    2  A    between atoms: O_3  and  C_4
REMARK    3  A    between atoms: C_7  and  N_8
REMARK    4  A    between atoms: N_8  and  C_9
REMARK    5  A    between atoms: C_10  and  S_11
REMARK    6  A    between atoms: S_11  and  C_12
REMARK    7  A    between atoms: N_20  and  C_21
REMARK    8  A    between atoms: C_21  and  C_22
REMARK                            x       y       z     vdW  Elec       q    Type
REMARK                         _______ _______ _______ _____ _____    ______ ____
ROOT
ATOM      1  C   UNL     1      -0.072   0.061  -1.919  0.00  0.00    +0.000 C 
ATOM      2  C   UNL     1      -0.650  -0.794  -1.090  0.00  0.00    +0.000 C 
ATOM      3  C   UNL     1      -1.897  -0.245  -0.610  0.00  0.00    +0.000 C 
ATOM      4  O   UNL     1      -2.702  -0.802   0.198  0.00  0.00    +0.000 OA
ATOM      5  N   UNL     1      -2.055   1.023  -1.202  0.00  0.00    +0.000 N 
ATOM      6  C   UNL     1      -0.926   1.240  -2.028  0.00  0.00    +0.000 C 
ATOM      7  O   UNL     1      -0.699   2.277  -2.735  0.00  0.00    +0.000 OA
ENDROOT
BRANCH   1   8
ATOM      8  N   UNL     1       1.163  -0.102  -2.603  0.00  0.00    +0.000 NA
BRANCH   8  12
ATOM      9  C   UNL     1       4.674   0.083  -0.351  0.00  0.00    +0.000 A 
ATOM     10  C   UNL     1       3.466   0.239   0.296  0.00  0.00    +0.000 A 
ATOM     11  C   UNL     1       2.305   0.179  -0.442  0.00  0.00    +0.000 A 
ATOM     12  C   UNL     1       2.354  -0.033  -1.799  0.00  0.00    +0.000 A 
ATOM     13  C   UNL     1       3.563  -0.189  -2.448  0.00  0.00    +0.000 A 
ATOM     14  C   UNL     1       4.712  -0.130  -1.720  0.00  0.00    +0.000 A 
BRANCH   9  15
ATOM     15  O   UNL     1       5.861   0.139   0.363  0.00  0.00    +0.000 OA
BRANCH  15  17
ATOM     16  C   UNL     1       5.054  -0.781   2.376  0.00  0.00    +0.000 C 
ATOM     17  C   UNL     1       5.840   0.355   1.758  0.00  0.00    +0.000 C 
ENDBRANCH  15  17
ENDBRANCH   9  15
ENDBRANCH   8  12
ENDBRANCH   1   8
BRANCH   2  18
ATOM     18  S   UNL     1       0.080  -2.372  -0.687  0.00  0.00    +0.000 S 
BRANCH  18  19
ATOM     19  C   UNL     1      -0.939  -3.294   0.454  0.00  0.00    +0.000 A 
ATOM     20  C   UNL     1      -1.916  -4.159   0.002  0.00  0.00    +0.000 A 
ATOM     21  C   UNL     1      -2.698  -4.866   0.912  0.00  0.00    +0.000 A 
ATOM     22  C   UNL     1      -2.518  -4.722   2.259  0.00  0.00    +0.000 A 
ATOM     23  C   UNL     1      -1.554  -3.869   2.736  0.00  0.00    +0.000 A 
ATOM     24  C   UNL     1      -0.788  -3.176   1.821  0.00  0.00    +0.000 A 
ENDBRANCH  18  19
ENDBRANCH   2  18
BRANCH   5  25
ATOM     25  C   UNL     1      -3.172   1.921  -0.993  0.00  0.00    +0.000 C 
BRANCH  25  26
ATOM     26  C   UNL     1      -2.940   2.847   0.148  0.00  0.00    +0.000 A 
ATOM     27  C   UNL     1      -3.344   2.446   1.394  0.00  0.00    +0.000 A 
ATOM     28  C   UNL     1      -3.154   3.258   2.481  0.00  0.00    +0.000 A 
ATOM     29  C   UNL     1      -2.558   4.482   2.327  0.00  0.00    +0.000 A 
ATOM     30  C   UNL     1      -2.144   4.909   1.091  0.00  0.00    +0.000 A 
ATOM     31  C   UNL     1      -2.346   4.072   0.011  0.00  0.00    +0.000 A 
ENDBRANCH  25  26
ENDBRANCH   5  25
TORSDOF 8
