REMARK  Name = 
REMARK  6 active torsions:
REMARK  status: ('A' for Active; 'I' for Inactive)
REMARK    1  A    between atoms: C_2  and  C_5
REMARK    2  A    between atoms: C_7  and  C_8
REMARK    3  A    between atoms: N_10  and  N_11
REMARK    4  A    between atoms: C_12  and  C_13
REMARK    5  A    between atoms: N_15  and  C_16
REMARK    6  A    between atoms: C_16  and  C_17
REMARK                            x       y       z     vdW  Elec       q    Type
REMARK                         _______ _______ _______ _____ _____    ______ ____
ROOT
ATOM      1  C   UNL     1      -1.352   0.570  -0.534  0.00  0.00    +0.000 A 
ATOM      2  C   UNL     1      -2.340   0.607  -1.454  0.00  0.00    +0.000 A 
ATOM      3  N   UNL     1      -3.501   0.996  -0.834  0.00  0.00    +0.000 N 
ATOM      4  C   UNL     1      -3.220   1.185   0.435  0.00  0.00    +0.000 A 
ATOM      5  C   UNL     1      -4.060   1.539   1.505  0.00  0.00    +0.000 A 
ATOM      6  C   UNL     1      -3.535   1.633   2.782  0.00  0.00    +0.000 A 
ATOM      7  C   UNL     1      -2.197   1.388   3.041  0.00  0.00    +0.000 A 
ATOM      8  C   UNL     1      -1.380   1.037   1.973  0.00  0.00    +0.000 A 
ATOM      9  C   UNL     1      -1.928   0.956   0.733  0.00  0.00    +0.000 A 
ENDROOT
BRANCH   1  11
ATOM     10  N   UNL     1       0.861  -0.074  -1.512  0.00  0.00    +0.000 NA
ATOM     11  C   UNL     1       0.022   0.287  -0.647  0.00  0.00    +0.000 C 
BRANCH  10  14
ATOM     12  C   UNL     1       3.130  -1.118  -1.533  0.00  0.00    +0.000 C 
ATOM     13  O   UNL     1       2.928  -1.936  -2.395  0.00  0.00    +0.000 OA
ATOM     14  N   UNL     1       2.150  -0.218  -1.130  0.00  0.00    +0.000 NA
BRANCH  12  17
ATOM     15  C   UNL     1       6.460  -0.576   0.039  0.00  0.00    +0.000 A 
ATOM     16  C   UNL     1       5.587  -0.325  -1.024  0.00  0.00    +0.000 A 
ATOM     17  C   UNL     1       4.447  -0.985  -0.812  0.00  0.00    +0.000 A 
ATOM     18  N   UNL     1       4.585  -1.650   0.370  0.00  0.00    +0.000 NA
ATOM     19  N   UNL     1       5.795  -1.393   0.864  0.00  0.00    +0.000 NA
BRANCH  15  21
ATOM     20  C   UNL     1       7.769   1.038   1.349  0.00  0.00    +0.000 C 
ATOM     21  C   UNL     1       7.860  -0.059   0.242  0.00  0.00    +0.000 C 
ATOM     22  C   UNL     1       8.718  -1.139   0.834  0.00  0.00    +0.000 C 
ATOM     23  C   UNL     1       8.440   0.584  -0.977  0.00  0.00    +0.000 C 
ENDBRANCH  15  21
ENDBRANCH  12  17
ENDBRANCH  10  14
ENDBRANCH   1  11
BRANCH   3  24
ATOM     24  C   UNL     1      -4.764   1.263  -1.532  0.00  0.00    +0.000 C 
BRANCH  24  25
ATOM     25  C   UNL     1      -5.759   0.245  -1.091  0.00  0.00    +0.000 A 
ATOM     26  C   UNL     1      -5.453  -1.047  -0.777  0.00  0.00    +0.000 A 
ATOM     27  C   UNL     1      -6.426  -1.922  -0.342  0.00  0.00    +0.000 A 
ATOM     28  C   UNL     1      -7.722  -1.440  -0.231  0.00  0.00    +0.000 A 
ATOM     29  C   UNL     1      -8.037  -0.145  -0.546  0.00  0.00    +0.000 A 
ATOM     30  C   UNL     1      -7.080   0.699  -0.972  0.00  0.00    +0.000 A 
ENDBRANCH  24  25
ENDBRANCH   3  24
TORSDOF 6
