REMARK  Name = 
REMARK  7 active torsions:
REMARK  status: ('A' for Active; 'I' for Inactive)
REMARK    1  A    between atoms: C_2  and  O_3
REMARK    2  A    between atoms: O_3  and  C_4
REMARK    3  A    between atoms: C_5  and  O_6
REMARK    4  A    between atoms: C_11  and  C_12
REMARK    5  A    between atoms: C_22  and  O_23
REMARK    6  A    between atoms: O_23  and  C_24
REMARK    7  A    between atoms: C_24  and  C_25
REMARK                            x       y       z     vdW  Elec       q    Type
REMARK                         _______ _______ _______ _____ _____    ______ ____
ROOT
ATOM      1  C   UNL     1      -2.581  -0.380  -1.401  0.00  0.00    +0.000 C 
ATOM      2  N   UNL     1      -2.744  -1.969  -1.509  0.00  0.00    +0.000 NA
ATOM      3  C   UNL     1      -2.011  -2.304  -2.716  0.00  0.00    +0.000 C 
ATOM      4  C   UNL     1      -0.521  -2.120  -2.522  0.00  0.00    +0.000 C 
ATOM      5  C   UNL     1      -0.232  -1.243  -1.363  0.00  0.00    +0.000 A 
ATOM      6  C   UNL     1      -1.129  -0.413  -0.790  0.00  0.00    +0.000 A 
ATOM      7  N   UNL     1      -0.573   0.227   0.210  0.00  0.00    +0.000 NA
ATOM      8  C   UNL     1       0.716  -0.171   0.319  0.00  0.00    +0.000 A 
ATOM      9  C   UNL     1       1.726   0.167   1.169  0.00  0.00    +0.000 A 
ATOM     10  C   UNL     1       2.958  -0.434   1.016  0.00  0.00    +0.000 A 
ATOM     11  C   UNL     1       3.223  -1.359   0.049  0.00  0.00    +0.000 A 
ATOM     12  C   UNL     1       2.188  -1.698  -0.813  0.00  0.00    +0.000 A 
ATOM     13  C   UNL     1       0.969  -1.105  -0.665  0.00  0.00    +0.000 A 
ENDROOT
BRANCH   1  19
ATOM     14  C   UNL     1      -4.393   0.682   0.016  0.00  0.00    +0.000 A 
ATOM     15  C   UNL     1      -5.138   0.822   1.192  0.00  0.00    +0.000 A 
ATOM     16  C   UNL     1      -4.822  -0.009   2.236  0.00  0.00    +0.000 A 
ATOM     17  C   UNL     1      -3.829  -0.955   2.185  0.00  0.00    +0.000 A 
ATOM     18  C   UNL     1      -3.118  -1.063   1.013  0.00  0.00    +0.000 A 
ATOM     19  C   UNL     1      -3.400  -0.273  -0.016  0.00  0.00    +0.000 A 
BRANCH  15  20
ATOM     20  O   UNL     1      -6.144   1.739   1.322  0.00  0.00    +0.000 OA
ATOM     21  C   UNL     1      -6.919   1.937   2.459  0.00  0.00    +0.000 C 
ENDBRANCH  15  20
BRANCH  14  22
ATOM     22  O   UNL     1      -4.704   1.515  -1.041  0.00  0.00    +0.000 OA
BRANCH  22  24
ATOM     23  C   UNL     1      -2.577   2.668  -1.344  0.00  0.00    +0.000 C 
ATOM     24  C   UNL     1      -4.077   2.776  -1.196  0.00  0.00    +0.000 C 
ENDBRANCH  22  24
ENDBRANCH  14  22
ENDBRANCH   1  19
BRANCH  11  25
ATOM     25  O   UNL     1       4.435  -1.978  -0.132  0.00  0.00    +0.000 OA
BRANCH  25  26
ATOM     26  C   UNL     1       5.530  -1.697   0.686  0.00  0.00    +0.000 C 
BRANCH  26  27
ATOM     27  C   UNL     1       5.869  -0.256   0.564  0.00  0.00    +0.000 A 
ATOM     28  C   UNL     1       6.812   0.335   1.398  0.00  0.00    +0.000 A 
ATOM     29  C   UNL     1       7.129   1.667   1.282  0.00  0.00    +0.000 A 
ATOM     30  C   UNL     1       6.509   2.466   0.319  0.00  0.00    +0.000 A 
ATOM     31  C   UNL     1       5.581   1.878  -0.500  0.00  0.00    +0.000 A 
ATOM     32  C   UNL     1       5.265   0.547  -0.384  0.00  0.00    +0.000 A 
ENDBRANCH  26  27
ENDBRANCH  25  26
ENDBRANCH  11  25
TORSDOF 7
