REMARK  Name = 
REMARK  7 active torsions:
REMARK  status: ('A' for Active; 'I' for Inactive)
REMARK    1  A    between atoms: C_2  and  C_3
REMARK    2  A    between atoms: C_3  and  C_4
REMARK    3  A    between atoms: C_4  and  O_5
REMARK    4  A    between atoms: O_5  and  C_6
REMARK    5  A    between atoms: C_10  and  C_11
REMARK    6  A    between atoms: N_13  and  C_14
REMARK    7  A    between atoms: C_16  and  C_17
REMARK                            x       y       z     vdW  Elec       q    Type
REMARK                         _______ _______ _______ _____ _____    ______ ____
ROOT
ATOM      1  C   UNL     1      -0.846   2.292   0.086  0.00  0.00    +0.000 A 
ATOM      2  C   UNL     1      -1.661   1.156   0.165  0.00  0.00    +0.000 A 
ATOM      3  C   UNL     1      -3.026   1.316   0.265  0.00  0.00    +0.000 A 
ATOM      4  C   UNL     1      -3.537   2.576   0.282  0.00  0.00    +0.000 A 
ATOM      5  C   UNL     1      -2.732   3.713   0.204  0.00  0.00    +0.000 A 
ATOM      6  C   UNL     1      -1.371   3.567   0.105  0.00  0.00    +0.000 A 
ATOM      7  C   UNL     1      -0.434   4.725   0.016  0.00  0.00    +0.000 C 
ENDROOT
BRANCH   3   8
ATOM      8  C   UNL     1      -3.865   0.111   0.346  0.00  0.00    +0.000 A 
ATOM      9  N   UNL     1      -5.159  -0.023   0.445  0.00  0.00    +0.000 NA
ATOM     10  C   UNL     1      -5.711  -1.197   0.505  0.00  0.00    +0.000 A 
ATOM     11  C   UNL     1      -7.081  -1.496   0.613  0.00  0.00    +0.000 A 
ATOM     12  C   UNL     1      -7.557  -2.759   0.668  0.00  0.00    +0.000 A 
ATOM     13  C   UNL     1      -6.731  -3.846   0.624  0.00  0.00    +0.000 A 
ATOM     14  C   UNL     1      -5.378  -3.599   0.519  0.00  0.00    +0.000 A 
ATOM     15  C   UNL     1      -4.882  -2.288   0.461  0.00  0.00    +0.000 A 
ATOM     16  S   UNL     1      -3.347  -1.540   0.334  0.00  0.00    +0.000 S 
ENDBRANCH   3   8
BRANCH   1  19
ATOM     17  C   UNL     1       1.206   0.885  -0.045  0.00  0.00    +0.000 C 
ATOM     18  O   UNL     1       0.468  -0.145   0.027  0.00  0.00    +0.000 OA
ATOM     19  N   UNL     1       0.574   2.136  -0.018  0.00  0.00    +0.000 NA
BRANCH  17  24
ATOM     20  C   UNL     1       4.583  -0.742  -0.271  0.00  0.00    +0.000 A 
ATOM     21  C   UNL     1       5.389   0.370  -0.349  0.00  0.00    +0.000 A 
ATOM     22  C   UNL     1       4.862   1.631  -0.329  0.00  0.00    +0.000 A 
ATOM     23  C   UNL     1       3.492   1.781  -0.230  0.00  0.00    +0.000 A 
ATOM     24  C   UNL     1       2.645   0.696  -0.149  0.00  0.00    +0.000 A 
ATOM     25  C   UNL     1       3.224  -0.552  -0.173  0.00  0.00    +0.000 A 
BRANCH  20  26
ATOM     26  O   UNL     1       5.142  -2.019  -0.292  0.00  0.00    +0.000 OA
BRANCH  26  27
ATOM     27  C   UNL     1       6.525  -2.187  -0.393  0.00  0.00    +0.000 C 
BRANCH  27  28
ATOM     28  C   UNL     1       7.295  -1.554   0.741  0.00  0.00    +0.000 C 
BRANCH  28  30
ATOM     29  C   UNL     1       9.147  -1.197  -0.811  0.00  0.00    +0.000 C 
ATOM     30  C   UNL     1       8.766  -1.813   0.501  0.00  0.00    +0.000 C 
ENDBRANCH  28  30
ENDBRANCH  27  28
ENDBRANCH  26  27
ENDBRANCH  20  26
ENDBRANCH  17  24
ENDBRANCH   1  19
TORSDOF 7
