REMARK  Name = 
REMARK  6 active torsions:
REMARK  status: ('A' for Active; 'I' for Inactive)
REMARK    1  A    between atoms: O_2  and  C_3
REMARK    2  A    between atoms: C_6  and  C_7
REMARK    3  A    between atoms: C_17  and  O_18
REMARK    4  A    between atoms: O_18  and  C_19
REMARK    5  A    between atoms: C_19  and  C_20
REMARK    6  A    between atoms: C_29  and  C_30
REMARK                            x       y       z     vdW  Elec       q    Type
REMARK                         _______ _______ _______ _____ _____    ______ ____
ROOT
ATOM      1  C   UNL     1      -2.252   2.203  -0.257  0.00  0.00    +0.000 C 
ATOM      2  N   UNL     1      -2.547   2.189  -1.781  0.00  0.00    +0.000 NA
ATOM      3  C   UNL     1      -2.582   0.938  -2.352  0.00  0.00    +0.000 C 
ATOM      4  C   UNL     1      -1.179   0.432  -2.635  0.00  0.00    +0.000 C 
ATOM      5  C   UNL     1      -0.476   0.686  -1.341  0.00  0.00    +0.000 A 
ATOM      6  C   UNL     1      -0.874   1.409  -0.324  0.00  0.00    +0.000 A 
ATOM      7  N   UNL     1       0.037   1.406   0.684  0.00  0.00    +0.000 NA
ATOM      8  C   UNL     1       1.068   0.643   0.291  0.00  0.00    +0.000 A 
ATOM      9  C   UNL     1       2.276   0.264   0.872  0.00  0.00    +0.000 A 
ATOM     10  C   UNL     1       3.136  -0.555   0.174  0.00  0.00    +0.000 A 
ATOM     11  C   UNL     1       2.871  -1.035  -1.089  0.00  0.00    +0.000 A 
ATOM     12  C   UNL     1       1.673  -0.648  -1.642  0.00  0.00    +0.000 A 
ATOM     13  C   UNL     1       0.771   0.180  -0.975  0.00  0.00    +0.000 A 
ENDROOT
BRANCH   1  17
ATOM     14  C   UNL     1      -4.841  -1.025   1.122  0.00  0.00    +0.000 A 
ATOM     15  C   UNL     1      -4.027  -1.202   0.026  0.00  0.00    +0.000 A 
ATOM     16  C   UNL     1      -3.207  -0.188  -0.415  0.00  0.00    +0.000 A 
ATOM     17  C   UNL     1      -3.168   0.968   0.179  0.00  0.00    +0.000 A 
ATOM     18  C   UNL     1      -3.963   1.220   1.294  0.00  0.00    +0.000 A 
ATOM     19  C   UNL     1      -4.780   0.209   1.733  0.00  0.00    +0.000 A 
BRANCH  19  20
ATOM     20  C   UNL     1      -5.682   0.376   2.931  0.00  0.00    +0.000 C 
ATOM     21  C   UNL     1      -5.454   1.784   3.434  0.00  0.00    +0.000 C 
ATOM     22  C   UNL     1      -5.341  -0.638   4.005  0.00  0.00    +0.000 C 
ENDBRANCH  19  20
BRANCH  14  24
ATOM     23  C   UNL     1      -5.735  -3.298   0.955  0.00  0.00    +0.000 C 
ATOM     24  O   UNL     1      -5.688  -2.037   1.598  0.00  0.00    +0.000 OA
ENDBRANCH  14  24
ENDBRANCH   1  17
BRANCH  11  25
ATOM     25  O   UNL     1       3.773  -1.869  -1.767  0.00  0.00    +0.000 OA
BRANCH  25  26
ATOM     26  C   UNL     1       4.992  -2.283  -1.247  0.00  0.00    +0.000 C 
BRANCH  26  27
ATOM     27  C   UNL     1       5.921  -1.178  -0.920  0.00  0.00    +0.000 A 
ATOM     28  C   UNL     1       5.638   0.145  -1.100  0.00  0.00    +0.000 A 
ATOM     29  C   UNL     1       6.578   1.076  -0.760  0.00  0.00    +0.000 A 
ATOM     30  C   UNL     1       7.807   0.755  -0.240  0.00  0.00    +0.000 A 
ATOM     31  C   UNL     1       8.107  -0.586  -0.052  0.00  0.00    +0.000 A 
ATOM     32  C   UNL     1       7.147  -1.515  -0.401  0.00  0.00    +0.000 A 
ENDBRANCH  26  27
ENDBRANCH  25  26
ENDBRANCH  11  25
TORSDOF 6
