REMARK  Name = 
REMARK  7 active torsions:
REMARK  status: ('A' for Active; 'I' for Inactive)
REMARK    1  A    between atoms: C_2  and  O_3
REMARK    2  A    between atoms: O_3  and  C_4
REMARK    3  A    between atoms: C_4  and  C_6
REMARK    4  A    between atoms: C_7  and  N_8
REMARK    5  A    between atoms: C_9  and  C_11
REMARK    6  A    between atoms: C_11  and  C_13
REMARK    7  A    between atoms: C_11  and  C_19
REMARK                            x       y       z     vdW  Elec       q    Type
REMARK                         _______ _______ _______ _____ _____    ______ ____
ROOT
ATOM      1  N   UNL     1       0.350  -0.243  -0.254  0.00  0.00    +0.000 NA
ATOM      2  C   UNL     1       1.209  -0.671  -1.320  0.00  0.00    +0.000 C 
ATOM      3  O   UNL     1       0.739  -1.326  -2.259  0.00  0.00    +0.000 OA
ENDROOT
BRANCH   1   5
ATOM      4  C   UNL     1      -2.052  -0.308   0.563  0.00  0.00    +0.000 A 
ATOM      5  C   UNL     1      -1.051  -0.605  -0.330  0.00  0.00    +0.000 A 
ATOM      6  S   UNL     1      -1.856  -1.496  -1.540  0.00  0.00    +0.000 S 
ATOM      7  C   UNL     1      -3.423  -1.474  -0.897  0.00  0.00    +0.000 A 
ATOM      8  C   UNL     1      -3.288  -0.769   0.253  0.00  0.00    +0.000 A 
ATOM      9  C   UNL     1      -4.573  -0.591   1.049  0.00  0.00    +0.000 C 
ATOM     10  C   UNL     1      -5.653  -0.428  -0.019  0.00  0.00    +0.000 C 
ATOM     11  C   UNL     1      -6.940  -0.040   0.630  0.00  0.00    +0.000 C 
ATOM     12  C   UNL     1      -5.218   0.604  -1.032  0.00  0.00    +0.000 C 
ATOM     13  O   UNL     1      -5.791  -1.688  -0.596  0.00  0.00    +0.000 OA
ATOM     14  C   UNL     1      -4.726  -2.049  -1.375  0.00  0.00    +0.000 C 
BRANCH   4  15
ATOM     15  C   UNL     1      -1.729   0.482   1.786  0.00  0.00    +0.000 C 
ATOM     16  O   UNL     1      -2.621   0.768   2.618  0.00  0.00    +0.000 OA
BRANCH  15  17
ATOM     17  O   UNL     1      -0.451   0.927   2.053  0.00  0.00    +0.000 OA
BRANCH  17  19
ATOM     18  C   UNL     1      -0.844   2.983   3.286  0.00  0.00    +0.000 C 
ATOM     19  C   UNL     1      -0.101   1.672   3.188  0.00  0.00    +0.000 C 
ENDBRANCH  17  19
ENDBRANCH  15  17
ENDBRANCH   4  15
ENDBRANCH   1   5
BRANCH   2  20
ATOM     20  C   UNL     1       2.641  -0.337  -1.304  0.00  0.00    +0.000 C 
ATOM     21  O   UNL     1       3.251  -0.853  -2.459  0.00  0.00    +0.000 OA
BRANCH  20  22
ATOM     22  C   UNL     1       2.899   1.127  -1.306  0.00  0.00    +0.000 A 
ATOM     23  C   UNL     1       3.786   1.740  -2.164  0.00  0.00    +0.000 A 
ATOM     24  C   UNL     1       4.006   3.112  -2.140  0.00  0.00    +0.000 A 
ATOM     25  C   UNL     1       3.308   3.886  -1.220  0.00  0.00    +0.000 A 
ATOM     26  C   UNL     1       2.418   3.299  -0.355  0.00  0.00    +0.000 A 
ATOM     27  C   UNL     1       2.216   1.938  -0.396  0.00  0.00    +0.000 A 
ENDBRANCH  20  22
BRANCH  20  28
ATOM     28  C   UNL     1       3.306  -1.001  -0.133  0.00  0.00    +0.000 A 
ATOM     29  C   UNL     1       4.659  -1.029  -0.055  0.00  0.00    +0.000 A 
ATOM     30  C   UNL     1       5.280  -1.635   1.012  0.00  0.00    +0.000 A 
ATOM     31  C   UNL     1       4.542  -2.235   2.038  0.00  0.00    +0.000 A 
ATOM     32  C   UNL     1       3.168  -2.182   1.917  0.00  0.00    +0.000 A 
ATOM     33  C   UNL     1       2.544  -1.577   0.853  0.00  0.00    +0.000 A 
ENDBRANCH  20  28
ENDBRANCH   2  20
TORSDOF 7
