REMARK  Name = 
REMARK  8 active torsions:
REMARK  status: ('A' for Active; 'I' for Inactive)
REMARK    1  A    between atoms: O_2  and  C_3
REMARK    2  A    between atoms: C_6  and  N_7
REMARK    3  A    between atoms: C_8  and  C_10
REMARK    4  A    between atoms: C_10  and  S_11
REMARK    5  A    between atoms: S_11  and  C_12
REMARK    6  A    between atoms: C_21  and  C_22
REMARK    7  A    between atoms: C_22  and  C_23
REMARK    8  A    between atoms: C_29  and  O_30
REMARK                            x       y       z     vdW  Elec       q    Type
REMARK                         _______ _______ _______ _____ _____    ______ ____
ROOT
ATOM      1  C   UNL     1      -2.097  -0.815  -0.731  0.00  0.00    +0.000 A 
ATOM      2  N   UNL     1      -2.725  -1.993  -0.415  0.00  0.00    +0.000 NA
ATOM      3  C   UNL     1      -3.494  -2.131   0.655  0.00  0.00    +0.000 A 
ATOM      4  C   UNL     1      -4.127  -3.308   0.986  0.00  0.00    +0.000 A 
ATOM      5  C   UNL     1      -4.927  -3.442   2.108  0.00  0.00    +0.000 A 
ATOM      6  C   UNL     1      -5.121  -2.375   2.953  0.00  0.00    +0.000 A 
ATOM      7  C   UNL     1      -4.496  -1.192   2.638  0.00  0.00    +0.000 A 
ATOM      8  C   UNL     1      -3.706  -1.068   1.524  0.00  0.00    +0.000 A 
ATOM      9  C   UNL     1      -3.073   0.120   1.204  0.00  0.00    +0.000 A 
ATOM     10  C   UNL     1      -2.277   0.257   0.094  0.00  0.00    +0.000 A 
ENDROOT
BRANCH   1  11
ATOM     11  S   UNL     1      -1.141  -0.807  -2.205  0.00  0.00    +0.000 S 
BRANCH  11  12
ATOM     12  C   UNL     1       0.482  -1.435  -1.995  0.00  0.00    +0.000 C 
BRANCH  12  14
ATOM     13  N   UNL     1       2.735  -1.211  -0.926  0.00  0.00    +0.000 NA
ATOM     14  C   UNL     1       1.417  -0.665  -1.204  0.00  0.00    +0.000 C 
ATOM     15  O   UNL     1       1.165   0.460  -0.733  0.00  0.00    +0.000 OA
BRANCH  13  19
ATOM     16  C   UNL     1       5.396   1.142   1.412  0.00  0.00    +0.000 A 
ATOM     17  C   UNL     1       4.120   1.590   1.094  0.00  0.00    +0.000 A 
ATOM     18  C   UNL     1       3.264   0.818   0.336  0.00  0.00    +0.000 A 
ATOM     19  C   UNL     1       3.627  -0.425  -0.143  0.00  0.00    +0.000 A 
ATOM     20  C   UNL     1       4.894  -0.870   0.173  0.00  0.00    +0.000 A 
ATOM     21  C   UNL     1       5.763  -0.093   0.941  0.00  0.00    +0.000 A 
BRANCH  16  23
ATOM     22  C   UNL     1       7.537   1.523   2.520  0.00  0.00    +0.000 C 
ATOM     23  O   UNL     1       6.245   1.946   2.184  0.00  0.00    +0.000 OA
ENDBRANCH  16  23
BRANCH  20  24
ATOM     24  O   UNL     1       5.268  -2.130  -0.307  0.00  0.00    +0.000 OA
ATOM     25  C   UNL     1       6.554  -2.684  -0.038  0.00  0.00    +0.000 C 
ENDBRANCH  20  24
ENDBRANCH  13  19
ENDBRANCH  12  14
ENDBRANCH  11  12
ENDBRANCH   1  11
BRANCH  10  26
ATOM     26  C   UNL     1      -1.679   1.561  -0.216  0.00  0.00    +0.000 C 
BRANCH  26  27
ATOM     27  C   UNL     1      -2.479   2.222  -1.280  0.00  0.00    +0.000 A 
ATOM     28  C   UNL     1      -3.527   3.051  -0.911  0.00  0.00    +0.000 A 
ATOM     29  C   UNL     1      -4.297   3.685  -1.858  0.00  0.00    +0.000 A 
ATOM     30  C   UNL     1      -4.051   3.517  -3.207  0.00  0.00    +0.000 A 
ATOM     31  C   UNL     1      -3.009   2.693  -3.579  0.00  0.00    +0.000 A 
ATOM     32  C   UNL     1      -2.241   2.059  -2.628  0.00  0.00    +0.000 A 
ENDBRANCH  26  27
ENDBRANCH  10  26
TORSDOF 8
