REMARK  Name = 
REMARK  7 active torsions:
REMARK  status: ('A' for Active; 'I' for Inactive)
REMARK    1  A    between atoms: C_2  and  O_3
REMARK    2  A    between atoms: O_3  and  C_4
REMARK    3  A    between atoms: C_7  and  N_8
REMARK    4  A    between atoms: C_11  and  N_12
REMARK    5  A    between atoms: N_12  and  C_13
REMARK    6  A    between atoms: C_20  and  S_21
REMARK    7  A    between atoms: S_21  and  C_22
REMARK                            x       y       z     vdW  Elec       q    Type
REMARK                         _______ _______ _______ _____ _____    ______ ____
ROOT
ATOM      1  N   UNL     1       1.436  -0.553   0.093  0.00  0.00    +0.000 N 
ATOM      2  C   UNL     1       0.334  -0.045   0.823  0.00  0.00    +0.000 C 
ATOM      3  O   UNL     1       0.393   0.730   1.810  0.00  0.00    +0.000 OA
ATOM      4  C   UNL     1      -0.868  -0.604   0.195  0.00  0.00    +0.000 C 
ATOM      5  C   UNL     1      -0.607  -1.377  -0.809  0.00  0.00    +0.000 C 
ATOM      6  C   UNL     1       0.885  -1.366  -0.906  0.00  0.00    +0.000 C 
ATOM      7  O   UNL     1       1.500  -2.013  -1.779  0.00  0.00    +0.000 OA
ENDROOT
BRANCH   1  11
ATOM      8  C   UNL     1       5.548   0.263   0.790  0.00  0.00    +0.000 A 
ATOM      9  C   UNL     1       4.641   0.184   1.821  0.00  0.00    +0.000 A 
ATOM     10  C   UNL     1       3.299  -0.080   1.619  0.00  0.00    +0.000 A 
ATOM     11  C   UNL     1       2.829  -0.274   0.350  0.00  0.00    +0.000 A 
ATOM     12  C   UNL     1       3.726  -0.198  -0.698  0.00  0.00    +0.000 A 
ATOM     13  C   UNL     1       5.080   0.068  -0.495  0.00  0.00    +0.000 A 
BRANCH   8  14
ATOM     14  O   UNL     1       6.896   0.531   1.026  0.00  0.00    +0.000 OA
BRANCH  14  16
ATOM     15  C   UNL     1       7.337   1.688  -0.995  0.00  0.00    +0.000 C 
ATOM     16  C   UNL     1       7.784   0.601  -0.070  0.00  0.00    +0.000 C 
ENDBRANCH  14  16
ENDBRANCH   8  14
ENDBRANCH   1  11
BRANCH   4  17
ATOM     17  N   UNL     1      -2.150  -0.250   0.717  0.00  0.00    +0.000 NA
BRANCH  17  18
ATOM     18  C   UNL     1      -2.500   1.115   0.853  0.00  0.00    +0.000 A 
ATOM     19  C   UNL     1      -3.734   1.464   1.345  0.00  0.00    +0.000 A 
ATOM     20  C   UNL     1      -4.064   2.778   1.472  0.00  0.00    +0.000 A 
ATOM     21  C   UNL     1      -3.175   3.769   1.113  0.00  0.00    +0.000 A 
ATOM     22  C   UNL     1      -1.933   3.442   0.617  0.00  0.00    +0.000 A 
ATOM     23  C   UNL     1      -0.914   4.423   0.206  0.00  0.00    +0.000 C 
ATOM     24  C   UNL     1      -1.615   2.091   0.495  0.00  0.00    +0.000 A 
ENDBRANCH  17  18
ENDBRANCH   4  17
BRANCH   5  25
ATOM     25  S   UNL     1      -1.664  -2.282  -1.892  0.00  0.00    +0.000 S 
BRANCH  25  26
ATOM     26  C   UNL     1      -3.356  -2.264  -1.471  0.00  0.00    +0.000 A 
ATOM     27  C   UNL     1      -3.956  -1.676  -0.413  0.00  0.00    +0.000 A 
ATOM     28  C   UNL     1      -5.299  -1.746  -0.209  0.00  0.00    +0.000 A 
ATOM     29  C   UNL     1      -6.123  -2.425  -1.077  0.00  0.00    +0.000 A 
ATOM     30  C   UNL     1      -5.534  -3.033  -2.164  0.00  0.00    +0.000 A 
ATOM     31  C   UNL     1      -4.195  -2.962  -2.366  0.00  0.00    +0.000 A 
ENDBRANCH  25  26
ENDBRANCH   5  25
TORSDOF 7
