REMARK  Name = 
REMARK  6 active torsions:
REMARK  status: ('A' for Active; 'I' for Inactive)
REMARK    1  A    between atoms: C_2  and  C_3
REMARK    2  A    between atoms: C_3  and  C_5
REMARK    3  A    between atoms: C_8  and  N_9
REMARK    4  A    between atoms: C_10  and  C_12
REMARK    5  A    between atoms: C_16  and  C_17
REMARK    6  A    between atoms: C_21  and  O_22
REMARK                            x       y       z     vdW  Elec       q    Type
REMARK                         _______ _______ _______ _____ _____    ______ ____
ROOT
ATOM      1  C   UNL     1       0.682   0.720  -0.188  0.00  0.00    +0.000 A 
ATOM      2  S   UNL     1      -0.426  -0.470   0.354  0.00  0.00    +0.000 S 
ATOM      3  C   UNL     1      -1.879   0.232  -0.195  0.00  0.00    +0.000 A 
ATOM      4  N   UNL     1      -3.191  -0.159  -0.120  0.00  0.00    +0.000 NA
ATOM      5  C   UNL     1      -4.181   0.582  -0.640  0.00  0.00    +0.000 A 
ATOM      6  C   UNL     1      -3.794   1.747  -1.246  0.00  0.00    +0.000 A 
ATOM      7  C   UNL     1      -2.497   2.170  -1.341  0.00  0.00    +0.000 A 
ATOM      8  C   UNL     1      -1.463   1.379  -0.788  0.00  0.00    +0.000 A 
ATOM      9  C   UNL     1      -0.129   1.641  -0.788  0.00  0.00    +0.000 A 
ATOM     10  N   UNL     1       0.484   2.828  -1.383  0.00  0.00    +0.000 NA
ENDROOT
BRANCH   5  11
ATOM     11  C   UNL     1      -5.585   0.209  -0.585  0.00  0.00    +0.000 A 
ATOM     12  C   UNL     1      -6.582   0.988  -1.128  0.00  0.00    +0.000 A 
ATOM     13  C   UNL     1      -7.918   0.637  -1.077  0.00  0.00    +0.000 A 
ATOM     14  C   UNL     1      -8.285  -0.527  -0.470  0.00  0.00    +0.000 A 
ATOM     15  C   UNL     1      -7.326  -1.333   0.083  0.00  0.00    +0.000 A 
ATOM     16  C   UNL     1      -6.005  -0.971   0.025  0.00  0.00    +0.000 A 
BRANCH  15  17
ATOM     17  O   UNL     1      -7.702  -2.504   0.694  0.00  0.00    +0.000 OA
ATOM     18  C   UNL     1      -9.016  -2.960   0.805  0.00  0.00    +0.000 C 
ENDBRANCH  15  17
ENDBRANCH   5  11
BRANCH   1  20
ATOM     19  N   UNL     1       2.780  -0.327   0.624  0.00  0.00    +0.000 NA
ATOM     20  C   UNL     1       2.131   0.731  -0.036  0.00  0.00    +0.000 C 
ATOM     21  O   UNL     1       2.784   1.678  -0.492  0.00  0.00    +0.000 OA
BRANCH  19  25
ATOM     22  C   UNL     1       6.899  -0.668   1.262  0.00  0.00    +0.000 A 
ATOM     23  C   UNL     1       6.418   0.421   0.603  0.00  0.00    +0.000 A 
ATOM     24  C   UNL     1       5.043   0.580   0.365  0.00  0.00    +0.000 A 
ATOM     25  C   UNL     1       4.191  -0.385   0.809  0.00  0.00    +0.000 A 
ATOM     26  C   UNL     1       4.686  -1.474   1.469  0.00  0.00    +0.000 A 
ATOM     27  C   UNL     1       6.060  -1.634   1.708  0.00  0.00    +0.000 A 
BRANCH  22  28
ATOM     28  C   UNL     1       8.446  -0.778   1.500  0.00  0.00    +0.000 C 
ATOM     29  C   UNL     1       8.549  -2.392   1.175  0.00  0.00    +0.000 C 
BRANCH  28  31
ATOM     30  C   UNL     1       7.929  -0.874  -0.982  0.00  0.00    +0.000 C 
ATOM     31  C   UNL     1       8.898  -0.325  -0.015  0.00  0.00    +0.000 C 
ENDBRANCH  28  31
ENDBRANCH  22  28
ENDBRANCH  19  25
ENDBRANCH   1  20
TORSDOF 6
