REMARK  Name = 
REMARK  9 active torsions:
REMARK  status: ('A' for Active; 'I' for Inactive)
REMARK    1  A    between atoms: C_2  and  C_3
REMARK    2  A    between atoms: C_3  and  N_4
REMARK    3  A    between atoms: C_5  and  S_6
REMARK    4  A    between atoms: S_6  and  C_7
REMARK    5  A    between atoms: C_7  and  C_8
REMARK    6  A    between atoms: C_8  and  C_10
REMARK    7  A    between atoms: C_21  and  C_22
REMARK    8  A    between atoms: C_27  and  O_28
REMARK    9  A    between atoms: C_32  and  C_33
REMARK                            x       y       z     vdW  Elec       q    Type
REMARK                         _______ _______ _______ _____ _____    ______ ____
ROOT
ATOM      1  N   UNL     1       0.207  -0.025   0.252  0.00  0.00    +0.000 N 
ATOM      2  C   UNL     1      -0.996  -0.172   0.898  0.00  0.00    +0.000 A 
ATOM      3  N   UNL     1      -0.727   0.003   2.196  0.00  0.00    +0.000 NA
ATOM      4  N   UNL     1       0.553   0.242   2.336  0.00  0.00    +0.000 NA
ATOM      5  C   UNL     1       1.180   0.232   1.101  0.00  0.00    +0.000 A 
ENDROOT
BRANCH   5   6
ATOM      6  C   UNL     1       2.622   0.434   0.950  0.00  0.00    +0.000 A 
ATOM      7  N   UNL     1       3.457   0.611   2.039  0.00  0.00    +0.000 NA
ATOM      8  C   UNL     1       4.714   0.787   1.647  0.00  0.00    +0.000 A 
ATOM      9  C   UNL     1       5.877   0.994   2.350  0.00  0.00    +0.000 A 
ATOM     10  C   UNL     1       7.096   1.149   1.685  0.00  0.00    +0.000 A 
ATOM     11  C   UNL     1       7.162   1.099   0.311  0.00  0.00    +0.000 A 
ATOM     12  C   UNL     1       5.972   0.889  -0.376  0.00  0.00    +0.000 A 
ATOM     13  C   UNL     1       4.769   0.737   0.280  0.00  0.00    +0.000 A 
ATOM     14  C   UNL     1       3.441   0.517  -0.117  0.00  0.00    +0.000 A 
BRANCH  11  15
ATOM     15  O   UNL     1       8.376   1.254  -0.340  0.00  0.00    +0.000 OA
ATOM     16  C   UNL     1       8.465   1.204  -1.753  0.00  0.00    +0.000 C 
ENDBRANCH  11  15
BRANCH  14  17
ATOM     17  C   UNL     1       3.091   0.501  -1.551  0.00  0.00    +0.000 C 
ATOM     18  C   UNL     1       2.662   1.918  -1.969  0.00  0.00    +0.000 C 
ENDBRANCH  14  17
ENDBRANCH   5   6
BRANCH   1  19
ATOM     19  C   UNL     1       0.345  -0.184  -1.180  0.00  0.00    +0.000 C 
BRANCH  19  21
ATOM     20  C   UNL     1      -0.178  -2.425  -2.127  0.00  0.00    +0.000 C 
ATOM     21  C   UNL     1       0.601  -1.653  -1.402  0.00  0.00    +0.000 C 
ENDBRANCH  19  21
ENDBRANCH   1  19
BRANCH   2  22
ATOM     22  S   UNL     1      -2.524  -0.517   0.080  0.00  0.00    +0.000 S 
BRANCH  22  23
ATOM     23  C   UNL     1      -2.884  -2.259  -0.110  0.00  0.00    +0.000 C 
BRANCH  23  24
ATOM     24  C   UNL     1      -4.145  -2.492  -0.775  0.00  0.00    +0.000 C 
ATOM     25  O   UNL     1      -4.360  -3.663  -1.273  0.00  0.00    +0.000 OA
BRANCH  24  26
ATOM     26  C   UNL     1      -5.200  -1.530  -0.940  0.00  0.00    +0.000 A 
ATOM     27  C   UNL     1      -6.115  -1.484  -2.005  0.00  0.00    +0.000 A 
ATOM     28  N   UNL     1      -6.916  -0.433  -1.835  0.00  0.00    +0.000 NA
ATOM     29  C   UNL     1      -6.612   0.237  -0.731  0.00  0.00    +0.000 A 
ATOM     30  C   UNL     1      -7.133   1.355  -0.116  0.00  0.00    +0.000 A 
ATOM     31  C   UNL     1      -6.630   1.852   1.077  0.00  0.00    +0.000 A 
ATOM     32  C   UNL     1      -5.570   1.188   1.648  0.00  0.00    +0.000 A 
ATOM     33  C   UNL     1      -5.064   0.081   1.025  0.00  0.00    +0.000 A 
ATOM     34  C   UNL     1      -5.535  -0.448  -0.165  0.00  0.00    +0.000 A 
ENDBRANCH  24  26
ENDBRANCH  23  24
ENDBRANCH  22  23
ENDBRANCH   2  22
TORSDOF 9
