REMARK  Name = 
REMARK  6 active torsions:
REMARK  status: ('A' for Active; 'I' for Inactive)
REMARK    1  A    between atoms: C_2  and  O_3
REMARK    2  A    between atoms: O_3  and  C_4
REMARK    3  A    between atoms: C_9  and  N_10
REMARK    4  A    between atoms: C_11  and  C_13
REMARK    5  A    between atoms: C_14  and  N_15
REMARK    6  A    between atoms: C_16  and  C_18
REMARK                            x       y       z     vdW  Elec       q    Type
REMARK                         _______ _______ _______ _____ _____    ______ ____
ROOT
ATOM      1  C   UNL     1       0.343   0.904  -0.312  0.00  0.00    +0.000 A 
ATOM      2  C   UNL     1       1.667   0.638  -0.518  0.00  0.00    +0.000 A 
ATOM      3  S   UNL     1       2.329   2.186  -0.867  0.00  0.00    +0.000 S 
ATOM      4  C   UNL     1       0.894   3.115  -0.738  0.00  0.00    +0.000 A 
ATOM      5  C   UNL     1      -0.055   2.173  -0.424  0.00  0.00    +0.000 A 
ATOM      6  C   UNL     1      -1.391   2.900  -0.282  0.00  0.00    +0.000 C 
ATOM      7  C   UNL     1      -1.172   3.719   0.917  0.00  0.00    +0.000 C 
ATOM      8  C   UNL     1      -0.127   4.941   0.639  0.00  0.00    +0.000 C 
ATOM      9  C   UNL     1      -1.304   5.934   0.044  0.00  0.00    +0.000 C 
ATOM     10  C   UNL     1       0.395   4.503  -0.850  0.00  0.00    +0.000 C 
ENDROOT
BRANCH   1  12
ATOM     11  N   UNL     1      -1.982   0.043   0.244  0.00  0.00    +0.000 NA
ATOM     12  C   UNL     1      -0.614  -0.183   0.024  0.00  0.00    +0.000 C 
ATOM     13  O   UNL     1      -0.231  -1.371   0.127  0.00  0.00    +0.000 OA
BRANCH  11  19
ATOM     14  C   UNL     1      -4.213  -0.813   0.782  0.00  0.00    +0.000 A 
ATOM     15  C   UNL     1      -5.072  -1.844   1.092  0.00  0.00    +0.000 A 
ATOM     16  C   UNL     1      -4.539  -3.107   1.178  0.00  0.00    +0.000 A 
ATOM     17  C   UNL     1      -3.186  -3.362   0.965  0.00  0.00    +0.000 A 
ATOM     18  C   UNL     1      -2.361  -2.285   0.655  0.00  0.00    +0.000 A 
ATOM     19  C   UNL     1      -2.875  -1.011   0.563  0.00  0.00    +0.000 A 
BRANCH  14  20
ATOM     20  O   UNL     1      -4.687   0.473   0.681  0.00  0.00    +0.000 OA
BRANCH  20  22
ATOM     21  C   UNL     1      -6.103   2.362   0.667  0.00  0.00    +0.000 C 
ATOM     22  C   UNL     1      -6.023   0.855   0.873  0.00  0.00    +0.000 C 
ENDBRANCH  20  22
ENDBRANCH  14  20
ENDBRANCH  11  19
ENDBRANCH   1  12
BRANCH   2  23
ATOM     23  N   UNL     1       2.333  -0.641  -0.454  0.00  0.00    +0.000 NA
ATOM     24  C   UNL     1       3.716  -0.718  -0.699  0.00  0.00    +0.000 C 
ATOM     25  O   UNL     1       4.367   0.315  -0.970  0.00  0.00    +0.000 OA
BRANCH  24  26
ATOM     26  C   UNL     1       4.367  -2.020  -0.628  0.00  0.00    +0.000 A 
ATOM     27  C   UNL     1       5.720  -2.167  -0.857  0.00  0.00    +0.000 A 
ATOM     28  C   UNL     1       6.311  -3.420  -0.783  0.00  0.00    +0.000 A 
ATOM     29  C   UNL     1       5.589  -4.542  -0.485  0.00  0.00    +0.000 A 
ATOM     30  C   UNL     1       4.238  -4.407  -0.255  0.00  0.00    +0.000 A 
ATOM     31  C   UNL     1       3.667  -3.171  -0.330  0.00  0.00    +0.000 A 
ENDBRANCH  24  26
ENDBRANCH   2  23
TORSDOF 6
