REMARK  Name = 
REMARK  7 active torsions:
REMARK  status: ('A' for Active; 'I' for Inactive)
REMARK    1  A    between atoms: C_2  and  C_3
REMARK    2  A    between atoms: C_2  and  C_26
REMARK    3  A    between atoms: C_3  and  C_4
REMARK    4  A    between atoms: N_6  and  C_7
REMARK    5  A    between atoms: C_10  and  C_11
REMARK    6  A    between atoms: N_15  and  C_17
REMARK    7  A    between atoms: C_26  and  C_27
REMARK                            x       y       z     vdW  Elec       q    Type
REMARK                         _______ _______ _______ _____ _____    ______ ____
ROOT
ATOM      1  C   UNL     1      -2.011  -1.478   1.147  0.00  0.00    +0.000 A 
ATOM      2  C   UNL     1      -1.213  -2.167   2.073  0.00  0.00    +0.000 A 
ATOM      3  C   UNL     1       0.141  -2.202   1.976  0.00  0.00    +0.000 A 
ATOM      4  C   UNL     1       0.791  -1.557   0.956  0.00  0.00    +0.000 A 
ATOM      5  C   UNL     1       0.044  -0.875   0.035  0.00  0.00    +0.000 A 
ATOM      6  C   UNL     1      -1.360  -0.850   0.152  0.00  0.00    +0.000 A 
ENDROOT
BRANCH   4   7
ATOM      7  C   UNL     1       2.277  -1.593   0.857  0.00  0.00    +0.000 A 
ATOM      8  C   UNL     1       3.054  -2.275   1.777  0.00  0.00    +0.000 A 
ATOM      9  S   UNL     1       4.628  -1.985   1.201  0.00  0.00    +0.000 S 
ATOM     10  C   UNL     1       4.225  -1.030  -0.153  0.00  0.00    +0.000 A 
ATOM     11  N   UNL     1       5.072  -0.413  -1.144  0.00  0.00    +0.000 N 
ATOM     12  C   UNL     1       5.255  -1.156  -2.369  0.00  0.00    +0.000 C 
ATOM     13  N   UNL     1       2.906  -0.981  -0.098  0.00  0.00    +0.000 NA
BRANCH  11  14
ATOM     14  C   UNL     1       5.694   0.842  -0.932  0.00  0.00    +0.000 A 
ATOM     15  C   UNL     1       5.082   2.014  -1.295  0.00  0.00    +0.000 A 
ATOM     16  C   UNL     1       5.691   3.246  -1.090  0.00  0.00    +0.000 A 
ATOM     17  C   UNL     1       6.938   3.281  -0.508  0.00  0.00    +0.000 A 
ATOM     18  C   UNL     1       7.581   2.147  -0.133  0.00  0.00    +0.000 A 
ATOM     19  C   UNL     1       6.959   0.928  -0.345  0.00  0.00    +0.000 A 
ENDBRANCH  11  14
ENDBRANCH   4   7
BRANCH   1  22
ATOM     20  C   UNL     1      -4.416  -0.856   0.688  0.00  0.00    +0.000 C 
ATOM     21  O   UNL     1      -3.987  -0.139  -0.246  0.00  0.00    +0.000 OA
ATOM     22  N   UNL     1      -3.394  -1.550   1.408  0.00  0.00    +0.000 NA
BRANCH  20  23
ATOM     23  C   UNL     1      -5.800  -1.037   1.089  0.00  0.00    +0.000 C 
BRANCH  23  25
ATOM     24  C   UNL     1      -6.428  -0.678  -1.218  0.00  0.00    +0.000 C 
ATOM     25  C   UNL     1      -6.779  -0.101   0.243  0.00  0.00    +0.000 C 
BRANCH  25  26
ATOM     26  C   UNL     1      -5.794   1.165   0.194  0.00  0.00    +0.000 C 
BRANCH  26  27
ATOM     27  C   UNL     1      -6.189   2.059  -0.938  0.00  0.00    +0.000 C 
ATOM     28  C   UNL     1      -7.635   2.557  -0.748  0.00  0.00    +0.000 C 
ATOM     29  C   UNL     1      -5.994   1.388  -2.244  0.00  0.00    +0.000 C 
ATOM     30  C   UNL     1      -5.338   3.298  -0.881  0.00  0.00    +0.000 C 
ENDBRANCH  26  27
ENDBRANCH  25  26
ENDBRANCH  23  25
ENDBRANCH  20  23
ENDBRANCH   1  22
TORSDOF 7
