REMARK  Name = 
REMARK  9 active torsions:
REMARK  status: ('A' for Active; 'I' for Inactive)
REMARK    1  A    between atoms: O_2  and  C_3
REMARK    2  A    between atoms: C_5  and  C_6
REMARK    3  A    between atoms: C_6  and  N_7
REMARK    4  A    between atoms: C_8  and  C_10
REMARK    5  A    between atoms: C_15  and  S_16
REMARK    6  A    between atoms: S_16  and  C_17
REMARK    7  A    between atoms: C_17  and  C_18
REMARK    8  A    between atoms: C_25  and  O_26
REMARK    9  A    between atoms: C_28  and  O_29
REMARK                            x       y       z     vdW  Elec       q    Type
REMARK                         _______ _______ _______ _____ _____    ______ ____
ROOT
ATOM      1  N   UNL     1      -0.021   0.194   0.633  0.00  0.00    +0.000 NA
ATOM      2  C   UNL     1       0.298  -1.174   0.438  0.00  0.00    +0.000 C 
ATOM      3  O   UNL     1      -0.415  -2.053   0.954  0.00  0.00    +0.000 OA
ENDROOT
BRANCH   2   4
ATOM      4  C   UNL     1       1.457  -1.513  -0.374  0.00  0.00    +0.000 A 
ATOM      5  C   UNL     1       1.390  -2.340  -1.473  0.00  0.00    +0.000 A 
ATOM      6  C   UNL     1       2.489  -2.619  -2.252  0.00  0.00    +0.000 A 
ATOM      7  C   UNL     1       3.730  -2.067  -1.951  0.00  0.00    +0.000 A 
ATOM      8  C   UNL     1       3.786  -1.241  -0.843  0.00  0.00    +0.000 A 
ATOM      9  C   UNL     1       2.708  -0.953  -0.063  0.00  0.00    +0.000 A 
BRANCH   9  10
ATOM     10  S   UNL     1       2.775   0.028   1.424  0.00  0.00    +0.000 S 
BRANCH  10  11
ATOM     11  C   UNL     1       4.395   0.486   1.953  0.00  0.00    +0.000 C 
BRANCH  11  12
ATOM     12  C   UNL     1       5.077   1.414   1.062  0.00  0.00    +0.000 A 
ATOM     13  C   UNL     1       5.892   0.907   0.063  0.00  0.00    +0.000 A 
ATOM     14  C   UNL     1       6.575   1.728  -0.813  0.00  0.00    +0.000 A 
ATOM     15  C   UNL     1       6.399   3.092  -0.637  0.00  0.00    +0.000 A 
ATOM     16  C   UNL     1       5.603   3.639   0.339  0.00  0.00    +0.000 A 
ATOM     17  C   UNL     1       4.935   2.793   1.195  0.00  0.00    +0.000 A 
ENDBRANCH  11  12
ENDBRANCH  10  11
ENDBRANCH   9  10
ENDBRANCH   2   4
BRANCH   1  18
ATOM     18  C   UNL     1      -1.089   0.665   1.415  0.00  0.00    +0.000 C 
BRANCH  18  21
ATOM     19  C   UNL     1      -4.832   1.032   0.836  0.00  0.00    +0.000 A 
ATOM     20  C   UNL     1      -3.504   1.299   1.206  0.00  0.00    +0.000 A 
ATOM     21  C   UNL     1      -2.465   0.415   0.945  0.00  0.00    +0.000 A 
ATOM     22  C   UNL     1      -2.812  -0.767   0.283  0.00  0.00    +0.000 A 
ATOM     23  C   UNL     1      -4.138  -1.025  -0.078  0.00  0.00    +0.000 A 
ATOM     24  C   UNL     1      -5.158  -0.127   0.198  0.00  0.00    +0.000 A 
BRANCH  19  26
ATOM     25  C   UNL     1      -5.552   3.197   1.768  0.00  0.00    +0.000 C 
ATOM     26  O   UNL     1      -5.838   1.948   1.114  0.00  0.00    +0.000 OA
ENDBRANCH  19  26
BRANCH  23  27
ATOM     27  O   UNL     1      -4.476  -2.206  -0.736  0.00  0.00    +0.000 OA
ATOM     28  C   UNL     1      -3.469  -3.145  -1.049  0.00  0.00    +0.000 C 
ENDBRANCH  23  27
BRANCH  24  29
ATOM     29  O   UNL     1      -6.465  -0.449  -0.182  0.00  0.00    +0.000 OA
ATOM     30  C   UNL     1      -7.280  -1.159   0.787  0.00  0.00    +0.000 C 
ENDBRANCH  24  29
ENDBRANCH  18  21
ENDBRANCH   1  18
TORSDOF 9
