REMARK  Name = 
REMARK  7 active torsions:
REMARK  status: ('A' for Active; 'I' for Inactive)
REMARK    1  A    between atoms: C_2  and  C_3
REMARK    2  A    between atoms: C_3  and  C_4
REMARK    3  A    between atoms: C_4  and  C_5
REMARK    4  A    between atoms: C_5  and  O_6
REMARK    5  A    between atoms: O_6  and  C_7
REMARK    6  A    between atoms: C_10  and  C_11
REMARK    7  A    between atoms: C_21  and  C_22
REMARK                            x       y       z     vdW  Elec       q    Type
REMARK                         _______ _______ _______ _____ _____    ______ ____
ROOT
ATOM      1  C   UNL     1       0.439   1.153  -1.502  0.00  0.00    +0.000 C 
ATOM      2  O   UNL     1       0.193  -0.291  -1.927  0.00  0.00    +0.000 OA
ATOM      3  C   UNL     1      -0.369  -1.223  -1.202  0.00  0.00    +0.000 A 
ATOM      4  C   UNL     1      -0.617  -2.487  -1.744  0.00  0.00    +0.000 A 
ATOM      5  C   UNL     1      -1.208  -3.425  -0.934  0.00  0.00    +0.000 A 
ATOM      6  C   UNL     1      -1.558  -3.160   0.372  0.00  0.00    +0.000 A 
ATOM      7  C   UNL     1      -1.299  -1.902   0.875  0.00  0.00    +0.000 A 
ATOM      8  C   UNL     1      -0.709  -0.980   0.054  0.00  0.00    +0.000 A 
ATOM      9  C   UNL     1      -0.432   0.458   0.710  0.00  0.00    +0.000 C 
ATOM     10  C   UNL     1      -1.889   0.651   1.302  0.00  0.00    +0.000 C 
ATOM     11  C   UNL     1      -2.688   0.916   0.271  0.00  0.00    +0.000 C 
ATOM     12  N   UNL     1      -1.909   0.960  -0.916  0.00  0.00    +0.000 NA
ATOM     13  N   UNL     1      -0.714   1.385  -0.487  0.00  0.00    +0.000 NA
ENDROOT
BRANCH  11  14
ATOM     14  C   UNL     1      -4.132   1.171   0.272  0.00  0.00    +0.000 A 
ATOM     15  C   UNL     1      -4.783   1.405  -0.911  0.00  0.00    +0.000 A 
ATOM     16  C   UNL     1      -6.132   1.655  -1.030  0.00  0.00    +0.000 A 
ATOM     17  C   UNL     1      -6.873   1.668   0.134  0.00  0.00    +0.000 A 
ATOM     18  C   UNL     1      -8.346   1.934   0.080  0.00  0.00    +0.000 C 
ATOM     19  C   UNL     1      -6.222   1.433   1.327  0.00  0.00    +0.000 A 
ATOM     20  C   UNL     1      -4.872   1.184   1.427  0.00  0.00    +0.000 A 
ENDBRANCH  11  14
BRANCH   1  24
ATOM     21  C   UNL     1       3.745   0.418   1.205  0.00  0.00    +0.000 A 
ATOM     22  C   UNL     1       2.737   1.281   1.536  0.00  0.00    +0.000 A 
ATOM     23  C   UNL     1       1.666   1.535   0.688  0.00  0.00    +0.000 A 
ATOM     24  C   UNL     1       1.644   0.897  -0.495  0.00  0.00    +0.000 A 
ATOM     25  C   UNL     1       2.604   0.043  -0.869  0.00  0.00    +0.000 A 
ATOM     26  C   UNL     1       3.672  -0.205  -0.012  0.00  0.00    +0.000 A 
BRANCH  21  27
ATOM     27  O   UNL     1       4.776   0.210   2.086  0.00  0.00    +0.000 OA
BRANCH  27  28
ATOM     28  C   UNL     1       5.800  -0.684   1.718  0.00  0.00    +0.000 C 
BRANCH  28  29
ATOM     29  C   UNL     1       6.456  -0.213   0.481  0.00  0.00    +0.000 C 
BRANCH  29  30
ATOM     30  C   UNL     1       7.547  -0.999  -0.072  0.00  0.00    +0.000 C 
BRANCH  30  32
ATOM     31  C   UNL     1       6.199  -2.393  -1.533  0.00  0.00    +0.000 C 
ATOM     32  C   UNL     1       7.275  -2.394  -0.467  0.00  0.00    +0.000 C 
ENDBRANCH  30  32
ENDBRANCH  29  30
ENDBRANCH  28  29
ENDBRANCH  27  28
ENDBRANCH  21  27
ENDBRANCH   1  24
TORSDOF 7
