REMARK  Name = 
REMARK  10 active torsions:
REMARK  status: ('A' for Active; 'I' for Inactive)
REMARK    1  A    between atoms: C_7  and  C_8
REMARK    2  A    between atoms: C_8  and  O_9
REMARK    3  A    between atoms: C_8  and  C_29
REMARK    4  A    between atoms: O_9  and  C_10
REMARK    5  A    between atoms: C_10  and  C_11
REMARK    6  A    between atoms: C_11  and  C_13
REMARK    7  A    between atoms: C_13  and  N_14
REMARK    8  A    between atoms: N_14  and  C_15
REMARK    9  A    between atoms: C_15  and  C_18
REMARK   10  A    between atoms: C_18  and  C_19
REMARK                            x       y       z     vdW  Elec       q    Type
REMARK                         _______ _______ _______ _____ _____    ______ ____
ROOT
ATOM      1  C   UNL     1      -0.923   0.715  -1.050  0.00  0.00    +0.000 C 
ENDROOT
BRANCH   1   2
ATOM      2  C   UNL     1      -1.342  -0.505  -1.872  0.00  0.00    +0.000 C 
ATOM      3  O   UNL     1      -0.061  -1.257  -1.933  0.00  0.00    +0.000 OA
BRANCH   2   4
ATOM      4  C   UNL     1      -2.080  -1.446  -0.863  0.00  0.00    +0.000 C 
BRANCH   4   5
ATOM      5  O   UNL     1      -3.357  -1.087  -0.550  0.00  0.00    +0.000 OA
BRANCH   5   6
ATOM      6  C   UNL     1      -3.291   0.245  -0.007  0.00  0.00    +0.000 C 
BRANCH   6  13
ATOM      7  C   UNL     1      -5.587  -1.481  -0.640  0.00  0.00    +0.000 C 
ATOM      8  C   UNL     1      -5.560  -0.803   0.707  0.00  0.00    +0.000 A 
ATOM      9  C   UNL     1      -6.543  -1.064   1.667  0.00  0.00    +0.000 A 
ATOM     10  C   UNL     1      -6.461  -0.348   2.849  0.00  0.00    +0.000 A 
ATOM     11  C   UNL     1      -5.481   0.573   3.101  0.00  0.00    +0.000 A 
ATOM     12  C   UNL     1      -4.536   0.774   2.105  0.00  0.00    +0.000 A 
ATOM     13  C   UNL     1      -4.610   0.079   0.953  0.00  0.00    +0.000 A 
ENDBRANCH   6  13
BRANCH   6  14
ATOM     14  C   UNL     1      -4.031   1.135  -1.071  0.00  0.00    +0.000 C 
ATOM     15  C   UNL     1      -3.507   1.702  -2.257  0.00  0.00    +0.000 C 
ATOM     16  C   UNL     1      -3.719   2.569  -1.023  0.00  0.00    +0.000 C 
ENDBRANCH   6  14
ENDBRANCH   5   6
ENDBRANCH   4   5
ENDBRANCH   2   4
ENDBRANCH   1   2
BRANCH   1  17
ATOM     17  N   UNL     1      -0.400   0.889   0.099  0.00  0.00    +0.000 NA
BRANCH  17  18
ATOM     18  C   UNL     1       0.955   0.648   0.434  0.00  0.00    +0.000 C 
ATOM     19  C   UNL     1       1.685   1.736   1.173  0.00  0.00    +0.000 C 
ATOM     20  C   UNL     1       0.872  -0.529   1.418  0.00  0.00    +0.000 C 
BRANCH  18  21
ATOM     21  C   UNL     1       1.741   0.258  -0.814  0.00  0.00    +0.000 C 
BRANCH  21  22
ATOM     22  C   UNL     1       3.157   0.006  -0.464  0.00  0.00    +0.000 A 
ATOM     23  C   UNL     1       3.399  -1.180   0.229  0.00  0.00    +0.000 A 
ATOM     24  C   UNL     1       4.618  -1.635   0.536  0.00  0.00    +0.000 A 
ATOM     25  C   UNL     1       5.707  -0.861   0.121  0.00  0.00    +0.000 A 
ATOM     26  C   UNL     1       6.993  -1.360   0.384  0.00  0.00    +0.000 A 
ATOM     27  C   UNL     1       8.081  -0.651  -0.057  0.00  0.00    +0.000 A 
ATOM     28  C   UNL     1       7.922   0.548  -0.758  0.00  0.00    +0.000 A 
ATOM     29  C   UNL     1       6.617   1.014  -1.000  0.00  0.00    +0.000 A 
ATOM     30  C   UNL     1       5.523   0.301  -0.556  0.00  0.00    +0.000 A 
ATOM     31  C   UNL     1       4.220   0.767  -0.861  0.00  0.00    +0.000 A 
ENDBRANCH  21  22
ENDBRANCH  18  21
ENDBRANCH  17  18
ENDBRANCH   1  17
TORSDOF 10
