REMARK  Name = 
REMARK  10 active torsions:
REMARK  status: ('A' for Active; 'I' for Inactive)
REMARK    1  A    between atoms: C_2  and  C_3
REMARK    2  A    between atoms: C_3  and  C_4
REMARK    3  A    between atoms: C_4  and  N_5
REMARK    4  A    between atoms: N_5  and  C_6
REMARK    5  A    between atoms: C_11  and  C_12
REMARK    6  A    between atoms: C_12  and  O_14
REMARK    7  A    between atoms: O_14  and  C_15
REMARK    8  A    between atoms: C_15  and  C_17
REMARK    9  A    between atoms: N_19  and  C_20
REMARK   10  A    between atoms: C_25  and  C_26
REMARK                            x       y       z     vdW  Elec       q    Type
REMARK                         _______ _______ _______ _____ _____    ______ ____
ROOT
ATOM      1  C   UNL     1      -0.100  -0.841  -1.062  0.00  0.00    +0.000 C 
ATOM      2  C   UNL     1      -0.619  -1.278   0.542  0.00  0.00    +0.000 C 
ENDROOT
BRANCH   1   3
ATOM      3  C   UNL     1      -1.003   0.539  -0.885  0.00  0.00    +0.000 C 
ATOM      4  O   UNL     1      -0.378   1.585  -0.898  0.00  0.00    +0.000 OA
ATOM      5  N   UNL     1      -2.317   0.398  -0.716  0.00  0.00    +0.000 NA
BRANCH   5   6
ATOM      6  C   UNL     1      -3.250   1.408  -0.491  0.00  0.00    +0.000 A 
ATOM      7  C   UNL     1      -3.134   2.749  -0.480  0.00  0.00    +0.000 A 
ATOM      8  C   UNL     1      -4.202   3.584  -0.139  0.00  0.00    +0.000 A 
ATOM      9  C   UNL     1      -5.433   3.087   0.206  0.00  0.00    +0.000 A 
ATOM     10  C   UNL     1      -5.553   1.699   0.193  0.00  0.00    +0.000 A 
ATOM     11  C   UNL     1      -4.527   0.861  -0.137  0.00  0.00    +0.000 A 
BRANCH  11  12
ATOM     12  C   UNL     1      -4.668  -0.569  -0.130  0.00  0.00    +0.000 A 
ATOM     13  C   UNL     1      -5.237  -1.258   0.898  0.00  0.00    +0.000 A 
ATOM     14  C   UNL     1      -5.371  -2.618   0.927  0.00  0.00    +0.000 A 
ATOM     15  C   UNL     1      -4.893  -3.330  -0.167  0.00  0.00    +0.000 A 
ATOM     16  C   UNL     1      -4.315  -2.655  -1.210  0.00  0.00    +0.000 A 
ATOM     17  C   UNL     1      -4.187  -1.290  -1.229  0.00  0.00    +0.000 A 
ENDBRANCH  11  12
ENDBRANCH   5   6
ENDBRANCH   1   3
BRANCH   1  18
ATOM     18  O   UNL     1       1.202  -0.185  -0.503  0.00  0.00    +0.000 OA
BRANCH  18  19
ATOM     19  C   UNL     1       2.068  -1.175  -0.130  0.00  0.00    +0.000 C 
ATOM     20  O   UNL     1       1.664  -2.372  -0.300  0.00  0.00    +0.000 OA
BRANCH  19  26
ATOM     21  C   UNL     1       4.015   0.184   0.584  0.00  0.00    +0.000 A 
ATOM     22  C   UNL     1       5.159   0.230   1.397  0.00  0.00    +0.000 A 
ATOM     23  C   UNL     1       5.637  -0.895   2.039  0.00  0.00    +0.000 A 
ATOM     24  C   UNL     1       5.008  -2.103   1.909  0.00  0.00    +0.000 A 
ATOM     25  C   UNL     1       3.892  -2.136   1.120  0.00  0.00    +0.000 A 
ATOM     26  C   UNL     1       3.385  -0.996   0.456  0.00  0.00    +0.000 A 
BRANCH  21  27
ATOM     27  N   UNL     1       3.561   1.298  -0.175  0.00  0.00    +0.000 NA
BRANCH  27  28
ATOM     28  C   UNL     1       4.485   2.466  -0.152  0.00  0.00    +0.000 C 
BRANCH  28  29
ATOM     29  C   UNL     1       5.909   1.884  -0.374  0.00  0.00    +0.000 C 
BRANCH  29  31
ATOM     30  C   UNL     1       7.290   0.570  -2.016  0.00  0.00    +0.000 C 
ATOM     31  C   UNL     1       5.912   1.159  -1.733  0.00  0.00    +0.000 C 
ENDBRANCH  29  31
ENDBRANCH  28  29
ENDBRANCH  27  28
ENDBRANCH  21  27
ENDBRANCH  19  26
ENDBRANCH  18  19
ENDBRANCH   1  18
TORSDOF 10
