REMARK  Name = 
REMARK  7 active torsions:
REMARK  status: ('A' for Active; 'I' for Inactive)
REMARK    1  A    between atoms: O_2  and  C_3
REMARK    2  A    between atoms: C_6  and  N_7
REMARK    3  A    between atoms: C_10  and  N_11
REMARK    4  A    between atoms: N_11  and  C_12
REMARK    5  A    between atoms: C_15  and  C_16
REMARK    6  A    between atoms: C_21  and  S_22
REMARK    7  A    between atoms: S_22  and  C_23
REMARK                            x       y       z     vdW  Elec       q    Type
REMARK                         _______ _______ _______ _____ _____    ______ ____
ROOT
ATOM      1  N   UNL     1      -0.834  -0.669  -0.816  0.00  0.00    +0.000 N 
ATOM      2  C   UNL     1      -0.453   0.667  -1.096  0.00  0.00    +0.000 C 
ATOM      3  O   UNL     1      -1.252   1.597  -1.484  0.00  0.00    +0.000 OA
ATOM      4  C   UNL     1       0.971   0.773  -0.867  0.00  0.00    +0.000 C 
ATOM      5  C   UNL     1       1.412  -0.404  -0.479  0.00  0.00    +0.000 C 
ATOM      6  C   UNL     1       0.334  -1.371  -0.421  0.00  0.00    +0.000 C 
ATOM      7  O   UNL     1       0.389  -2.603  -0.089  0.00  0.00    +0.000 OA
ENDROOT
BRANCH   1  11
ATOM      8  C   UNL     1      -4.645  -2.391  -1.032  0.00  0.00    +0.000 A 
ATOM      9  C   UNL     1      -3.642  -3.020  -0.329  0.00  0.00    +0.000 A 
ATOM     10  C   UNL     1      -2.399  -2.434  -0.273  0.00  0.00    +0.000 A 
ATOM     11  C   UNL     1      -2.134  -1.239  -0.899  0.00  0.00    +0.000 A 
ATOM     12  C   UNL     1      -3.109  -0.614  -1.591  0.00  0.00    +0.000 A 
ATOM     13  C   UNL     1      -4.365  -1.179  -1.664  0.00  0.00    +0.000 A 
BRANCH   8  15
ATOM     14  C   UNL     1      -6.963  -2.380  -1.796  0.00  0.00    +0.000 C 
ATOM     15  O   UNL     1      -5.902  -2.980  -1.092  0.00  0.00    +0.000 OA
ENDBRANCH   8  15
ENDBRANCH   1  11
BRANCH   4  16
ATOM     16  N   UNL     1       1.789   1.935  -1.018  0.00  0.00    +0.000 NA
BRANCH  16  17
ATOM     17  C   UNL     1       1.371   3.130  -0.389  0.00  0.00    +0.000 A 
ATOM     18  C   UNL     1       2.132   4.284  -0.418  0.00  0.00    +0.000 A 
ATOM     19  C   UNL     1       1.673   5.419   0.210  0.00  0.00    +0.000 A 
ATOM     20  C   UNL     1       0.482   5.481   0.878  0.00  0.00    +0.000 A 
ATOM     21  C   UNL     1      -0.300   4.322   0.917  0.00  0.00    +0.000 A 
ATOM     22  C   UNL     1       0.174   3.178   0.278  0.00  0.00    +0.000 A 
BRANCH  20  23
ATOM     23  C   UNL     1      -0.017   6.700   1.555  0.00  0.00    +0.000 C 
ATOM     24  C   UNL     1       0.533   6.791   2.945  0.00  0.00    +0.000 C 
ATOM     25  C   UNL     1      -1.544   6.693   1.551  0.00  0.00    +0.000 C 
ENDBRANCH  20  23
ENDBRANCH  16  17
ENDBRANCH   4  16
BRANCH   5  26
ATOM     26  S   UNL     1       3.135  -0.754  -0.076  0.00  0.00    +0.000 S 
BRANCH  26  27
ATOM     27  C   UNL     1       3.237  -2.452   0.424  0.00  0.00    +0.000 A 
ATOM     28  C   UNL     1       3.065  -2.716   1.771  0.00  0.00    +0.000 A 
ATOM     29  C   UNL     1       3.117  -3.979   2.275  0.00  0.00    +0.000 A 
ATOM     30  C   UNL     1       3.349  -5.054   1.421  0.00  0.00    +0.000 A 
ATOM     31  C   UNL     1       3.409  -6.461   1.950  0.00  0.00    +0.000 C 
ATOM     32  C   UNL     1       3.519  -4.774   0.083  0.00  0.00    +0.000 A 
ATOM     33  C   UNL     1       3.467  -3.496  -0.431  0.00  0.00    +0.000 A 
ENDBRANCH  26  27
ENDBRANCH   5  26
TORSDOF 7
