REMARK  Name = 
REMARK  9 active torsions:
REMARK  status: ('A' for Active; 'I' for Inactive)
REMARK    1  A    between atoms: C_2  and  C_3
REMARK    2  A    between atoms: C_3  and  C_4
REMARK    3  A    between atoms: C_4  and  C_5
REMARK    4  A    between atoms: C_5  and  C_6
REMARK    5  A    between atoms: C_5  and  C_8
REMARK    6  A    between atoms: N_10  and  C_11
REMARK    7  A    between atoms: C_14  and  C_15
REMARK    8  A    between atoms: N_17  and  C_18
REMARK    9  A    between atoms: N_17  and  C_24
REMARK                            x       y       z     vdW  Elec       q    Type
REMARK                         _______ _______ _______ _____ _____    ______ ____
ROOT
ATOM      1  C   UNL     1       2.044  -0.539  -0.392  0.00  0.00    +0.000 A 
ATOM      2  C   UNL     1       1.263   0.545  -0.699  0.00  0.00    +0.000 A 
ATOM      3  C   UNL     1      -0.121   0.422  -0.558  0.00  0.00    +0.000 A 
ATOM      4  C   UNL     1      -0.750  -0.718  -0.131  0.00  0.00    +0.000 A 
ATOM      5  C   UNL     1       0.064  -1.807   0.175  0.00  0.00    +0.000 A 
ATOM      6  C   UNL     1       1.439  -1.692   0.038  0.00  0.00    +0.000 A 
ENDROOT
BRANCH   1   9
ATOM      7  C   UNL     1       4.283  -1.564  -0.195  0.00  0.00    +0.000 C 
ATOM      8  O   UNL     1       3.757  -2.611   0.206  0.00  0.00    +0.000 OA
ATOM      9  N   UNL     1       3.448  -0.485  -0.511  0.00  0.00    +0.000 NA
BRANCH   7  10
ATOM     10  C   UNL     1       5.833  -1.410  -0.358  0.00  0.00    +0.000 C 
BRANCH  10  11
ATOM     11  C   UNL     1       6.188  -2.946   0.230  0.00  0.00    +0.000 C 
ATOM     12  C   UNL     1       5.934  -3.800  -0.994  0.00  0.00    +0.000 C 
ENDBRANCH  10  11
BRANCH  10  13
ATOM     13  C   UNL     1       6.163  -0.718   1.053  0.00  0.00    +0.000 C 
BRANCH  13  14
ATOM     14  C   UNL     1       6.055   0.715   1.058  0.00  0.00    +0.000 C 
BRANCH  14  16
ATOM     15  C   UNL     1       4.818   2.868   0.810  0.00  0.00    +0.000 C 
ATOM     16  C   UNL     1       4.760   1.353   0.766  0.00  0.00    +0.000 C 
ENDBRANCH  14  16
ENDBRANCH  13  14
ENDBRANCH  10  13
ENDBRANCH   7  10
ENDBRANCH   1   9
BRANCH   4  17
ATOM     17  C   UNL     1      -2.195  -0.833   0.014  0.00  0.00    +0.000 C 
ATOM     18  O   UNL     1      -2.657  -1.938   0.410  0.00  0.00    +0.000 OA
ATOM     19  N   UNL     1      -3.071   0.218  -0.266  0.00  0.00    +0.000 N 
BRANCH  19  20
ATOM     20  C   UNL     1      -2.543   1.452  -0.709  0.00  0.00    +0.000 A 
ATOM     21  C   UNL     1      -2.285   2.486   0.145  0.00  0.00    +0.000 A 
ATOM     22  C   UNL     1      -1.767   3.684  -0.344  0.00  0.00    +0.000 A 
ATOM     23  C   UNL     1      -1.509   3.839  -1.689  0.00  0.00    +0.000 A 
ATOM     24  C   UNL     1      -1.770   2.798  -2.543  0.00  0.00    +0.000 A 
ATOM     25  C   UNL     1      -2.281   1.622  -2.047  0.00  0.00    +0.000 A 
ENDBRANCH  19  20
BRANCH  19  26
ATOM     26  C   UNL     1      -4.481   0.032  -0.100  0.00  0.00    +0.000 A 
ATOM     27  C   UNL     1      -4.955  -0.662   0.982  0.00  0.00    +0.000 A 
ATOM     28  C   UNL     1      -6.314  -0.846   1.151  0.00  0.00    +0.000 A 
ATOM     29  C   UNL     1      -7.233  -0.349   0.257  0.00  0.00    +0.000 A 
ATOM     30  C   UNL     1      -6.738   0.350  -0.830  0.00  0.00    +0.000 A 
ATOM     31  C   UNL     1      -5.379   0.535  -1.001  0.00  0.00    +0.000 A 
ENDBRANCH  19  26
ENDBRANCH   4  17
TORSDOF 9
