REMARK  Name = 
REMARK  6 active torsions:
REMARK  status: ('A' for Active; 'I' for Inactive)
REMARK    1  A    between atoms: O_2  and  C_3
REMARK    2  A    between atoms: C_8  and  N_9
REMARK    3  A    between atoms: C_10  and  C_12
REMARK    4  A    between atoms: C_13  and  N_14
REMARK    5  A    between atoms: C_15  and  C_17
REMARK    6  A    between atoms: C_17  and  C_18
REMARK                            x       y       z     vdW  Elec       q    Type
REMARK                         _______ _______ _______ _____ _____    ______ ____
ROOT
ATOM      1  C   UNL     1      -0.613   0.604   0.453  0.00  0.00    +0.000 A 
ATOM      2  C   UNL     1       0.753   0.578   0.442  0.00  0.00    +0.000 A 
ATOM      3  S   UNL     1       1.184   2.103   1.078  0.00  0.00    +0.000 S 
ATOM      4  C   UNL     1      -0.392   2.744   1.345  0.00  0.00    +0.000 A 
ATOM      5  C   UNL     1      -1.198   1.716   0.917  0.00  0.00    +0.000 A 
ATOM      6  C   UNL     1      -2.644   2.169   1.100  0.00  0.00    +0.000 C 
ATOM      7  C   UNL     1      -2.736   3.258   0.098  0.00  0.00    +0.000 C 
ATOM      8  C   UNL     1      -1.963   4.593   0.628  0.00  0.00    +0.000 C 
ATOM      9  C   UNL     1      -0.734   4.449  -0.460  0.00  0.00    +0.000 C 
ATOM     10  C   UNL     1      -1.098   3.933   1.846  0.00  0.00    +0.000 C 
ENDROOT
BRANCH   1  12
ATOM     11  N   UNL     1      -2.836  -0.544  -0.025  0.00  0.00    +0.000 NA
ATOM     12  C   UNL     1      -1.407  -0.551  -0.029  0.00  0.00    +0.000 C 
ATOM     13  O   UNL     1      -0.802  -1.565  -0.451  0.00  0.00    +0.000 OA
BRANCH  11  19
ATOM     14  C   UNL     1      -4.903  -1.706  -0.509  0.00  0.00    +0.000 A 
ATOM     15  C   UNL     1      -5.580  -2.813  -0.971  0.00  0.00    +0.000 A 
ATOM     16  C   UNL     1      -4.915  -3.933  -1.438  0.00  0.00    +0.000 A 
ATOM     17  C   UNL     1      -3.545  -3.921  -1.433  0.00  0.00    +0.000 A 
ATOM     18  C   UNL     1      -2.846  -2.806  -0.969  0.00  0.00    +0.000 A 
ATOM     19  C   UNL     1      -3.522  -1.707  -0.510  0.00  0.00    +0.000 A 
BRANCH  14  21
ATOM     20  C   UNL     1      -7.011  -0.601  -0.048  0.00  0.00    +0.000 C 
ATOM     21  O   UNL     1      -5.601  -0.606  -0.051  0.00  0.00    +0.000 OA
ENDBRANCH  14  21
ENDBRANCH  11  19
ENDBRANCH   1  12
BRANCH   2  22
ATOM     22  N   UNL     1       1.649  -0.446   0.015  0.00  0.00    +0.000 NA
ATOM     23  C   UNL     1       3.047  -0.281   0.084  0.00  0.00    +0.000 C 
ATOM     24  O   UNL     1       3.518   0.781   0.527  0.00  0.00    +0.000 OA
BRANCH  23  25
ATOM     25  C   UNL     1       3.926  -1.361  -0.366  0.00  0.00    +0.000 C 
BRANCH  25  26
ATOM     26  C   UNL     1       5.367  -1.033  -0.230  0.00  0.00    +0.000 A 
ATOM     27  C   UNL     1       5.970  -0.421  -1.310  0.00  0.00    +0.000 A 
ATOM     28  C   UNL     1       7.310  -0.064  -1.308  0.00  0.00    +0.000 A 
ATOM     29  C   UNL     1       8.041  -0.333  -0.196  0.00  0.00    +0.000 A 
ATOM     30  C   UNL     1       7.465  -0.942   0.895  0.00  0.00    +0.000 A 
ATOM     31  C   UNL     1       6.115  -1.294   0.876  0.00  0.00    +0.000 A 
ENDBRANCH  25  26
ENDBRANCH  23  25
ENDBRANCH   2  22
TORSDOF 6
