REMARK  Name = 
REMARK  7 active torsions:
REMARK  status: ('A' for Active; 'I' for Inactive)
REMARK    1  A    between atoms: C_3  and  C_4
REMARK    2  A    between atoms: N_6  and  C_7
REMARK    3  A    between atoms: C_7  and  C_9
REMARK    4  A    between atoms: C_9  and  C_10
REMARK    5  A    between atoms: C_10  and  C_11
REMARK    6  A    between atoms: N_24  and  C_25
REMARK    7  A    between atoms: C_25  and  C_26
REMARK                            x       y       z     vdW  Elec       q    Type
REMARK                         _______ _______ _______ _____ _____    ______ ____
ROOT
ATOM      1  C   UNL     1       0.201   0.812   1.284  0.00  0.00    +0.000 C 
ATOM      2  C   UNL     1      -0.891  -0.011   0.715  0.00  0.00    +0.000 A 
ATOM      3  C   UNL     1      -0.682  -1.091  -0.109  0.00  0.00    +0.000 A 
ATOM      4  C   UNL     1      -1.959  -1.547  -0.395  0.00  0.00    +0.000 A 
ATOM      5  C   UNL     1      -2.338  -2.602  -1.176  0.00  0.00    +0.000 A 
ATOM      6  C   UNL     1      -3.656  -2.892  -1.334  0.00  0.00    +0.000 A 
ATOM      7  O   UNL     1      -4.037  -3.977  -2.138  0.00  0.00    +0.000 OA
ATOM      8  C   UNL     1      -4.603  -2.124  -0.710  0.00  0.00    +0.000 A 
ATOM      9  C   UNL     1      -4.202  -1.045   0.089  0.00  0.00    +0.000 A 
ATOM     10  C   UNL     1      -2.870  -0.734   0.263  0.00  0.00    +0.000 A 
ATOM     11  N   UNL     1      -2.185   0.205   0.940  0.00  0.00    +0.000 N 
ENDROOT
BRANCH   3  12
ATOM     12  C   UNL     1       0.571  -1.681  -0.594  0.00  0.00    +0.000 C 
ATOM     13  O   UNL     1       0.573  -2.687  -1.340  0.00  0.00    +0.000 OA
ATOM     14  N   UNL     1       1.759  -1.099  -0.206  0.00  0.00    +0.000 NA
BRANCH  14  15
ATOM     15  C   UNL     1       3.152  -1.589  -0.608  0.00  0.00    +0.000 C 
ATOM     16  C   UNL     1       2.673  -2.755  -1.623  0.00  0.00    +0.000 C 
BRANCH  15  17
ATOM     17  C   UNL     1       3.400  -0.484  -1.771  0.00  0.00    +0.000 C 
BRANCH  17  18
ATOM     18  C   UNL     1       3.327   0.878  -1.127  0.00  0.00    +0.000 C 
BRANCH  18  19
ATOM     19  C   UNL     1       4.361   0.944  -0.069  0.00  0.00    +0.000 A 
ATOM     20  C   UNL     1       5.642   1.349  -0.351  0.00  0.00    +0.000 A 
ATOM     21  C   UNL     1       6.648   1.443   0.583  0.00  0.00    +0.000 A 
ATOM     22  C   UNL     1       6.366   1.113   1.886  0.00  0.00    +0.000 A 
ATOM     23  C   UNL     1       5.093   0.703   2.202  0.00  0.00    +0.000 A 
ATOM     24  C   UNL     1       4.088   0.614   1.246  0.00  0.00    +0.000 A 
ENDBRANCH  18  19
ENDBRANCH  17  18
ENDBRANCH  15  17
ENDBRANCH  14  15
ENDBRANCH   3  12
BRANCH  11  25
ATOM     25  C   UNL     1      -2.765   1.230   1.771  0.00  0.00    +0.000 C 
BRANCH  25  26
ATOM     26  C   UNL     1      -3.122   2.477   1.073  0.00  0.00    +0.000 A 
ATOM     27  C   UNL     1      -4.436   2.685   0.619  0.00  0.00    +0.000 A 
ATOM     28  C   UNL     1      -4.452   3.921   0.018  0.00  0.00    +0.000 A 
ATOM     29  C   UNL     1      -3.190   4.419   0.117  0.00  0.00    +0.000 A 
ATOM     30  O   UNL     1      -2.467   3.526   0.743  0.00  0.00    +0.000 OA
ENDBRANCH  25  26
ENDBRANCH  11  25
TORSDOF 7
