REMARK  Name = 
REMARK  8 active torsions:
REMARK  status: ('A' for Active; 'I' for Inactive)
REMARK    1  A    between atoms: C_2  and  C_3
REMARK    2  A    between atoms: C_3  and  C_4
REMARK    3  A    between atoms: C_4  and  C_5
REMARK    4  A    between atoms: C_8  and  N_9
REMARK    5  A    between atoms: C_12  and  N_13
REMARK    6  A    between atoms: N_13  and  C_14
REMARK    7  A    between atoms: C_21  and  S_22
REMARK    8  A    between atoms: S_22  and  C_23
REMARK                            x       y       z     vdW  Elec       q    Type
REMARK                         _______ _______ _______ _____ _____    ______ ____
ROOT
ATOM      1  N   UNL     1       0.607  -0.117  -0.622  0.00  0.00    +0.000 N 
ATOM      2  C   UNL     1      -0.070  -1.384  -0.618  0.00  0.00    +0.000 C 
ATOM      3  O   UNL     1       0.477  -2.511  -0.681  0.00  0.00    +0.000 OA
ATOM      4  C   UNL     1      -1.501  -1.144  -0.527  0.00  0.00    +0.000 C 
ATOM      5  C   UNL     1      -1.672   0.179  -0.478  0.00  0.00    +0.000 C 
ATOM      6  C   UNL     1      -0.398   0.877  -0.532  0.00  0.00    +0.000 C 
ATOM      7  O   UNL     1      -0.174   2.110  -0.508  0.00  0.00    +0.000 OA
ENDROOT
BRANCH   1  11
ATOM      8  C   UNL     1       4.746   0.420  -1.017  0.00  0.00    +0.000 A 
ATOM      9  C   UNL     1       4.229  -0.822  -0.647  0.00  0.00    +0.000 A 
ATOM     10  C   UNL     1       2.881  -1.010  -0.503  0.00  0.00    +0.000 A 
ATOM     11  C   UNL     1       2.023   0.053  -0.729  0.00  0.00    +0.000 A 
ATOM     12  C   UNL     1       2.543   1.259  -1.087  0.00  0.00    +0.000 A 
ATOM     13  C   UNL     1       3.907   1.480  -1.241  0.00  0.00    +0.000 A 
BRANCH   8  14
ATOM     14  C   UNL     1       6.224   0.497  -1.149  0.00  0.00    +0.000 C 
BRANCH  14  15
ATOM     15  C   UNL     1       6.847   0.923   0.162  0.00  0.00    +0.000 C 
BRANCH  15  17
ATOM     16  C   UNL     1       7.046   2.631   1.924  0.00  0.00    +0.000 C 
ATOM     17  C   UNL     1       6.360   2.289   0.608  0.00  0.00    +0.000 C 
ENDBRANCH  15  17
ENDBRANCH  14  15
ENDBRANCH   8  14
ENDBRANCH   1  11
BRANCH   4  18
ATOM     18  N   UNL     1      -2.587  -2.079  -0.488  0.00  0.00    +0.000 NA
BRANCH  18  19
ATOM     19  C   UNL     1      -2.620  -3.149   0.432  0.00  0.00    +0.000 A 
ATOM     20  C   UNL     1      -1.646  -3.390   1.377  0.00  0.00    +0.000 A 
ATOM     21  C   UNL     1      -1.707  -4.447   2.262  0.00  0.00    +0.000 A 
ATOM     22  C   UNL     1      -2.791  -5.283   2.181  0.00  0.00    +0.000 A 
ATOM     23  C   UNL     1      -3.770  -5.081   1.267  0.00  0.00    +0.000 A 
ATOM     24  C   UNL     1      -3.698  -4.021   0.387  0.00  0.00    +0.000 A 
ATOM     25  C   UNL     1      -4.791  -3.835  -0.596  0.00  0.00    +0.000 C 
ENDBRANCH  18  19
ENDBRANCH   4  18
BRANCH   5  26
ATOM     26  S   UNL     1      -3.248   1.016  -0.360  0.00  0.00    +0.000 S 
BRANCH  26  27
ATOM     27  C   UNL     1      -3.023   2.756  -0.098  0.00  0.00    +0.000 A 
ATOM     28  C   UNL     1      -2.867   3.667  -1.116  0.00  0.00    +0.000 A 
ATOM     29  C   UNL     1      -2.714   4.997  -0.821  0.00  0.00    +0.000 A 
ATOM     30  C   UNL     1      -2.716   5.428   0.478  0.00  0.00    +0.000 A 
ATOM     31  C   UNL     1      -2.872   4.517   1.493  0.00  0.00    +0.000 A 
ATOM     32  C   UNL     1      -3.027   3.175   1.247  0.00  0.00    +0.000 A 
ENDBRANCH  26  27
ENDBRANCH   5  26
TORSDOF 8
