REMARK  Name = 
REMARK  6 active torsions:
REMARK  status: ('A' for Active; 'I' for Inactive)
REMARK    1  A    between atoms: C_6  and  N_7
REMARK    2  A    between atoms: N_7  and  C_8
REMARK    3  A    between atoms: C_9  and  S_10
REMARK    4  A    between atoms: S_10  and  C_11
REMARK    5  A    between atoms: N_19  and  C_20
REMARK    6  A    between atoms: C_23  and  C_24
REMARK                            x       y       z     vdW  Elec       q    Type
REMARK                         _______ _______ _______ _____ _____    ______ ____
ROOT
ATOM      1  C   UNL     1      -1.141  -0.644   0.638  0.00  0.00    +0.000 C 
ATOM      2  C   UNL     1      -1.206   0.690   0.585  0.00  0.00    +0.000 C 
ATOM      3  C   UNL     1       0.119   1.254   0.352  0.00  0.00    +0.000 C 
ATOM      4  O   UNL     1       0.421   2.478   0.248  0.00  0.00    +0.000 OA
ATOM      5  N   UNL     1       1.014   0.158   0.265  0.00  0.00    +0.000 N 
ATOM      6  C   UNL     1       0.248  -1.026   0.440  0.00  0.00    +0.000 C 
ATOM      7  O   UNL     1       0.627  -2.228   0.438  0.00  0.00    +0.000 OA
ENDROOT
BRANCH   5   8
ATOM      8  C   UNL     1       2.427   0.217   0.037  0.00  0.00    +0.000 A 
ATOM      9  C   UNL     1       3.259  -0.858   0.255  0.00  0.00    +0.000 A 
ATOM     10  C   UNL     1       4.622  -0.821   0.038  0.00  0.00    +0.000 A 
ATOM     11  C   UNL     1       5.176   0.343  -0.418  0.00  0.00    +0.000 A 
ATOM     12  C   UNL     1       4.385   1.441  -0.649  0.00  0.00    +0.000 A 
ATOM     13  C   UNL     1       3.026   1.388  -0.428  0.00  0.00    +0.000 A 
BRANCH  11  14
ATOM     14  C   UNL     1       6.628   0.492  -0.687  0.00  0.00    +0.000 C 
ATOM     15  C   UNL     1       6.827   0.490  -2.197  0.00  0.00    +0.000 C 
ATOM     16  C   UNL     1       7.441  -0.649  -0.121  0.00  0.00    +0.000 C 
ENDBRANCH  11  14
ENDBRANCH   5   8
BRANCH   1  17
ATOM     17  N   UNL     1      -2.275  -1.454   0.847  0.00  0.00    +0.000 NA
BRANCH  17  23
ATOM     18  C   UNL     1      -5.189  -5.359   0.037  0.00  0.00    +0.000 C 
ATOM     19  C   UNL     1      -3.940  -4.588  -0.282  0.00  0.00    +0.000 A 
ATOM     20  C   UNL     1      -3.055  -5.036  -1.240  0.00  0.00    +0.000 A 
ATOM     21  C   UNL     1      -1.892  -4.317  -1.535  0.00  0.00    +0.000 A 
ATOM     22  C   UNL     1      -1.667  -3.153  -0.836  0.00  0.00    +0.000 A 
ATOM     23  C   UNL     1      -2.520  -2.662   0.131  0.00  0.00    +0.000 A 
ATOM     24  C   UNL     1      -3.652  -3.414   0.379  0.00  0.00    +0.000 A 
ATOM     25  C   UNL     1      -4.588  -2.909   1.416  0.00  0.00    +0.000 C 
ENDBRANCH  17  23
ENDBRANCH   1  17
BRANCH   2  26
ATOM     26  S   UNL     1      -2.687   1.688   0.763  0.00  0.00    +0.000 S 
BRANCH  26  27
ATOM     27  C   UNL     1      -2.335   3.408   0.585  0.00  0.00    +0.000 A 
ATOM     28  C   UNL     1      -2.392   3.982  -0.688  0.00  0.00    +0.000 A 
ATOM     29  C   UNL     1      -2.124   5.326  -0.868  0.00  0.00    +0.000 A 
ATOM     30  C   UNL     1      -1.802   6.082   0.235  0.00  0.00    +0.000 A 
ATOM     31  C   UNL     1      -1.743   5.516   1.510  0.00  0.00    +0.000 A 
ATOM     32  C   UNL     1      -2.014   4.164   1.670  0.00  0.00    +0.000 A 
ENDBRANCH  26  27
ENDBRANCH   2  26
TORSDOF 6
