REMARK  Name = 
REMARK  7 active torsions:
REMARK  status: ('A' for Active; 'I' for Inactive)
REMARK    1  A    between atoms: C_2  and  C_4
REMARK    2  A    between atoms: C_4  and  O_5
REMARK    3  A    between atoms: O_5  and  C_6
REMARK    4  A    between atoms: C_10  and  C_11
REMARK    5  A    between atoms: C_13  and  C_14
REMARK    6  A    between atoms: N_16  and  N_17
REMARK    7  A    between atoms: C_18  and  C_19
REMARK                            x       y       z     vdW  Elec       q    Type
REMARK                         _______ _______ _______ _____ _____    ______ ____
ROOT
ATOM      1  C   UNL     1      -0.842  -0.220  -0.060  0.00  0.00    +0.000 A 
ATOM      2  C   UNL     1       0.259   0.116  -0.825  0.00  0.00    +0.000 A 
ATOM      3  C   UNL     1       1.355  -0.712  -0.885  0.00  0.00    +0.000 A 
ATOM      4  C   UNL     1       1.308  -1.881  -0.156  0.00  0.00    +0.000 A 
ATOM      5  C   UNL     1       2.361  -2.765  -0.159  0.00  0.00    +0.000 A 
ATOM      6  C   UNL     1       2.295  -3.914   0.567  0.00  0.00    +0.000 A 
ATOM      7  C   UNL     1       1.201  -4.255   1.332  0.00  0.00    +0.000 A 
ATOM      8  C   UNL     1       0.142  -3.388   1.350  0.00  0.00    +0.000 A 
ATOM      9  C   UNL     1       0.191  -2.211   0.614  0.00  0.00    +0.000 A 
ATOM     10  N   UNL     1      -0.857  -1.369   0.641  0.00  0.00    +0.000 NA
ENDROOT
BRANCH   1  15
ATOM     11  C   UNL     1      -4.238   1.141   0.853  0.00  0.00    +0.000 A 
ATOM     12  C   UNL     1      -4.256   2.323   0.148  0.00  0.00    +0.000 A 
ATOM     13  C   UNL     1      -3.160   2.677  -0.625  0.00  0.00    +0.000 A 
ATOM     14  C   UNL     1      -2.041   1.845  -0.694  0.00  0.00    +0.000 A 
ATOM     15  C   UNL     1      -2.019   0.659   0.010  0.00  0.00    +0.000 A 
ATOM     16  C   UNL     1      -3.107   0.321   0.770  0.00  0.00    +0.000 A 
BRANCH  11  17
ATOM     17  O   UNL     1      -5.269   0.693   1.650  0.00  0.00    +0.000 OA
BRANCH  17  18
ATOM     18  C   UNL     1      -6.473   1.380   1.850  0.00  0.00    +0.000 C 
BRANCH  18  20
ATOM     19  C   UNL     1      -8.517   2.362   0.952  0.00  0.00    +0.000 C 
ATOM     20  C   UNL     1      -7.252   1.618   0.596  0.00  0.00    +0.000 C 
ATOM     21  C   UNL     1      -7.661   0.288  -0.003  0.00  0.00    +0.000 C 
ENDBRANCH  18  20
ENDBRANCH  17  18
ENDBRANCH  11  17
ENDBRANCH   1  15
BRANCH   3  22
ATOM     22  C   UNL     1       2.539  -0.394  -1.682  0.00  0.00    +0.000 C 
ATOM     23  O   UNL     1       2.531   0.685  -2.329  0.00  0.00    +0.000 OA
ATOM     24  N   UNL     1       3.671  -1.210  -1.768  0.00  0.00    +0.000 NA
BRANCH  24  25
ATOM     25  N   UNL     1       4.808  -0.921  -2.522  0.00  0.00    +0.000 NA
ATOM     26  C   UNL     1       5.739  -0.234  -1.969  0.00  0.00    +0.000 C 
BRANCH  26  27
ATOM     27  C   UNL     1       5.564   0.201  -0.606  0.00  0.00    +0.000 A 
ATOM     28  C   UNL     1       6.489   0.941   0.092  0.00  0.00    +0.000 A 
ATOM     29  C   UNL     1       5.955   1.151   1.345  0.00  0.00    +0.000 A 
ATOM     30  C   UNL     1       4.727   0.527   1.348  0.00  0.00    +0.000 A 
ATOM     31  O   UNL     1       4.558  -0.014   0.165  0.00  0.00    +0.000 OA
ENDBRANCH  26  27
ENDBRANCH  24  25
ENDBRANCH   3  22
TORSDOF 7
