REMARK  Name = 
REMARK  7 active torsions:
REMARK  status: ('A' for Active; 'I' for Inactive)
REMARK    1  A    between atoms: C_2  and  C_3
REMARK    2  A    between atoms: C_6  and  N_7
REMARK    3  A    between atoms: C_8  and  C_10
REMARK    4  A    between atoms: C_10  and  S_11
REMARK    5  A    between atoms: S_11  and  C_12
REMARK    6  A    between atoms: C_15  and  C_16
REMARK    7  A    between atoms: C_16  and  C_17
REMARK                            x       y       z     vdW  Elec       q    Type
REMARK                         _______ _______ _______ _____ _____    ______ ____
ROOT
ATOM      1  C   UNL     1      -0.667   1.947  -0.546  0.00  0.00    +0.000 A 
ATOM      2  N   UNL     1      -1.628   2.486   0.270  0.00  0.00    +0.000 NA
ATOM      3  N   UNL     1      -2.193   1.506   0.907  0.00  0.00    +0.000 NA
ATOM      4  C   UNL     1      -1.638   0.342   0.539  0.00  0.00    +0.000 A 
ATOM      5  N   UNL     1      -0.670   0.609  -0.382  0.00  0.00    +0.000 N 
ATOM      6  C   UNL     1       0.164  -0.361  -1.065  0.00  0.00    +0.000 C 
ENDROOT
BRANCH   1   7
ATOM      7  S   UNL     1       0.305   2.977  -1.617  0.00  0.00    +0.000 S 
BRANCH   7   8
ATOM      8  C   UNL     1       1.727   3.667  -0.809  0.00  0.00    +0.000 C 
BRANCH   8  10
ATOM      9  N   UNL     1       2.831   1.341  -0.665  0.00  0.00    +0.000 NA
ATOM     10  C   UNL     1       2.769   2.717  -0.441  0.00  0.00    +0.000 C 
ATOM     11  O   UNL     1       3.793   3.203   0.183  0.00  0.00    +0.000 OA
BRANCH   9  15
ATOM     12  C   UNL     1       6.117  -1.045   0.616  0.00  0.00    +0.000 A 
ATOM     13  C   UNL     1       5.052  -1.638  -0.058  0.00  0.00    +0.000 A 
ATOM     14  C   UNL     1       3.990  -0.813  -0.462  0.00  0.00    +0.000 A 
ATOM     15  C   UNL     1       3.945   0.531  -0.232  0.00  0.00    +0.000 A 
ATOM     16  C   UNL     1       5.002   1.116   0.435  0.00  0.00    +0.000 A 
ATOM     17  C   UNL     1       6.070   0.304   0.845  0.00  0.00    +0.000 A 
BRANCH  12  19
ATOM     18  C   UNL     1       8.352  -1.965   0.017  0.00  0.00    +0.000 C 
ATOM     19  C   UNL     1       7.273  -1.875   1.072  0.00  0.00    +0.000 C 
ENDBRANCH  12  19
ENDBRANCH   9  15
ENDBRANCH   8  10
ENDBRANCH   7   8
ENDBRANCH   1   7
BRANCH   4  20
ATOM     20  C   UNL     1      -1.939  -1.037   0.992  0.00  0.00    +0.000 C 
BRANCH  20  21
ATOM     21  C   UNL     1      -3.083  -1.588   0.174  0.00  0.00    +0.000 A 
ATOM     22  C   UNL     1      -2.862  -2.486  -0.822  0.00  0.00    +0.000 A 
ATOM     23  C   UNL     1      -3.908  -2.989  -1.568  0.00  0.00    +0.000 A 
ATOM     24  C   UNL     1      -5.179  -2.554  -1.272  0.00  0.00    +0.000 A 
ATOM     25  C   UNL     1      -5.407  -1.649  -0.269  0.00  0.00    +0.000 A 
ATOM     26  C   UNL     1      -6.667  -1.205   0.043  0.00  0.00    +0.000 A 
ATOM     27  C   UNL     1      -6.857  -0.295   1.061  0.00  0.00    +0.000 A 
ATOM     28  C   UNL     1      -5.791   0.179   1.777  0.00  0.00    +0.000 A 
ATOM     29  C   UNL     1      -4.541  -0.257   1.475  0.00  0.00    +0.000 A 
ATOM     30  C   UNL     1      -4.358  -1.167   0.455  0.00  0.00    +0.000 A 
ENDBRANCH  20  21
ENDBRANCH   4  20
TORSDOF 7
