REMARK  Name = 
REMARK  6 active torsions:
REMARK  status: ('A' for Active; 'I' for Inactive)
REMARK    1  A    between atoms: C_7  and  C_8
REMARK    2  A    between atoms: N_10  and  C_11
REMARK    3  A    between atoms: C_11  and  C_12
REMARK    4  A    between atoms: N_26  and  C_27
REMARK    5  A    between atoms: C_27  and  C_28
REMARK    6  A    between atoms: C_28  and  C_29
REMARK                            x       y       z     vdW  Elec       q    Type
REMARK                         _______ _______ _______ _____ _____    ______ ____
ROOT
ATOM      1  O   UNL     1      -2.790   2.337  -3.277  0.00  0.00    +0.000 OA
ATOM      2  C   UNL     1      -2.146   1.501  -2.566  0.00  0.00    +0.000 C 
ATOM      3  N   UNL     1      -0.970   1.863  -1.860  0.00  0.00    +0.000 NA
ATOM      4  C   UNL     1      -0.288   1.043  -1.128  0.00  0.00    +0.000 C 
ATOM      5  O   UNL     1       0.854   1.421  -0.455  0.00  0.00    +0.000 OA
ATOM      6  C   UNL     1      -0.758  -0.326  -1.025  0.00  0.00    +0.000 C 
ATOM      7  C   UNL     1      -0.161  -1.190  -0.271  0.00  0.00    +0.000 C 
ATOM      8  C   UNL     1      -1.979  -0.757  -1.743  0.00  0.00    +0.000 C 
ATOM      9  O   UNL     1      -2.355  -1.967  -1.630  0.00  0.00    +0.000 OA
ATOM     10  N   UNL     1      -2.689   0.187  -2.533  0.00  0.00    +0.000 N 
ENDROOT
BRANCH   7  11
ATOM     11  C   UNL     1       0.991  -0.949   0.549  0.00  0.00    +0.000 A 
ATOM     12  C   UNL     1       2.236  -1.503   0.369  0.00  0.00    +0.000 A 
ATOM     13  N   UNL     1       3.073  -1.129   1.354  0.00  0.00    +0.000 N 
ATOM     14  C   UNL     1       2.386  -0.317   2.202  0.00  0.00    +0.000 A 
ATOM     15  C   UNL     1       2.834   0.289   3.355  0.00  0.00    +0.000 A 
ATOM     16  C   UNL     1       1.914   1.052   4.042  0.00  0.00    +0.000 A 
ATOM     17  C   UNL     1       0.619   1.203   3.603  0.00  0.00    +0.000 A 
ATOM     18  C   UNL     1       0.220   0.582   2.450  0.00  0.00    +0.000 A 
ATOM     19  C   UNL     1       1.098  -0.191   1.725  0.00  0.00    +0.000 A 
BRANCH  13  20
ATOM     20  C   UNL     1       4.475  -1.512   1.511  0.00  0.00    +0.000 C 
BRANCH  20  21
ATOM     21  C   UNL     1       5.388  -0.581   0.846  0.00  0.00    +0.000 A 
ATOM     22  C   UNL     1       5.871   0.505   1.529  0.00  0.00    +0.000 A 
ATOM     23  C   UNL     1       6.735   1.403   0.929  0.00  0.00    +0.000 A 
ATOM     24  C   UNL     1       7.105   1.187  -0.373  0.00  0.00    +0.000 A 
ATOM     25  C   UNL     1       6.646   0.112  -1.098  0.00  0.00    +0.000 A 
ATOM     26  C   UNL     1       5.779  -0.766  -0.459  0.00  0.00    +0.000 A 
ENDBRANCH  20  21
ENDBRANCH  13  20
ENDBRANCH   7  11
BRANCH  10  27
ATOM     27  C   UNL     1      -3.858  -0.201  -3.247  0.00  0.00    +0.000 C 
BRANCH  27  28
ATOM     28  C   UNL     1      -5.163  -0.006  -2.600  0.00  0.00    +0.000 C 
BRANCH  28  29
ATOM     29  C   UNL     1      -5.375  -0.686  -1.308  0.00  0.00    +0.000 C 
ATOM     30  C   UNL     1      -6.330  -1.626  -1.226  0.00  0.00    +0.000 C 
ATOM     31  C   UNL     1      -6.573  -2.342   0.084  0.00  0.00    +0.000 C 
ATOM     32  C   UNL     1      -6.699  -1.247   1.128  0.00  0.00    +0.000 C 
ATOM     33  C   UNL     1      -5.456  -0.405   1.181  0.00  0.00    +0.000 C 
ATOM     34  C   UNL     1      -4.634  -0.410  -0.059  0.00  0.00    +0.000 C 
ENDBRANCH  28  29
ENDBRANCH  27  28
ENDBRANCH  10  27
TORSDOF 6
