REMARK  Name = 
REMARK  9 active torsions:
REMARK  status: ('A' for Active; 'I' for Inactive)
REMARK    1  A    between atoms: C_2  and  C_3
REMARK    2  A    between atoms: C_9  and  N_10
REMARK    3  A    between atoms: C_11  and  C_13
REMARK    4  A    between atoms: C_13  and  O_14
REMARK    5  A    between atoms: O_14  and  C_15
REMARK    6  A    between atoms: C_15  and  C_17
REMARK    7  A    between atoms: C_17  and  S_18
REMARK    8  A    between atoms: C_17  and  C_25
REMARK    9  A    between atoms: S_18  and  C_19
REMARK                            x       y       z     vdW  Elec       q    Type
REMARK                         _______ _______ _______ _____ _____    ______ ____
ROOT
ATOM      1  C   UNL     1      -0.492   0.071   0.454  0.00  0.00    +0.000 C 
ATOM      2  O   UNL     1       0.171  -0.834  -0.097  0.00  0.00    +0.000 OA
ENDROOT
BRANCH   1   3
ATOM      3  O   UNL     1      -0.018   0.688   1.610  0.00  0.00    +0.000 OA
BRANCH   3   4
ATOM      4  C   UNL     1       1.204   0.315   2.183  0.00  0.00    +0.000 C 
BRANCH   4   6
ATOM      5  N   UNL     1       3.617   0.245   1.527  0.00  0.00    +0.000 NA
ATOM      6  C   UNL     1       2.278   0.552   1.172  0.00  0.00    +0.000 C 
ATOM      7  O   UNL     1       2.051   1.008   0.025  0.00  0.00    +0.000 OA
BRANCH   5  14
ATOM      8  C   UNL     1       4.942  -0.558  -0.297  0.00  0.00    +0.000 A 
ATOM      9  C   UNL     1       5.928  -0.324  -1.229  0.00  0.00    +0.000 A 
ATOM     10  C   UNL     1       6.583   0.891  -1.306  0.00  0.00    +0.000 A 
ATOM     11  C   UNL     1       6.230   1.899  -0.415  0.00  0.00    +0.000 A 
ATOM     12  C   UNL     1       5.250   1.701   0.529  0.00  0.00    +0.000 A 
ATOM     13  C   UNL     1       4.870   2.788   1.490  0.00  0.00    +0.000 C 
ATOM     14  C   UNL     1       4.628   0.472   0.564  0.00  0.00    +0.000 A 
BRANCH   8  16
ATOM     15  C   UNL     1       4.724  -2.844  -1.233  0.00  0.00    +0.000 C 
ATOM     16  C   UNL     1       4.227  -1.879  -0.209  0.00  0.00    +0.000 C 
ENDBRANCH   8  16
ENDBRANCH   5  14
ENDBRANCH   4   6
ENDBRANCH   3   4
ENDBRANCH   1   3
BRANCH   1  17
ATOM     17  C   UNL     1      -1.845   0.529  -0.124  0.00  0.00    +0.000 C 
BRANCH  17  18
ATOM     18  C   UNL     1      -2.735   0.266   1.150  0.00  0.00    +0.000 A 
ATOM     19  C   UNL     1      -2.582  -0.879   1.845  0.00  0.00    +0.000 A 
ATOM     20  C   UNL     1      -3.366  -1.102   2.961  0.00  0.00    +0.000 A 
ATOM     21  C   UNL     1      -4.294  -0.163   3.357  0.00  0.00    +0.000 A 
ATOM     22  C   UNL     1      -4.433   1.001   2.629  0.00  0.00    +0.000 A 
ATOM     23  C   UNL     1      -3.640   1.230   1.499  0.00  0.00    +0.000 A 
ENDBRANCH  17  18
BRANCH  17  24
ATOM     24  S   UNL     1      -2.303  -1.080  -1.018  0.00  0.00    +0.000 S 
BRANCH  24  25
ATOM     25  C   UNL     1      -3.881  -0.827  -1.803  0.00  0.00    +0.000 A 
ATOM     26  C   UNL     1      -5.013  -1.139  -1.067  0.00  0.00    +0.000 A 
ATOM     27  C   UNL     1      -6.290  -0.985  -1.569  0.00  0.00    +0.000 A 
ATOM     28  C   UNL     1      -6.452  -0.500  -2.859  0.00  0.00    +0.000 A 
ATOM     29  C   UNL     1      -5.317  -0.190  -3.591  0.00  0.00    +0.000 A 
ATOM     30  C   UNL     1      -4.041  -0.353  -3.065  0.00  0.00    +0.000 A 
ENDBRANCH  24  25
ENDBRANCH  17  24
ENDBRANCH   1  17
TORSDOF 9
