REMARK  Name = 
REMARK  6 active torsions:
REMARK  status: ('A' for Active; 'I' for Inactive)
REMARK    1  A    between atoms: O_2  and  C_3
REMARK    2  A    between atoms: C_6  and  C_7
REMARK    3  A    between atoms: C_9  and  C_10
REMARK    4  A    between atoms: N_12  and  C_13
REMARK    5  A    between atoms: C_13  and  C_14
REMARK    6  A    between atoms: C_22  and  C_23
REMARK                            x       y       z     vdW  Elec       q    Type
REMARK                         _______ _______ _______ _____ _____    ______ ____
ROOT
ATOM      1  C   UNL     1      -2.091   0.771  -0.231  0.00  0.00    +0.000 A 
ATOM      2  C   UNL     1      -0.997   0.519   0.569  0.00  0.00    +0.000 A 
ATOM      3  C   UNL     1      -0.060  -0.446   0.269  0.00  0.00    +0.000 A 
ATOM      4  C   UNL     1      -0.221  -1.196  -0.883  0.00  0.00    +0.000 A 
ATOM      5  C   UNL     1       0.693  -2.183  -1.236  0.00  0.00    +0.000 A 
ATOM      6  C   UNL     1       0.538  -2.931  -2.382  0.00  0.00    +0.000 A 
ATOM      7  C   UNL     1      -0.562  -2.664  -3.168  0.00  0.00    +0.000 A 
ATOM      8  C   UNL     1      -1.467  -1.686  -2.817  0.00  0.00    +0.000 A 
ATOM      9  C   UNL     1      -1.321  -0.929  -1.671  0.00  0.00    +0.000 A 
ATOM     10  N   UNL     1      -2.221   0.029  -1.342  0.00  0.00    +0.000 NA
ENDROOT
BRANCH   1  14
ATOM     11  C   UNL     1      -4.906   3.807   0.820  0.00  0.00    +0.000 A 
ATOM     12  C   UNL     1      -5.077   3.061  -0.338  0.00  0.00    +0.000 A 
ATOM     13  C   UNL     1      -4.162   2.079  -0.673  0.00  0.00    +0.000 A 
ATOM     14  C   UNL     1      -3.071   1.815   0.120  0.00  0.00    +0.000 A 
ATOM     15  C   UNL     1      -2.901   2.559   1.274  0.00  0.00    +0.000 A 
ATOM     16  C   UNL     1      -3.811   3.543   1.617  0.00  0.00    +0.000 A 
BRANCH  11  18
ATOM     17  C   UNL     1      -5.603   5.533   2.359  0.00  0.00    +0.000 C 
ATOM     18  O   UNL     1      -5.826   4.806   1.173  0.00  0.00    +0.000 OA
ENDBRANCH  11  18
ENDBRANCH   1  14
BRANCH   3  19
ATOM     19  C   UNL     1       1.097  -0.706   1.123  0.00  0.00    +0.000 C 
ATOM     20  O   UNL     1       1.216   0.000   2.165  0.00  0.00    +0.000 OA
ATOM     21  N   UNL     1       2.061  -1.684   0.844  0.00  0.00    +0.000 NA
BRANCH  21  22
ATOM     22  C   UNL     1       3.186  -1.865   1.767  0.00  0.00    +0.000 C 
BRANCH  22  23
ATOM     23  C   UNL     1       4.159  -0.782   1.573  0.00  0.00    +0.000 A 
ATOM     24  C   UNL     1       4.093   0.385   2.270  0.00  0.00    +0.000 A 
ATOM     25  C   UNL     1       5.013   1.387   2.075  0.00  0.00    +0.000 A 
ATOM     26  C   UNL     1       6.013   1.172   1.145  0.00  0.00    +0.000 A 
ATOM     27  C   UNL     1       6.110   0.003   0.422  0.00  0.00    +0.000 A 
ATOM     28  C   UNL     1       5.168  -0.965   0.653  0.00  0.00    +0.000 A 
ENDBRANCH  22  23
ENDBRANCH  21  22
ENDBRANCH   3  19
BRANCH   6  29
ATOM     29  C   UNL     1       1.527  -3.992  -2.761  0.00  0.00    +0.000 C 
ATOM     30  C   UNL     1       0.854  -5.315  -3.039  0.00  0.00    +0.000 C 
ATOM     31  C   UNL     1       2.570  -4.126  -1.698  0.00  0.00    +0.000 C 
ENDBRANCH   6  29
TORSDOF 6
