REMARK  Name = 
REMARK  8 active torsions:
REMARK  status: ('A' for Active; 'I' for Inactive)
REMARK    1  A    between atoms: O_2  and  C_3
REMARK    2  A    between atoms: C_3  and  C_5
REMARK    3  A    between atoms: N_8  and  C_9
REMARK    4  A    between atoms: C_9  and  C_10
REMARK    5  A    between atoms: C_10  and  O_11
REMARK    6  A    between atoms: O_11  and  C_12
REMARK    7  A    between atoms: C_15  and  C_16
REMARK    8  A    between atoms: C_16  and  C_19
REMARK                            x       y       z     vdW  Elec       q    Type
REMARK                         _______ _______ _______ _____ _____    ______ ____
ROOT
ATOM      1  C   UNL     1       0.963   1.178  -2.052  0.00  0.00    +0.000 C 
ENDROOT
BRANCH   1   2
ATOM      2  C   UNL     1       1.985   0.464  -2.899  0.00  0.00    +0.000 C 
BRANCH   2   6
ATOM      3  C   UNL     1       4.416  -0.993  -0.612  0.00  0.00    +0.000 A 
ATOM      4  C   UNL     1       3.950   0.063  -1.379  0.00  0.00    +0.000 A 
ATOM      5  C   UNL     1       4.622   1.400  -1.485  0.00  0.00    +0.000 C 
ATOM      6  N   UNL     1       2.810  -0.319  -2.001  0.00  0.00    +0.000 N 
ATOM      7  C   UNL     1       2.523  -1.589  -1.660  0.00  0.00    +0.000 A 
ATOM      8  C   UNL     1       1.472  -2.421  -2.028  0.00  0.00    +0.000 A 
ATOM      9  C   UNL     1       1.379  -3.694  -1.553  0.00  0.00    +0.000 A 
ATOM     10  C   UNL     1       2.353  -4.144  -0.693  0.00  0.00    +0.000 A 
ATOM     11  O   UNL     1       2.253  -5.435  -0.214  0.00  0.00    +0.000 OA
ATOM     12  C   UNL     1       3.402  -3.315  -0.324  0.00  0.00    +0.000 A 
ATOM     13  C   UNL     1       3.505  -2.025  -0.800  0.00  0.00    +0.000 A 
BRANCH   3  14
ATOM     14  C   UNL     1       5.614  -1.037   0.229  0.00  0.00    +0.000 C 
ATOM     15  O   UNL     1       5.594  -0.705   1.445  0.00  0.00    +0.000 OA
BRANCH  14  17
ATOM     16  C   UNL     1       7.956  -1.495   0.494  0.00  0.00    +0.000 C 
ATOM     17  O   UNL     1       6.812  -1.461  -0.340  0.00  0.00    +0.000 OA
ENDBRANCH  14  17
ENDBRANCH   3  14
ENDBRANCH   2   6
ENDBRANCH   1   2
BRANCH   1  18
ATOM     18  O   UNL     1       0.146   0.250  -1.326  0.00  0.00    +0.000 OA
BRANCH  18  19
ATOM     19  C   UNL     1      -0.835   0.793  -0.510  0.00  0.00    +0.000 A 
ATOM     20  C   UNL     1      -1.670  -0.019   0.228  0.00  0.00    +0.000 A 
ATOM     21  C   UNL     1      -2.655   0.486   1.050  0.00  0.00    +0.000 A 
ATOM     22  C   UNL     1      -2.858   1.848   1.177  0.00  0.00    +0.000 A 
ATOM     23  C   UNL     1      -2.029   2.666   0.443  0.00  0.00    +0.000 A 
ATOM     24  C   UNL     1      -1.040   2.153  -0.381  0.00  0.00    +0.000 A 
BRANCH  22  25
ATOM     25  C   UNL     1      -3.926   2.395   2.068  0.00  0.00    +0.000 C 
ATOM     26  C   UNL     1      -3.897   3.920   1.904  0.00  0.00    +0.000 C 
ATOM     27  C   UNL     1      -3.617   2.049   3.498  0.00  0.00    +0.000 C 
BRANCH  25  28
ATOM     28  C   UNL     1      -5.264   1.929   1.624  0.00  0.00    +0.000 A 
ATOM     29  C   UNL     1      -5.612   0.592   1.669  0.00  0.00    +0.000 A 
ATOM     30  C   UNL     1      -6.860   0.191   1.250  0.00  0.00    +0.000 A 
ATOM     31  C   UNL     1      -7.806   1.058   0.777  0.00  0.00    +0.000 A 
ATOM     32  C   UNL     1      -7.464   2.409   0.728  0.00  0.00    +0.000 A 
ATOM     33  C   UNL     1      -6.220   2.805   1.147  0.00  0.00    +0.000 A 
ENDBRANCH  25  28
ENDBRANCH  22  25
ENDBRANCH  18  19
ENDBRANCH   1  18
TORSDOF 8
