REMARK  Name = 
REMARK  6 active torsions:
REMARK  status: ('A' for Active; 'I' for Inactive)
REMARK    1  A    between atoms: C_2  and  C_4
REMARK    2  A    between atoms: C_4  and  C_5
REMARK    3  A    between atoms: C_8  and  C_9
REMARK    4  A    between atoms: C_11  and  C_12
REMARK    5  A    between atoms: N_14  and  C_15
REMARK    6  A    between atoms: C_15  and  C_17
REMARK                            x       y       z     vdW  Elec       q    Type
REMARK                         _______ _______ _______ _____ _____    ______ ____
ROOT
ATOM      1  C   UNL     1      -1.606   0.139  -0.701  0.00  0.00    +0.000 A 
ATOM      2  C   UNL     1      -0.447   0.782  -0.361  0.00  0.00    +0.000 A 
ATOM      3  C   UNL     1       0.760   0.555  -0.985  0.00  0.00    +0.000 A 
ATOM      4  C   UNL     1       0.763  -0.377  -2.004  0.00  0.00    +0.000 A 
ATOM      5  C   UNL     1       1.968  -0.607  -2.630  0.00  0.00    +0.000 A 
ATOM      6  C   UNL     1       2.001  -1.532  -3.652  0.00  0.00    +0.000 A 
ATOM      7  C   UNL     1       0.868  -2.194  -4.021  0.00  0.00    +0.000 A 
ATOM      8  C   UNL     1      -0.326  -1.941  -3.372  0.00  0.00    +0.000 A 
ATOM      9  C   UNL     1      -0.409  -1.021  -2.341  0.00  0.00    +0.000 A 
ATOM     10  N   UNL     1      -1.562  -0.761  -1.697  0.00  0.00    +0.000 NA
ENDROOT
BRANCH   1  14
ATOM     11  C   UNL     1      -5.246   0.951   1.355  0.00  0.00    +0.000 A 
ATOM     12  C   UNL     1      -5.200   0.034   0.337  0.00  0.00    +0.000 A 
ATOM     13  C   UNL     1      -4.029  -0.246  -0.347  0.00  0.00    +0.000 A 
ATOM     14  C   UNL     1      -2.872   0.412   0.001  0.00  0.00    +0.000 A 
ATOM     15  C   UNL     1      -2.921   1.333   1.024  0.00  0.00    +0.000 A 
ATOM     16  C   UNL     1      -4.102   1.614   1.712  0.00  0.00    +0.000 A 
BRANCH  11  17
ATOM     17  C   UNL     1      -6.550   1.172   2.022  0.00  0.00    +0.000 C 
BRANCH  17  19
ATOM     18  C   UNL     1      -6.572  -1.228   2.734  0.00  0.00    +0.000 C 
ATOM     19  C   UNL     1      -6.656   0.211   3.190  0.00  0.00    +0.000 C 
ATOM     20  C   UNL     1      -5.530   0.519   4.127  0.00  0.00    +0.000 C 
ENDBRANCH  17  19
ENDBRANCH  11  17
ENDBRANCH   1  14
BRANCH   3  21
ATOM     21  C   UNL     1       1.980   1.266  -0.581  0.00  0.00    +0.000 C 
ATOM     22  O   UNL     1       1.921   2.131   0.312  0.00  0.00    +0.000 OA
ATOM     23  N   UNL     1       3.237   1.005  -1.172  0.00  0.00    +0.000 NA
BRANCH  23  24
ATOM     24  C   UNL     1       4.447   1.863  -0.615  0.00  0.00    +0.000 C 
ATOM     25  C   UNL     1       5.508   1.209  -1.744  0.00  0.00    +0.000 C 
BRANCH  24  26
ATOM     26  C   UNL     1       4.837   0.871   0.548  0.00  0.00    +0.000 A 
ATOM     27  C   UNL     1       3.829   0.420   1.314  0.00  0.00    +0.000 A 
ATOM     28  C   UNL     1       4.090  -0.465   2.378  0.00  0.00    +0.000 A 
ATOM     29  N   UNL     1       5.358  -0.825   2.583  0.00  0.00    +0.000 NA
ATOM     30  C   UNL     1       6.353  -0.371   1.815  0.00  0.00    +0.000 A 
ATOM     31  C   UNL     1       6.109   0.498   0.769  0.00  0.00    +0.000 A 
ENDBRANCH  24  26
ENDBRANCH  23  24
ENDBRANCH   3  21
TORSDOF 6
