REMARK  Name = 
REMARK  7 active torsions:
REMARK  status: ('A' for Active; 'I' for Inactive)
REMARK    1  A    between atoms: C_3  and  C_4
REMARK    2  A    between atoms: C_10  and  C_11
REMARK    3  A    between atoms: C_15  and  O_16
REMARK    4  A    between atoms: O_16  and  C_17
REMARK    5  A    between atoms: C_17  and  C_18
REMARK    6  A    between atoms: N_27  and  C_28
REMARK    7  A    between atoms: C_28  and  C_29
REMARK                            x       y       z     vdW  Elec       q    Type
REMARK                         _______ _______ _______ _____ _____    ______ ____
ROOT
ATOM      1  C   UNL     1      -3.771   1.638   1.519  0.00  0.00    +0.000 C 
ATOM      2  C   UNL     1      -2.317   1.399   1.300  0.00  0.00    +0.000 A 
ATOM      3  C   UNL     1      -1.683   0.214   1.001  0.00  0.00    +0.000 A 
ATOM      4  C   UNL     1      -0.337   0.473   0.888  0.00  0.00    +0.000 A 
ATOM      5  C   UNL     1       0.779  -0.292   0.611  0.00  0.00    +0.000 A 
ATOM      6  C   UNL     1       2.026   0.302   0.573  0.00  0.00    +0.000 A 
ATOM      7  C   UNL     1       2.178   1.653   0.809  0.00  0.00    +0.000 A 
ATOM      8  C   UNL     1       1.056   2.405   1.085  0.00  0.00    +0.000 A 
ATOM      9  C   UNL     1      -0.193   1.821   1.125  0.00  0.00    +0.000 A 
ATOM     10  N   UNL     1      -1.389   2.381   1.373  0.00  0.00    +0.000 N 
ENDROOT
BRANCH   3  11
ATOM     11  C   UNL     1      -2.324  -1.075   0.835  0.00  0.00    +0.000 C 
ATOM     12  O   UNL     1      -2.419  -1.757   1.920  0.00  0.00    +0.000 OA
ATOM     13  N   UNL     1      -2.786  -1.523  -0.366  0.00  0.00    +0.000 N 
ATOM     14  C   UNL     1      -2.742  -0.874  -1.623  0.00  0.00    +0.000 C 
ATOM     15  C   UNL     1      -2.184  -1.931  -2.554  0.00  0.00    +0.000 C 
ATOM     16  C   UNL     1      -2.239  -3.240  -1.822  0.00  0.00    +0.000 C 
ATOM     17  C   UNL     1      -3.485  -2.823  -0.785  0.00  0.00    +0.000 C 
BRANCH  17  18
ATOM     18  C   UNL     1      -2.906  -3.788   0.435  0.00  0.00    +0.000 C 
ATOM     19  O   UNL     1      -3.497  -5.028   0.142  0.00  0.00    +0.000 OA
ENDBRANCH  17  18
ENDBRANCH   3  11
BRANCH   6  20
ATOM     20  O   UNL     1       3.157  -0.439   0.298  0.00  0.00    +0.000 OA
BRANCH  20  21
ATOM     21  C   UNL     1       3.084  -1.833   0.045  0.00  0.00    +0.000 C 
BRANCH  21  22
ATOM     22  C   UNL     1       4.430  -2.364  -0.216  0.00  0.00    +0.000 A 
ATOM     23  C   UNL     1       4.637  -3.678  -0.488  0.00  0.00    +0.000 A 
ATOM     24  C   UNL     1       5.900  -4.193  -0.736  0.00  0.00    +0.000 A 
ATOM     25  C   UNL     1       6.981  -3.332  -0.704  0.00  0.00    +0.000 A 
ATOM     26  C   UNL     1       6.813  -1.990  -0.432  0.00  0.00    +0.000 A 
ATOM     27  C   UNL     1       5.548  -1.522  -0.192  0.00  0.00    +0.000 A 
ENDBRANCH  21  22
ENDBRANCH  20  21
ENDBRANCH   6  20
BRANCH  10  28
ATOM     28  C   UNL     1      -1.656   3.776   1.668  0.00  0.00    +0.000 C 
BRANCH  28  29
ATOM     29  C   UNL     1      -1.914   4.537   0.432  0.00  0.00    +0.000 A 
ATOM     30  C   UNL     1      -3.151   4.715  -0.140  0.00  0.00    +0.000 A 
ATOM     31  C   UNL     1      -2.973   5.490  -1.293  0.00  0.00    +0.000 A 
ATOM     32  C   UNL     1      -1.603   5.727  -1.330  0.00  0.00    +0.000 A 
ATOM     33  O   UNL     1      -1.020   5.148  -0.296  0.00  0.00    +0.000 OA
ENDBRANCH  28  29
ENDBRANCH  10  28
TORSDOF 7
