REMARK  Name = 
REMARK  8 active torsions:
REMARK  status: ('A' for Active; 'I' for Inactive)
REMARK    1  A    between atoms: O_2  and  C_3
REMARK    2  A    between atoms: C_6  and  O_7
REMARK    3  A    between atoms: C_9  and  N_10
REMARK    4  A    between atoms: C_11  and  C_13
REMARK    5  A    between atoms: C_13  and  S_14
REMARK    6  A    between atoms: S_14  and  C_15
REMARK    7  A    between atoms: C_24  and  C_25
REMARK    8  A    between atoms: C_25  and  C_26
REMARK                            x       y       z     vdW  Elec       q    Type
REMARK                         _______ _______ _______ _____ _____    ______ ____
ROOT
ATOM      1  C   UNL     1      -2.306  -0.495   0.298  0.00  0.00    +0.000 A 
ATOM      2  N   UNL     1      -2.810  -1.119   1.370  0.00  0.00    +0.000 NA
ATOM      3  C   UNL     1      -3.967  -1.805   1.291  0.00  0.00    +0.000 A 
ATOM      4  C   UNL     1      -4.466  -2.441   2.413  0.00  0.00    +0.000 A 
ATOM      5  C   UNL     1      -5.639  -3.138   2.337  0.00  0.00    +0.000 A 
ATOM      6  C   UNL     1      -6.312  -3.193   1.122  0.00  0.00    +0.000 A 
ATOM      7  C   UNL     1      -5.809  -2.557   0.008  0.00  0.00    +0.000 A 
ATOM      8  C   UNL     1      -4.608  -1.839   0.071  0.00  0.00    +0.000 A 
ATOM      9  C   UNL     1      -4.128  -1.212  -1.062  0.00  0.00    +0.000 A 
ATOM     10  C   UNL     1      -2.932  -0.520  -0.918  0.00  0.00    +0.000 A 
ENDROOT
BRANCH   1  11
ATOM     11  S   UNL     1      -0.764   0.383   0.451  0.00  0.00    +0.000 S 
BRANCH  11  12
ATOM     12  C   UNL     1       0.560  -0.798   0.076  0.00  0.00    +0.000 C 
BRANCH  12  14
ATOM     13  N   UNL     1       3.011  -1.028  -0.118  0.00  0.00    +0.000 NA
ATOM     14  C   UNL     1       1.894  -0.194   0.154  0.00  0.00    +0.000 C 
ATOM     15  O   UNL     1       1.986   1.023   0.456  0.00  0.00    +0.000 OA
BRANCH  13  20
ATOM     16  C   UNL     1       5.833   1.382   0.318  0.00  0.00    +0.000 A 
ATOM     17  C   UNL     1       6.927   0.580   0.059  0.00  0.00    +0.000 A 
ATOM     18  C   UNL     1       6.676  -0.741  -0.251  0.00  0.00    +0.000 A 
ATOM     19  C   UNL     1       5.400  -1.253  -0.305  0.00  0.00    +0.000 A 
ATOM     20  C   UNL     1       4.307  -0.449  -0.046  0.00  0.00    +0.000 A 
ATOM     21  C   UNL     1       4.557   0.871   0.265  0.00  0.00    +0.000 A 
BRANCH  16  23
ATOM     22  C   UNL     1       4.937   3.580   0.910  0.00  0.00    +0.000 C 
ATOM     23  O   UNL     1       6.027   2.720   0.637  0.00  0.00    +0.000 OA
ENDBRANCH  16  23
BRANCH  19  24
ATOM     24  O   UNL     1       5.192  -2.585  -0.622  0.00  0.00    +0.000 OA
ATOM     25  C   UNL     1       6.271  -3.455  -0.897  0.00  0.00    +0.000 C 
ENDBRANCH  19  24
ENDBRANCH  13  20
ENDBRANCH  12  14
ENDBRANCH  11  12
ENDBRANCH   1  11
BRANCH  10  26
ATOM     26  C   UNL     1      -2.325   0.203  -2.049  0.00  0.00    +0.000 C 
BRANCH  26  27
ATOM     27  C   UNL     1      -2.627   1.635  -1.910  0.00  0.00    +0.000 A 
ATOM     28  C   UNL     1      -3.794   2.178  -2.406  0.00  0.00    +0.000 A 
ATOM     29  C   UNL     1      -4.081   3.526  -2.286  0.00  0.00    +0.000 A 
ATOM     30  C   UNL     1      -3.203   4.378  -1.661  0.00  0.00    +0.000 A 
ATOM     31  C   UNL     1      -2.035   3.856  -1.160  0.00  0.00    +0.000 A 
ATOM     32  C   UNL     1      -1.770   2.507  -1.292  0.00  0.00    +0.000 A 
ENDBRANCH  26  27
ENDBRANCH  10  26
TORSDOF 8
