REMARK  Name = 
REMARK  8 active torsions:
REMARK  status: ('A' for Active; 'I' for Inactive)
REMARK    1  A    between atoms: O_2  and  C_3
REMARK    2  A    between atoms: C_8  and  O_9
REMARK    3  A    between atoms: O_9  and  C_10
REMARK    4  A    between atoms: C_10  and  C_11
REMARK    5  A    between atoms: C_11  and  N_12
REMARK    6  A    between atoms: C_13  and  S_14
REMARK    7  A    between atoms: S_14  and  C_15
REMARK    8  A    between atoms: C_15  and  C_16
REMARK                            x       y       z     vdW  Elec       q    Type
REMARK                         _______ _______ _______ _____ _____    ______ ____
ROOT
ATOM      1  N   UNL     1       0.046   1.792   0.079  0.00  0.00    +0.000 N 
ATOM      2  C   UNL     1      -0.527   2.130   1.235  0.00  0.00    +0.000 A 
ATOM      3  N   UNL     1      -0.556   3.498   1.253  0.00  0.00    +0.000 NA
ATOM      4  C   UNL     1      -0.011   3.951   0.125  0.00  0.00    +0.000 A 
ATOM      5  C   UNL     1       0.218   5.224  -0.383  0.00  0.00    +0.000 A 
ATOM      6  C   UNL     1       0.817   5.372  -1.609  0.00  0.00    +0.000 A 
ATOM      7  C   UNL     1       1.204   4.298  -2.366  0.00  0.00    +0.000 A 
ATOM      8  C   UNL     1       0.989   3.038  -1.888  0.00  0.00    +0.000 A 
ATOM      9  C   UNL     1       0.379   2.876  -0.637  0.00  0.00    +0.000 A 
ENDROOT
BRANCH   1  10
ATOM     10  C   UNL     1       0.357   0.447  -0.404  0.00  0.00    +0.000 C 
BRANCH  10  11
ATOM     11  C   UNL     1       1.772   0.140   0.093  0.00  0.00    +0.000 C 
BRANCH  11  12
ATOM     12  O   UNL     1       2.198  -1.148  -0.307  0.00  0.00    +0.000 OA
BRANCH  12  18
ATOM     13  C   UNL     1       3.884  -2.827  -0.316  0.00  0.00    +0.000 A 
ATOM     14  C   UNL     1       5.136  -3.292   0.037  0.00  0.00    +0.000 A 
ATOM     15  C   UNL     1       5.943  -2.446   0.789  0.00  0.00    +0.000 A 
ATOM     16  C   UNL     1       5.531  -1.203   1.172  0.00  0.00    +0.000 A 
ATOM     17  C   UNL     1       4.296  -0.741   0.826  0.00  0.00    +0.000 A 
ATOM     18  C   UNL     1       3.458  -1.563   0.071  0.00  0.00    +0.000 A 
BRANCH  13  20
ATOM     19  C   UNL     1       3.423  -4.923  -1.482  0.00  0.00    +0.000 C 
ATOM     20  O   UNL     1       3.018  -3.631  -1.075  0.00  0.00    +0.000 OA
ENDBRANCH  13  20
ENDBRANCH  12  18
ENDBRANCH  11  12
ENDBRANCH  10  11
ENDBRANCH   1  10
BRANCH   2  21
ATOM     21  S   UNL     1      -1.195   1.087   2.520  0.00  0.00    +0.000 S 
BRANCH  21  22
ATOM     22  C   UNL     1      -1.219  -0.625   1.991  0.00  0.00    +0.000 C 
BRANCH  22  23
ATOM     23  C   UNL     1      -2.328  -0.843   1.053  0.00  0.00    +0.000 A 
ATOM     24  N   UNL     1      -2.498  -0.791  -0.260  0.00  0.00    +0.000 NA
ATOM     25  C   UNL     1      -3.760  -1.089  -0.615  0.00  0.00    +0.000 A 
ATOM     26  C   UNL     1      -4.476  -1.186  -1.791  0.00  0.00    +0.000 A 
ATOM     27  C   UNL     1      -5.814  -1.524  -1.853  0.00  0.00    +0.000 A 
ATOM     28  C   UNL     1      -6.476  -1.780  -0.663  0.00  0.00    +0.000 A 
ATOM     29  C   UNL     1      -5.793  -1.694   0.541  0.00  0.00    +0.000 A 
ATOM     30  C   UNL     1      -4.446  -1.350   0.560  0.00  0.00    +0.000 A 
ATOM     31  N   UNL     1      -3.569  -1.196   1.532  0.00  0.00    +0.000 NA
ENDBRANCH  22  23
ENDBRANCH  21  22
ENDBRANCH   2  21
TORSDOF 8
