REMARK  Name = 
REMARK  7 active torsions:
REMARK  status: ('A' for Active; 'I' for Inactive)
REMARK    1  A    between atoms: O_2  and  C_3
REMARK    2  A    between atoms: C_8  and  C_9
REMARK    3  A    between atoms: C_12  and  C_13
REMARK    4  A    between atoms: C_19  and  C_20
REMARK    5  A    between atoms: N_22  and  C_23
REMARK    6  A    between atoms: C_23  and  C_24
REMARK    7  A    between atoms: C_27  and  C_28
REMARK                            x       y       z     vdW  Elec       q    Type
REMARK                         _______ _______ _______ _____ _____    ______ ____
ROOT
ATOM      1  C   UNL     1      -1.319  -1.665   0.592  0.00  0.00    +0.000 C 
ATOM      2  O   UNL     1      -1.771  -2.645  -0.506  0.00  0.00    +0.000 OA
ATOM      3  N   UNL     1      -2.831  -1.948  -0.979  0.00  0.00    +0.000 NA
ATOM      4  C   UNL     1      -2.202  -0.684  -1.306  0.00  0.00    +0.000 C 
ATOM      5  C   UNL     1      -1.291  -0.405  -0.458  0.00  0.00    +0.000 C 
ENDROOT
BRANCH   1  11
ATOM      6  C   UNL     1      -3.108  -0.111   1.579  0.00  0.00    +0.000 A 
ATOM      7  C   UNL     1      -4.379   0.065   2.135  0.00  0.00    +0.000 A 
ATOM      8  C   UNL     1      -5.250  -0.980   2.312  0.00  0.00    +0.000 A 
ATOM      9  C   UNL     1      -4.847  -2.262   1.926  0.00  0.00    +0.000 A 
ATOM     10  C   UNL     1      -3.599  -2.422   1.382  0.00  0.00    +0.000 A 
ATOM     11  C   UNL     1      -2.762  -1.385   1.214  0.00  0.00    +0.000 A 
BRANCH   6  13
ATOM     12  C   UNL     1      -2.744   2.254   1.856  0.00  0.00    +0.000 C 
ATOM     13  O   UNL     1      -2.305   0.995   1.438  0.00  0.00    +0.000 OA
ENDBRANCH   6  13
ENDBRANCH   1  11
BRANCH   4  14
ATOM     14  C   UNL     1      -2.561   0.182  -2.442  0.00  0.00    +0.000 A 
ATOM     15  C   UNL     1      -3.957   0.353  -2.580  0.00  0.00    +0.000 A 
ATOM     16  C   UNL     1      -4.487   1.124  -3.583  0.00  0.00    +0.000 A 
ATOM     17  C   UNL     1      -3.602   1.729  -4.453  0.00  0.00    +0.000 A 
ATOM     18  C   UNL     1      -2.222   1.567  -4.328  0.00  0.00    +0.000 A 
ATOM     19  C   UNL     1      -1.731   0.780  -3.302  0.00  0.00    +0.000 A 
ENDBRANCH   4  14
BRANCH   5  20
ATOM     20  C   UNL     1      -0.266   0.612  -0.319  0.00  0.00    +0.000 C 
ATOM     21  O   UNL     1      -0.134   1.454  -1.215  0.00  0.00    +0.000 OA
ATOM     22  N   UNL     1       0.586   0.726   0.785  0.00  0.00    +0.000 NA
BRANCH  22  23
ATOM     23  C   UNL     1       1.612   1.544   1.195  0.00  0.00    +0.000 C 
BRANCH  23  24
ATOM     24  C   UNL     1       2.961   1.036   0.938  0.00  0.00    +0.000 A 
ATOM     25  C   UNL     1       3.389   0.262  -0.089  0.00  0.00    +0.000 A 
ATOM     26  C   UNL     1       4.693  -0.219  -0.148  0.00  0.00    +0.000 A 
ATOM     27  C   UNL     1       5.604   0.074   0.841  0.00  0.00    +0.000 A 
ATOM     28  C   UNL     1       5.140   0.869   1.875  0.00  0.00    +0.000 A 
ATOM     29  C   UNL     1       3.880   1.348   1.952  0.00  0.00    +0.000 A 
BRANCH  27  30
ATOM     30  C   UNL     1       6.997  -0.441   0.894  0.00  0.00    +0.000 C 
ATOM     31  C   UNL     1       7.322  -0.907   2.302  0.00  0.00    +0.000 C 
ATOM     32  C   UNL     1       7.205  -1.568  -0.097  0.00  0.00    +0.000 C 
ATOM     33  C   UNL     1       7.980   0.671   0.586  0.00  0.00    +0.000 C 
ENDBRANCH  27  30
ENDBRANCH  23  24
ENDBRANCH  22  23
ENDBRANCH   5  20
TORSDOF 7
