REMARK  Name = 
REMARK  8 active torsions:
REMARK  status: ('A' for Active; 'I' for Inactive)
REMARK    1  A    between atoms: O_2  and  C_3
REMARK    2  A    between atoms: C_6  and  C_7
REMARK    3  A    between atoms: C_11  and  C_12
REMARK    4  A    between atoms: C_12  and  S_13
REMARK    5  A    between atoms: S_13  and  C_14
REMARK    6  A    between atoms: C_16  and  N_17
REMARK    7  A    between atoms: N_17  and  C_18
REMARK    8  A    between atoms: C_18  and  C_19
REMARK                            x       y       z     vdW  Elec       q    Type
REMARK                         _______ _______ _______ _____ _____    ______ ____
ROOT
ATOM      1  C   UNL     1       0.176   0.016   0.305  0.00  0.00    +0.000 A 
ATOM      2  N   UNL     1       1.395   0.204   0.777  0.00  0.00    +0.000 NA
ATOM      3  C   UNL     1       2.404   0.170  -0.083  0.00  0.00    +0.000 A 
ATOM      4  C   UNL     1       2.224  -0.043  -1.444  0.00  0.00    +0.000 A 
ATOM      5  C   UNL     1       3.289  -0.124  -2.309  0.00  0.00    +0.000 A 
ATOM      6  C   UNL     1       3.094  -0.395  -3.675  0.00  0.00    +0.000 A 
ATOM      7  C   UNL     1       1.820  -0.578  -4.149  0.00  0.00    +0.000 A 
ATOM      8  C   UNL     1       0.759  -0.493  -3.264  0.00  0.00    +0.000 A 
ATOM      9  C   UNL     1       0.950  -0.224  -1.909  0.00  0.00    +0.000 A 
ATOM     10  N   UNL     1      -0.045  -0.192  -1.043  0.00  0.00    +0.000 NA
ENDROOT
BRANCH   1  11
ATOM     11  S   UNL     1      -1.340  -0.229   1.336  0.00  0.00    +0.000 S 
BRANCH  11  12
ATOM     12  C   UNL     1      -2.634  -0.551   0.165  0.00  0.00    +0.000 C 
BRANCH  12  18
ATOM     13  C   UNL     1      -4.253   0.905  -0.690  0.00  0.00    +0.000 A 
ATOM     14  C   UNL     1      -5.512   1.309  -0.908  0.00  0.00    +0.000 A 
ATOM     15  C   UNL     1      -6.549   0.741  -0.222  0.00  0.00    +0.000 A 
ATOM     16  C   UNL     1      -6.334  -0.274   0.729  0.00  0.00    +0.000 A 
ATOM     17  C   UNL     1      -5.056  -0.691   0.957  0.00  0.00    +0.000 A 
ATOM     18  C   UNL     1      -3.981  -0.135   0.260  0.00  0.00    +0.000 A 
BRANCH  16  19
ATOM     19  C   UNL     1      -7.531  -0.788   1.434  0.00  0.00    +0.000 C 
ATOM     20  C   UNL     1      -8.829  -0.113   1.236  0.00  0.00    +0.000 C 
ATOM     21  O   UNL     1      -7.426  -1.757   2.190  0.00  0.00    +0.000 OA
ENDBRANCH  16  19
BRANCH  13  23
ATOM     22  C   UNL     1      -3.241   2.454  -2.264  0.00  0.00    +0.000 C 
ATOM     23  O   UNL     1      -3.110   1.418  -1.324  0.00  0.00    +0.000 OA
ENDBRANCH  13  23
ENDBRANCH  12  18
ENDBRANCH  11  12
ENDBRANCH   1  11
BRANCH   3  24
ATOM     24  N   UNL     1       3.773   0.306   0.311  0.00  0.00    +0.000 NA
BRANCH  24  25
ATOM     25  C   UNL     1       4.192   0.559   1.642  0.00  0.00    +0.000 C 
BRANCH  25  26
ATOM     26  C   UNL     1       5.641   0.236   1.790  0.00  0.00    +0.000 A 
ATOM     27  C   UNL     1       6.390   0.912   2.761  0.00  0.00    +0.000 A 
ATOM     28  C   UNL     1       7.686   0.567   2.937  0.00  0.00    +0.000 A 
ATOM     29  C   UNL     1       8.269  -0.418   2.189  0.00  0.00    +0.000 A 
ATOM     30  C   UNL     1       7.555  -1.087   1.231  0.00  0.00    +0.000 A 
ATOM     31  C   UNL     1       6.224  -0.756   1.032  0.00  0.00    +0.000 A 
ENDBRANCH  25  26
ENDBRANCH  24  25
ENDBRANCH   3  24
TORSDOF 8
