REMARK  Name = 
REMARK  8 active torsions:
REMARK  status: ('A' for Active; 'I' for Inactive)
REMARK    1  A    between atoms: C_2  and  C_4
REMARK    2  A    between atoms: C_4  and  C_5
REMARK    3  A    between atoms: C_5  and  N_6
REMARK    4  A    between atoms: C_5  and  C_17
REMARK    5  A    between atoms: C_7  and  O_9
REMARK    6  A    between atoms: O_9  and  C_10
REMARK    7  A    between atoms: C_10  and  C_11
REMARK    8  A    between atoms: N_19  and  C_20
REMARK                            x       y       z     vdW  Elec       q    Type
REMARK                         _______ _______ _______ _____ _____    ______ ____
ROOT
ATOM      1  C   UNL     1       0.573   1.495   0.110  0.00  0.00    +0.000 C 
ENDROOT
BRANCH   1   2
ATOM      2  N   UNL     1       1.295   0.243   0.335  0.00  0.00    +0.000 NA
ATOM      3  C   UNL     1       2.176  -0.589  -0.238  0.00  0.00    +0.000 C 
ATOM      4  O   UNL     1       2.521  -0.250  -1.379  0.00  0.00    +0.000 OA
BRANCH   3   5
ATOM      5  O   UNL     1       2.678  -1.725   0.432  0.00  0.00    +0.000 OA
BRANCH   5   6
ATOM      6  C   UNL     1       3.764  -2.369  -0.336  0.00  0.00    +0.000 C 
BRANCH   6   7
ATOM      7  C   UNL     1       4.838  -1.304  -0.264  0.00  0.00    +0.000 A 
ATOM      8  C   UNL     1       4.939  -0.288  -1.129  0.00  0.00    +0.000 A 
ATOM      9  C   UNL     1       5.846   0.737  -1.123  0.00  0.00    +0.000 A 
ATOM     10  C   UNL     1       6.768   0.710  -0.078  0.00  0.00    +0.000 A 
ATOM     11  C   UNL     1       6.694  -0.316   0.828  0.00  0.00    +0.000 A 
ATOM     12  C   UNL     1       5.764  -1.354   0.800  0.00  0.00    +0.000 A 
ENDBRANCH   6   7
ENDBRANCH   5   6
ENDBRANCH   3   5
ENDBRANCH   1   2
BRANCH   1  13
ATOM     13  C   UNL     1      -0.870   1.070  -0.302  0.00  0.00    +0.000 C 
ATOM     14  O   UNL     1      -1.271   1.216  -1.472  0.00  0.00    +0.000 OA
ATOM     15  N   UNL     1      -1.704   0.521   0.626  0.00  0.00    +0.000 NA
BRANCH  15  16
ATOM     16  C   UNL     1      -3.002   0.043   0.572  0.00  0.00    +0.000 A 
ATOM     17  C   UNL     1      -3.413  -0.634   1.710  0.00  0.00    +0.000 A 
ATOM     18  C   UNL     1      -4.676  -1.202   1.803  0.00  0.00    +0.000 A 
ATOM     19  C   UNL     1      -5.583  -1.132   0.763  0.00  0.00    +0.000 A 
ATOM     20  C   UNL     1      -6.827  -1.736   0.887  0.00  0.00    +0.000 A 
ATOM     21  C   UNL     1      -7.655  -1.653  -0.182  0.00  0.00    +0.000 A 
ATOM     22  C   UNL     1      -7.306  -1.001  -1.378  0.00  0.00    +0.000 A 
ATOM     23  C   UNL     1      -6.060  -0.396  -1.489  0.00  0.00    +0.000 A 
ATOM     24  C   UNL     1      -5.187  -0.457  -0.403  0.00  0.00    +0.000 A 
ATOM     25  C   UNL     1      -3.929   0.103  -0.439  0.00  0.00    +0.000 A 
ENDBRANCH  15  16
ENDBRANCH   1  13
BRANCH   1  26
ATOM     26  C   UNL     1       1.095   1.990  -1.346  0.00  0.00    +0.000 C 
BRANCH  26  28
ATOM     27  C   UNL     1       3.282   2.699  -2.327  0.00  0.00    +0.000 C 
ATOM     28  C   UNL     1       2.591   2.223  -1.051  0.00  0.00    +0.000 C 
ATOM     29  C   UNL     1       2.661   3.353  -0.038  0.00  0.00    +0.000 C 
ENDBRANCH  26  28
ENDBRANCH   1  26
TORSDOF 8
