REMARK  Name = 
REMARK  7 active torsions:
REMARK  status: ('A' for Active; 'I' for Inactive)
REMARK    1  A    between atoms: C_4  and  S_5
REMARK    2  A    between atoms: S_5  and  C_6
REMARK    3  A    between atoms: C_6  and  C_7
REMARK    4  A    between atoms: N_9  and  C_10
REMARK    5  A    between atoms: N_9  and  C_16
REMARK    6  A    between atoms: C_23  and  C_24
REMARK    7  A    between atoms: C_24  and  C_25
REMARK                            x       y       z     vdW  Elec       q    Type
REMARK                         _______ _______ _______ _____ _____    ______ ____
ROOT
ATOM      1  C   UNL     1      -1.446  -2.451  -0.528  0.00  0.00    +0.000 C 
ENDROOT
BRANCH   1   2
ATOM      2  C   UNL     1      -1.945  -1.137  -0.919  0.00  0.00    +0.000 C 
ATOM      3  O   UNL     1      -1.638  -0.759  -2.107  0.00  0.00    +0.000 OA
ATOM      4  N   UNL     1      -2.716  -0.320  -0.088  0.00  0.00    +0.000 N 
BRANCH   4   5
ATOM      5  C   UNL     1      -3.333   0.846  -0.667  0.00  0.00    +0.000 A 
ATOM      6  C   UNL     1      -4.470   0.567  -1.432  0.00  0.00    +0.000 A 
ATOM      7  C   UNL     1      -5.160   1.585  -2.057  0.00  0.00    +0.000 A 
ATOM      8  C   UNL     1      -4.747   2.883  -1.937  0.00  0.00    +0.000 A 
ATOM      9  C   UNL     1      -3.623   3.153  -1.180  0.00  0.00    +0.000 A 
ATOM     10  C   UNL     1      -2.914   2.113  -0.542  0.00  0.00    +0.000 A 
ENDBRANCH   4   5
BRANCH   4  11
ATOM     11  C   UNL     1      -2.892  -0.604   1.296  0.00  0.00    +0.000 C 
ATOM     12  C   UNL     1      -3.340   0.619   2.067  0.00  0.00    +0.000 C 
ATOM     13  C   UNL     1      -4.454   0.197   3.015  0.00  0.00    +0.000 C 
ATOM     14  C   UNL     1      -5.601  -0.319   2.159  0.00  0.00    +0.000 C 
ATOM     15  C   UNL     1      -5.172  -1.642   1.545  0.00  0.00    +0.000 C 
ATOM     16  C   UNL     1      -3.666  -1.825   1.621  0.00  0.00    +0.000 C 
ENDBRANCH   4  11
ENDBRANCH   1   2
BRANCH   1  17
ATOM     17  S   UNL     1      -0.405  -2.448   0.869  0.00  0.00    +0.000 S 
BRANCH  17  21
ATOM     18  C   UNL     1       4.719  -1.717  -0.341  0.00  0.00    +0.000 C 
ATOM     19  C   UNL     1       3.310  -1.453   0.133  0.00  0.00    +0.000 A 
ATOM     20  N   UNL     1       2.285  -2.313   0.118  0.00  0.00    +0.000 NA
ATOM     21  C   UNL     1       1.192  -1.681   0.635  0.00  0.00    +0.000 A 
ATOM     22  N   UNL     1       1.585  -0.451   0.951  0.00  0.00    +0.000 NA
ATOM     23  C   UNL     1       2.879  -0.245   0.667  0.00  0.00    +0.000 A 
BRANCH  23  24
ATOM     24  C   UNL     1       3.596   1.011   0.933  0.00  0.00    +0.000 C 
BRANCH  24  25
ATOM     25  C   UNL     1       4.984   1.026   0.502  0.00  0.00    +0.000 A 
ATOM     26  C   UNL     1       5.958   0.381   1.226  0.00  0.00    +0.000 A 
ATOM     27  C   UNL     1       7.292   0.414   0.841  0.00  0.00    +0.000 A 
ATOM     28  C   UNL     1       7.649   1.102  -0.281  0.00  0.00    +0.000 A 
ATOM     29  C   UNL     1       6.700   1.760  -1.034  0.00  0.00    +0.000 A 
ATOM     30  C   UNL     1       5.372   1.710  -0.627  0.00  0.00    +0.000 A 
ENDBRANCH  24  25
ENDBRANCH  23  24
ENDBRANCH  17  21
ENDBRANCH   1  17
TORSDOF 7
