REMARK  Name = 
REMARK  6 active torsions:
REMARK  status: ('A' for Active; 'I' for Inactive)
REMARK    1  A    between atoms: O_2  and  C_3
REMARK    2  A    between atoms: C_6  and  C_7
REMARK    3  A    between atoms: C_9  and  C_10
REMARK    4  A    between atoms: C_13  and  O_14
REMARK    5  A    between atoms: C_21  and  C_22
REMARK    6  A    between atoms: C_22  and  C_24
REMARK                            x       y       z     vdW  Elec       q    Type
REMARK                         _______ _______ _______ _____ _____    ______ ____
ROOT
ATOM      1  C   UNL     1       2.331   1.037  -0.176  0.00  0.00    +0.000 A 
ATOM      2  C   UNL     1       2.291  -0.307   0.076  0.00  0.00    +0.000 A 
ATOM      3  C   UNL     1       1.131  -1.059   0.178  0.00  0.00    +0.000 A 
ATOM      4  C   UNL     1      -0.108  -0.409   0.013  0.00  0.00    +0.000 A 
ATOM      5  C   UNL     1      -1.337  -0.952   0.084  0.00  0.00    +0.000 A 
ATOM      6  N   UNL     1      -1.626  -2.358   0.365  0.00  0.00    +0.000 NA
ATOM      7  C   UNL     1      -2.407  -0.119  -0.102  0.00  0.00    +0.000 A 
ATOM      8  S   UNL     1      -1.683   1.391  -0.369  0.00  0.00    +0.000 S 
ATOM      9  C   UNL     1      -0.034   0.935  -0.239  0.00  0.00    +0.000 A 
ATOM     10  N   UNL     1       1.143   1.634  -0.330  0.00  0.00    +0.000 NA
ENDROOT
BRANCH   1  14
ATOM     11  C   UNL     1       5.995   3.218  -0.462  0.00  0.00    +0.000 A 
ATOM     12  C   UNL     1       4.769   3.823  -0.619  0.00  0.00    +0.000 A 
ATOM     13  C   UNL     1       3.575   3.155  -0.534  0.00  0.00    +0.000 A 
ATOM     14  C   UNL     1       3.585   1.804  -0.278  0.00  0.00    +0.000 A 
ATOM     15  C   UNL     1       4.799   1.175  -0.116  0.00  0.00    +0.000 A 
ATOM     16  C   UNL     1       5.982   1.865  -0.205  0.00  0.00    +0.000 A 
BRANCH  11  18
ATOM     17  C   UNL     1       7.107   5.323  -0.822  0.00  0.00    +0.000 C 
ATOM     18  O   UNL     1       7.160   3.930  -0.556  0.00  0.00    +0.000 OA
ENDBRANCH  11  18
ENDBRANCH   1  14
BRANCH   3  19
ATOM     19  C   UNL     1       1.256  -2.496   0.410  0.00  0.00    +0.000 A 
ATOM     20  C   UNL     1       0.683  -3.350  -0.501  0.00  0.00    +0.000 A 
ATOM     21  C   UNL     1       0.766  -4.712  -0.336  0.00  0.00    +0.000 A 
ATOM     22  C   UNL     1       1.430  -5.244   0.748  0.00  0.00    +0.000 A 
ATOM     23  C   UNL     1       1.991  -4.374   1.638  0.00  0.00    +0.000 A 
ATOM     24  C   UNL     1       1.924  -3.008   1.501  0.00  0.00    +0.000 A 
BRANCH  22  25
ATOM     25  O   UNL     1       1.514  -6.630   0.914  0.00  0.00    +0.000 OA
ATOM     26  C   UNL     1       2.168  -7.236   1.986  0.00  0.00    +0.000 C 
ENDBRANCH  22  25
ENDBRANCH   3  19
BRANCH   7  27
ATOM     27  C   UNL     1      -3.849  -0.430  -0.086  0.00  0.00    +0.000 C 
ATOM     28  O   UNL     1      -4.241  -1.606   0.117  0.00  0.00    +0.000 OA
BRANCH  27  29
ATOM     29  C   UNL     1      -4.845   0.600  -0.303  0.00  0.00    +0.000 A 
ATOM     30  C   UNL     1      -5.777   0.491  -1.324  0.00  0.00    +0.000 A 
ATOM     31  C   UNL     1      -6.720   1.485  -1.522  0.00  0.00    +0.000 A 
ATOM     32  C   UNL     1      -6.720   2.571  -0.698  0.00  0.00    +0.000 A 
ATOM     33  C   UNL     1      -7.727   3.644  -0.900  0.00  0.00    +0.000 C 
ATOM     34  C   UNL     1      -5.810   2.717   0.330  0.00  0.00    +0.000 A 
ATOM     35  C   UNL     1      -4.863   1.704   0.516  0.00  0.00    +0.000 A 
ATOM     36  C   UNL     1      -3.855   1.787   1.603  0.00  0.00    +0.000 C 
ENDBRANCH  27  29
ENDBRANCH   7  27
TORSDOF 6
