REMARK  Name = 
REMARK  9 active torsions:
REMARK  status: ('A' for Active; 'I' for Inactive)
REMARK    1  A    between atoms: C_2  and  C_3
REMARK    2  A    between atoms: C_3  and  C_4
REMARK    3  A    between atoms: C_4  and  C_5
REMARK    4  A    between atoms: C_5  and  O_6
REMARK    5  A    between atoms: O_6  and  C_7
REMARK    6  A    between atoms: C_7  and  C_9
REMARK    7  A    between atoms: N_12  and  C_13
REMARK    8  A    between atoms: C_13  and  C_14
REMARK    9  A    between atoms: C_14  and  C_15
REMARK                            x       y       z     vdW  Elec       q    Type
REMARK                         _______ _______ _______ _____ _____    ______ ____
ROOT
ATOM      1  C   UNL     1       0.431   0.302  -0.714  0.00  0.00    +0.000 A 
ATOM      2  C   UNL     1      -0.879   0.258  -1.147  0.00  0.00    +0.000 A 
ATOM      3  N   UNL     1      -1.638   1.390  -1.528  0.00  0.00    +0.000 NA
ATOM      4  N   UNL     1      -1.321  -1.014  -1.151  0.00  0.00    +0.000 N 
ATOM      5  C   UNL     1      -0.311  -1.828  -0.721  0.00  0.00    +0.000 A 
ATOM      6  N   UNL     1      -0.271  -3.162  -0.557  0.00  0.00    +0.000 NA
ATOM      7  C   UNL     1       0.874  -3.732  -0.110  0.00  0.00    +0.000 A 
ATOM      8  C   UNL     1       0.961  -5.109   0.074  0.00  0.00    +0.000 A 
ATOM      9  C   UNL     1       2.139  -5.660   0.530  0.00  0.00    +0.000 A 
ATOM     10  C   UNL     1       3.216  -4.844   0.797  0.00  0.00    +0.000 A 
ATOM     11  C   UNL     1       3.143  -3.485   0.620  0.00  0.00    +0.000 A 
ATOM     12  C   UNL     1       1.956  -2.923   0.159  0.00  0.00    +0.000 A 
ATOM     13  N   UNL     1       1.917  -1.571  -0.006  0.00  0.00    +0.000 NA
ATOM     14  C   UNL     1       0.770  -1.008  -0.453  0.00  0.00    +0.000 A 
ENDROOT
BRANCH   1  15
ATOM     15  C   UNL     1       1.277   1.479  -0.564  0.00  0.00    +0.000 C 
ATOM     16  O   UNL     1       2.454   1.317  -0.153  0.00  0.00    +0.000 OA
BRANCH  15  17
ATOM     17  O   UNL     1       0.847   2.758  -0.852  0.00  0.00    +0.000 OA
BRANCH  17  18
ATOM     18  C   UNL     1       1.643   3.907  -0.716  0.00  0.00    +0.000 C 
BRANCH  18  19
ATOM     19  C   UNL     1       2.128   4.127   0.694  0.00  0.00    +0.000 C 
BRANCH  19  20
ATOM     20  C   UNL     1       2.966   5.381   0.715  0.00  0.00    +0.000 C 
BRANCH  20  22
ATOM     21  C   UNL     1       3.795   5.071  -1.631  0.00  0.00    +0.000 C 
ATOM     22  C   UNL     1       4.164   5.295  -0.194  0.00  0.00    +0.000 C 
ENDBRANCH  20  22
ENDBRANCH  19  20
ENDBRANCH  18  19
ENDBRANCH  17  18
ENDBRANCH  15  17
ENDBRANCH   1  15
BRANCH   4  23
ATOM     23  C   UNL     1      -2.636  -1.490  -1.536  0.00  0.00    +0.000 C 
BRANCH  23  24
ATOM     24  C   UNL     1      -3.602  -1.538  -0.398  0.00  0.00    +0.000 C 
BRANCH  24  25
ATOM     25  C   UNL     1      -3.830  -0.218   0.230  0.00  0.00    +0.000 A 
ATOM     26  C   UNL     1      -4.840   0.642  -0.211  0.00  0.00    +0.000 A 
ATOM     27  C   UNL     1      -4.978   1.854   0.433  0.00  0.00    +0.000 A 
ATOM     28  C   UNL     1      -4.174   2.250   1.482  0.00  0.00    +0.000 A 
ATOM     29  C   UNL     1      -3.185   1.389   1.902  0.00  0.00    +0.000 A 
ATOM     30  C   UNL     1      -3.016   0.160   1.276  0.00  0.00    +0.000 A 
ENDBRANCH  24  25
ENDBRANCH  23  24
ENDBRANCH   4  23
TORSDOF 9
