REMARK  Name = 
REMARK  8 active torsions:
REMARK  status: ('A' for Active; 'I' for Inactive)
REMARK    1  A    between atoms: C_2  and  O_3
REMARK    2  A    between atoms: O_3  and  C_4
REMARK    3  A    between atoms: C_7  and  N_8
REMARK    4  A    between atoms: C_11  and  N_12
REMARK    5  A    between atoms: N_12  and  C_13
REMARK    6  A    between atoms: C_16  and  C_17
REMARK    7  A    between atoms: C_21  and  S_22
REMARK    8  A    between atoms: S_22  and  C_23
REMARK                            x       y       z     vdW  Elec       q    Type
REMARK                         _______ _______ _______ _____ _____    ______ ____
ROOT
ATOM      1  N   UNL     1       1.744  -0.590   0.069  0.00  0.00    +0.000 N 
ATOM      2  C   UNL     1       0.691  -0.116   0.889  0.00  0.00    +0.000 C 
ATOM      3  O   UNL     1       0.768   0.738   1.810  0.00  0.00    +0.000 OA
ATOM      4  C   UNL     1      -0.559  -0.796   0.490  0.00  0.00    +0.000 C 
ATOM      5  C   UNL     1      -0.318  -1.625  -0.489  0.00  0.00    +0.000 C 
ATOM      6  C   UNL     1       1.141  -1.526  -0.794  0.00  0.00    +0.000 C 
ATOM      7  O   UNL     1       1.684  -2.203  -1.696  0.00  0.00    +0.000 OA
ENDROOT
BRANCH   1  11
ATOM      8  C   UNL     1       5.807   0.608   0.200  0.00  0.00    +0.000 A 
ATOM      9  C   UNL     1       5.316  -0.396   1.014  0.00  0.00    +0.000 A 
ATOM     10  C   UNL     1       3.986  -0.804   0.987  0.00  0.00    +0.000 A 
ATOM     11  C   UNL     1       3.110  -0.194   0.120  0.00  0.00    +0.000 A 
ATOM     12  C   UNL     1       3.575   0.802  -0.696  0.00  0.00    +0.000 A 
ATOM     13  C   UNL     1       4.913   1.209  -0.665  0.00  0.00    +0.000 A 
BRANCH   8  14
ATOM     14  O   UNL     1       7.144   0.987   0.256  0.00  0.00    +0.000 OA
BRANCH  14  16
ATOM     15  C   UNL     1       9.165   2.183  -0.259  0.00  0.00    +0.000 C 
ATOM     16  C   UNL     1       7.690   1.996  -0.546  0.00  0.00    +0.000 C 
ENDBRANCH  14  16
ENDBRANCH   8  14
ENDBRANCH   1  11
BRANCH   4  17
ATOM     17  N   UNL     1      -1.793  -0.472   1.158  0.00  0.00    +0.000 NA
BRANCH  17  18
ATOM     18  C   UNL     1      -2.382   0.818   1.020  0.00  0.00    +0.000 A 
ATOM     19  C   UNL     1      -3.550   1.080   1.704  0.00  0.00    +0.000 A 
ATOM     20  C   UNL     1      -4.100   2.339   1.546  0.00  0.00    +0.000 A 
ATOM     21  C   UNL     1      -3.504   3.281   0.742  0.00  0.00    +0.000 A 
ATOM     22  C   UNL     1      -2.337   2.985   0.072  0.00  0.00    +0.000 A 
ATOM     23  C   UNL     1      -1.752   1.732   0.205  0.00  0.00    +0.000 A 
BRANCH  21  24
ATOM     24  C   UNL     1      -4.109   4.623   0.584  0.00  0.00    +0.000 C 
ATOM     25  C   UNL     1      -5.076   4.574  -0.597  0.00  0.00    +0.000 C 
ENDBRANCH  21  24
ENDBRANCH  17  18
ENDBRANCH   4  17
BRANCH   5  26
ATOM     26  S   UNL     1      -1.389  -2.689  -1.364  0.00  0.00    +0.000 S 
BRANCH  26  27
ATOM     27  C   UNL     1      -2.995  -2.850  -0.662  0.00  0.00    +0.000 A 
ATOM     28  C   UNL     1      -3.905  -3.645  -1.381  0.00  0.00    +0.000 A 
ATOM     29  C   UNL     1      -5.165  -3.871  -0.954  0.00  0.00    +0.000 A 
ATOM     30  C   UNL     1      -5.609  -3.321   0.220  0.00  0.00    +0.000 A 
ATOM     31  C   UNL     1      -4.726  -2.534   0.944  0.00  0.00    +0.000 A 
ATOM     32  C   UNL     1      -3.465  -2.326   0.487  0.00  0.00    +0.000 A 
ENDBRANCH  26  27
ENDBRANCH   5  26
TORSDOF 8
