REMARK  Name = 
REMARK  7 active torsions:
REMARK  status: ('A' for Active; 'I' for Inactive)
REMARK    1  A    between atoms: C_2  and  C_3
REMARK    2  A    between atoms: C_6  and  S_7
REMARK    3  A    between atoms: S_7  and  C_8
REMARK    4  A    between atoms: C_10  and  C_11
REMARK    5  A    between atoms: N_13  and  C_14
REMARK    6  A    between atoms: C_14  and  C_15
REMARK    7  A    between atoms: C_19  and  O_20
REMARK                            x       y       z     vdW  Elec       q    Type
REMARK                         _______ _______ _______ _____ _____    ______ ____
ROOT
ATOM      1  C   UNL     1      -1.851   0.510  -0.608  0.00  0.00    +0.000 A 
ATOM      2  C   UNL     1      -0.578   0.714  -1.053  0.00  0.00    +0.000 A 
ATOM      3  C   UNL     1       0.451  -0.161  -0.778  0.00  0.00    +0.000 A 
ATOM      4  C   UNL     1       0.164  -1.295  -0.013  0.00  0.00    +0.000 A 
ATOM      5  C   UNL     1       1.145  -2.209   0.298  0.00  0.00    +0.000 A 
ATOM      6  C   UNL     1       0.814  -3.304   1.050  0.00  0.00    +0.000 A 
ATOM      7  C   UNL     1      -0.459  -3.491   1.485  0.00  0.00    +0.000 A 
ATOM      8  C   UNL     1      -1.444  -2.592   1.183  0.00  0.00    +0.000 A 
ATOM      9  C   UNL     1      -1.131  -1.488   0.430  0.00  0.00    +0.000 A 
ATOM     10  N   UNL     1      -2.094  -0.601   0.132  0.00  0.00    +0.000 NA
ENDROOT
BRANCH   3  11
ATOM     11  C   UNL     1       1.810  -0.004  -1.220  0.00  0.00    +0.000 C 
ATOM     12  O   UNL     1       2.458  -1.050  -1.557  0.00  0.00    +0.000 OA
ATOM     13  N   UNL     1       2.497   1.229  -1.313  0.00  0.00    +0.000 NA
BRANCH  13  14
ATOM     14  C   UNL     1       3.864   1.257  -1.774  0.00  0.00    +0.000 C 
BRANCH  14  15
ATOM     15  C   UNL     1       4.777   0.789  -0.701  0.00  0.00    +0.000 A 
ATOM     16  C   UNL     1       4.263   0.522   0.544  0.00  0.00    +0.000 A 
ATOM     17  C   UNL     1       5.090   0.076   1.582  0.00  0.00    +0.000 A 
ATOM     18  C   UNL     1       6.444  -0.106   1.377  0.00  0.00    +0.000 A 
ATOM     19  C   UNL     1       6.963   0.163   0.119  0.00  0.00    +0.000 A 
ATOM     20  C   UNL     1       6.116   0.606  -0.897  0.00  0.00    +0.000 A 
BRANCH  19  21
ATOM     21  O   UNL     1       8.326  -0.010  -0.125  0.00  0.00    +0.000 OA
ATOM     22  C   UNL     1       8.834   0.267  -1.405  0.00  0.00    +0.000 C 
ENDBRANCH  19  21
ENDBRANCH  14  15
ENDBRANCH  13  14
ENDBRANCH   3  11
BRANCH   1  23
ATOM     23  S   UNL     1      -3.199   1.654  -0.966  0.00  0.00    +0.000 S 
BRANCH  23  27
ATOM     24  C   UNL     1      -7.092  -0.032   0.812  0.00  0.00    +0.000 A 
ATOM     25  C   UNL     1      -6.669  -0.328  -0.466  0.00  0.00    +0.000 A 
ATOM     26  C   UNL     1      -5.496   0.190  -0.980  0.00  0.00    +0.000 A 
ATOM     27  C   UNL     1      -4.698   1.031  -0.226  0.00  0.00    +0.000 A 
ATOM     28  C   UNL     1      -5.105   1.338   1.052  0.00  0.00    +0.000 A 
ATOM     29  C   UNL     1      -6.295   0.807   1.562  0.00  0.00    +0.000 A 
BRANCH  24  31
ATOM     30  C   UNL     1      -9.539   0.313   1.082  0.00  0.00    +0.000 C 
ATOM     31  C   UNL     1      -8.366  -0.595   1.371  0.00  0.00    +0.000 C 
ENDBRANCH  24  31
ENDBRANCH  23  27
ENDBRANCH   1  23
TORSDOF 7
