REMARK  Name = 
REMARK  9 active torsions:
REMARK  status: ('A' for Active; 'I' for Inactive)
REMARK    1  A    between atoms: C_2  and  C_3
REMARK    2  A    between atoms: C_3  and  C_4
REMARK    3  A    between atoms: C_4  and  N_5
REMARK    4  A    between atoms: C_6  and  C_8
REMARK    5  A    between atoms: C_9  and  C_10
REMARK    6  A    between atoms: C_15  and  O_16
REMARK    7  A    between atoms: O_16  and  C_17
REMARK    8  A    between atoms: C_21  and  C_22
REMARK    9  A    between atoms: C_25  and  C_26
REMARK                            x       y       z     vdW  Elec       q    Type
REMARK                         _______ _______ _______ _____ _____    ______ ____
ROOT
ATOM      1  C   UNL     1      -1.200   0.792  -0.863  0.00  0.00    +0.000 C 
ATOM      2  C   UNL     1      -1.442  -0.445  -0.667  0.00  0.00    +0.000 C 
ATOM      3  N   UNL     1      -0.850  -1.194  -1.718  0.00  0.00    +0.000 NA
ATOM      4  O   UNL     1      -0.837  -0.431  -2.792  0.00  0.00    +0.000 OA
ATOM      5  C   UNL     1      -0.327   0.892  -2.227  0.00  0.00    +0.000 C 
ENDROOT
BRANCH   2   6
ATOM      6  C   UNL     1      -2.188  -1.026   0.431  0.00  0.00    +0.000 A 
ATOM      7  C   UNL     1      -1.935  -0.596   1.706  0.00  0.00    +0.000 A 
ATOM      8  C   UNL     1      -2.628  -1.110   2.799  0.00  0.00    +0.000 A 
ATOM      9  C   UNL     1      -3.597  -2.073   2.643  0.00  0.00    +0.000 A 
ATOM     10  C   UNL     1      -3.860  -2.512   1.361  0.00  0.00    +0.000 A 
ATOM     11  C   UNL     1      -3.166  -1.995   0.289  0.00  0.00    +0.000 A 
BRANCH  11  12
ATOM     12  O   UNL     1      -3.425  -2.432  -1.007  0.00  0.00    +0.000 OA
BRANCH  12  13
ATOM     13  C   UNL     1      -4.390  -3.410  -1.323  0.00  0.00    +0.000 C 
ATOM     14  C   UNL     1      -4.076  -4.716  -0.632  0.00  0.00    +0.000 C 
ENDBRANCH  12  13
ENDBRANCH  11  12
ENDBRANCH   2   6
BRANCH   5  15
ATOM     15  C   UNL     1       1.053   0.413  -1.651  0.00  0.00    +0.000 A 
ATOM     16  C   UNL     1       1.889  -0.410  -2.296  0.00  0.00    +0.000 A 
ATOM     17  C   UNL     1       3.112  -0.765  -1.715  0.00  0.00    +0.000 A 
ATOM     18  C   UNL     1       3.466  -0.279  -0.490  0.00  0.00    +0.000 A 
ATOM     19  C   UNL     1       2.609   0.574   0.190  0.00  0.00    +0.000 A 
ATOM     20  C   UNL     1       1.386   0.903  -0.439  0.00  0.00    +0.000 A 
BRANCH  18  21
ATOM     21  C   UNL     1       4.748  -0.636   0.124  0.00  0.00    +0.000 A 
ATOM     22  C   UNL     1       5.894  -0.891  -0.589  0.00  0.00    +0.000 A 
ATOM     23  C   UNL     1       7.099  -1.224   0.018  0.00  0.00    +0.000 A 
ATOM     24  C   UNL     1       7.143  -1.299   1.378  0.00  0.00    +0.000 A 
ATOM     25  C   UNL     1       6.015  -1.050   2.118  0.00  0.00    +0.000 A 
ATOM     26  C   UNL     1       4.808  -0.716   1.494  0.00  0.00    +0.000 A 
ENDBRANCH  18  21
ENDBRANCH   5  15
BRANCH   1  28
ATOM     27  N   UNL     1      -1.149   3.292  -0.557  0.00  0.00    +0.000 NA
ATOM     28  C   UNL     1      -1.536   2.013  -0.144  0.00  0.00    +0.000 C 
ATOM     29  O   UNL     1      -2.209   1.898   0.902  0.00  0.00    +0.000 OA
BRANCH  27  30
ATOM     30  C   UNL     1      -1.335   4.569  -0.062  0.00  0.00    +0.000 C 
BRANCH  30  31
ATOM     31  C   UNL     1      -2.696   5.071   0.102  0.00  0.00    +0.000 C 
BRANCH  31  33
ATOM     32  C   UNL     1      -2.891   4.460   2.506  0.00  0.00    +0.000 C 
ATOM     33  C   UNL     1      -3.485   4.336   1.110  0.00  0.00    +0.000 C 
ENDBRANCH  31  33
ENDBRANCH  30  31
ENDBRANCH  27  30
ENDBRANCH   1  28
TORSDOF 9
