REMARK  Name = 
REMARK  9 active torsions:
REMARK  status: ('A' for Active; 'I' for Inactive)
REMARK    1  A    between atoms: C_2  and  N_5
REMARK    2  A    between atoms: N_5  and  C_6
REMARK    3  A    between atoms: N_5  and  C_14
REMARK    4  A    between atoms: C_6  and  C_7
REMARK    5  A    between atoms: C_14  and  C_15
REMARK    6  A    between atoms: C_18  and  C_19
REMARK    7  A    between atoms: N_21  and  C_22
REMARK    8  A    between atoms: C_22  and  C_23
REMARK    9  A    between atoms: C_23  and  C_24
REMARK                            x       y       z     vdW  Elec       q    Type
REMARK                         _______ _______ _______ _____ _____    ______ ____
ROOT
ATOM      1  C   UNL     1      -0.646  -0.871   0.211  0.00  0.00    +0.000 A 
ATOM      2  C   UNL     1      -0.248  -1.919  -0.625  0.00  0.00    +0.000 A 
ATOM      3  C   UNL     1       1.117  -1.931  -0.613  0.00  0.00    +0.000 A 
ATOM      4  C   UNL     1       1.528  -0.924   0.205  0.00  0.00    +0.000 A 
ATOM      5  O   UNL     1       0.429  -0.332   0.661  0.00  0.00    +0.000 OA
ENDROOT
BRANCH   4   6
ATOM      6  C   UNL     1       2.881  -0.489   0.591  0.00  0.00    +0.000 C 
ATOM      7  O   UNL     1       3.885  -1.219   0.235  0.00  0.00    +0.000 OA
ATOM      8  N   UNL     1       3.202   0.635   1.313  0.00  0.00    +0.000 NA
BRANCH   8   9
ATOM      9  C   UNL     1       4.279   1.278   1.816  0.00  0.00    +0.000 C 
BRANCH   9  10
ATOM     10  C   UNL     1       5.409   1.814   1.109  0.00  0.00    +0.000 C 
BRANCH  10  11
ATOM     11  C   UNL     1       6.329   1.003   0.363  0.00  0.00    +0.000 A 
ATOM     12  C   UNL     1       7.439   0.442   1.022  0.00  0.00    +0.000 A 
ATOM     13  C   UNL     1       8.355  -0.313   0.285  0.00  0.00    +0.000 A 
ATOM     14  C   UNL     1       8.180  -0.507  -1.066  0.00  0.00    +0.000 A 
ATOM     15  C   UNL     1       7.103   0.037  -1.706  0.00  0.00    +0.000 A 
ATOM     16  C   UNL     1       6.204   0.777  -0.972  0.00  0.00    +0.000 A 
ENDBRANCH  10  11
ENDBRANCH   9  10
ENDBRANCH   8   9
ENDBRANCH   4   6
BRANCH   1  17
ATOM     17  C   UNL     1      -2.020  -0.444   0.534  0.00  0.00    +0.000 C 
BRANCH  17  18
ATOM     18  N   UNL     1      -2.637   0.318  -0.480  0.00  0.00    +0.000 NA
BRANCH  18  20
ATOM     19  C   UNL     1      -1.512  -0.150  -2.524  0.00  0.00    +0.000 C 
ATOM     20  C   UNL     1      -2.837  -0.298  -1.742  0.00  0.00    +0.000 C 
ATOM     21  C   UNL     1      -3.816   0.583  -2.515  0.00  0.00    +0.000 C 
ATOM     22  C   UNL     1      -3.229  -1.726  -1.722  0.00  0.00    +0.000 C 
ENDBRANCH  18  20
BRANCH  18  23
ATOM     23  C   UNL     1      -3.567   1.304  -0.067  0.00  0.00    +0.000 C 
BRANCH  23  24
ATOM     24  C   UNL     1      -4.935   0.837   0.242  0.00  0.00    +0.000 A 
ATOM     25  C   UNL     1      -5.270   0.909   1.586  0.00  0.00    +0.000 A 
ATOM     26  C   UNL     1      -6.527   0.476   1.997  0.00  0.00    +0.000 A 
ATOM     27  C   UNL     1      -7.458  -0.021   1.137  0.00  0.00    +0.000 A 
ATOM     28  F   UNL     1      -8.682  -0.438   1.552  0.00  0.00    +0.000 F 
ATOM     29  C   UNL     1      -7.089  -0.076  -0.206  0.00  0.00    +0.000 A 
ATOM     30  C   UNL     1      -5.864   0.344  -0.622  0.00  0.00    +0.000 A 
ENDBRANCH  23  24
ENDBRANCH  18  23
ENDBRANCH  17  18
ENDBRANCH   1  17
TORSDOF 9
