REMARK  Name = 
REMARK  8 active torsions:
REMARK  status: ('A' for Active; 'I' for Inactive)
REMARK    1  A    between atoms: C_2  and  C_3
REMARK    2  A    between atoms: C_8  and  N_9
REMARK    3  A    between atoms: N_9  and  C_10
REMARK    4  A    between atoms: C_11  and  S_12
REMARK    5  A    between atoms: S_12  and  C_13
REMARK    6  A    between atoms: N_22  and  C_23
REMARK    7  A    between atoms: C_23  and  C_24
REMARK    8  A    between atoms: C_24  and  C_25
REMARK                            x       y       z     vdW  Elec       q    Type
REMARK                         _______ _______ _______ _____ _____    ______ ____
ROOT
ATOM      1  C   UNL     1       0.394   0.819   0.030  0.00  0.00    +0.000 C 
ATOM      2  C   UNL     1      -0.516  -0.120   0.137  0.00  0.00    +0.000 C 
ATOM      3  C   UNL     1      -0.018  -1.278   0.865  0.00  0.00    +0.000 C 
ATOM      4  O   UNL     1      -0.671  -2.322   1.115  0.00  0.00    +0.000 OA
ATOM      5  N   UNL     1       1.336  -0.973   1.220  0.00  0.00    +0.000 N 
ATOM      6  C   UNL     1       1.582   0.308   0.707  0.00  0.00    +0.000 C 
ATOM      7  O   UNL     1       2.707   0.895   0.845  0.00  0.00    +0.000 OA
ENDROOT
BRANCH   1   8
ATOM      8  N   UNL     1       0.343   2.082  -0.584  0.00  0.00    +0.000 NA
BRANCH   8  14
ATOM      9  C   UNL     1      -0.462   4.236  -1.184  0.00  0.00    +0.000 A 
ATOM     10  C   UNL     1      -1.401   5.256  -1.115  0.00  0.00    +0.000 A 
ATOM     11  C   UNL     1      -2.503   5.060  -0.321  0.00  0.00    +0.000 A 
ATOM     12  C   UNL     1      -2.700   3.901   0.398  0.00  0.00    +0.000 A 
ATOM     13  C   UNL     1      -1.727   2.909   0.294  0.00  0.00    +0.000 A 
ATOM     14  C   UNL     1      -0.612   3.063  -0.487  0.00  0.00    +0.000 A 
BRANCH   9  16
ATOM     15  C   UNL     1       1.923   4.835  -1.236  0.00  0.00    +0.000 C 
ATOM     16  C   UNL     1       0.722   4.505  -2.068  0.00  0.00    +0.000 C 
ENDBRANCH   9  16
ENDBRANCH   8  14
ENDBRANCH   1   8
BRANCH   2  17
ATOM     17  S   UNL     1      -2.165   0.082  -0.565  0.00  0.00    +0.000 S 
BRANCH  17  18
ATOM     18  C   UNL     1      -3.164  -1.375  -0.247  0.00  0.00    +0.000 A 
ATOM     19  C   UNL     1      -3.940  -1.500   0.880  0.00  0.00    +0.000 A 
ATOM     20  C   UNL     1      -4.721  -2.600   1.164  0.00  0.00    +0.000 A 
ATOM     21  C   UNL     1      -4.740  -3.646   0.280  0.00  0.00    +0.000 A 
ATOM     22  C   UNL     1      -5.582  -4.849   0.569  0.00  0.00    +0.000 C 
ATOM     23  C   UNL     1      -3.973  -3.555  -0.864  0.00  0.00    +0.000 A 
ATOM     24  C   UNL     1      -3.191  -2.443  -1.138  0.00  0.00    +0.000 A 
ENDBRANCH  17  18
ENDBRANCH   2  17
BRANCH   5  25
ATOM     25  C   UNL     1       2.167  -1.904   1.962  0.00  0.00    +0.000 C 
BRANCH  25  26
ATOM     26  C   UNL     1       2.931  -2.829   1.078  0.00  0.00    +0.000 C 
BRANCH  26  27
ATOM     27  C   UNL     1       3.843  -2.105   0.158  0.00  0.00    +0.000 A 
ATOM     28  C   UNL     1       3.376  -1.716  -1.081  0.00  0.00    +0.000 A 
ATOM     29  C   UNL     1       4.189  -1.036  -1.980  0.00  0.00    +0.000 A 
ATOM     30  C   UNL     1       5.475  -0.751  -1.625  0.00  0.00    +0.000 A 
ATOM     31  C   UNL     1       5.956  -1.139  -0.377  0.00  0.00    +0.000 A 
ATOM     32  C   UNL     1       5.142  -1.809   0.500  0.00  0.00    +0.000 A 
ENDBRANCH  26  27
ENDBRANCH  25  26
ENDBRANCH   5  25
TORSDOF 8
