REMARK  Name = 
REMARK  8 active torsions:
REMARK  status: ('A' for Active; 'I' for Inactive)
REMARK    1  A    between atoms: N_2  and  C_3
REMARK    2  A    between atoms: N_2  and  C_28
REMARK    3  A    between atoms: C_3  and  C_4
REMARK    4  A    between atoms: C_4  and  C_5
REMARK    5  A    between atoms: C_5  and  N_6
REMARK    6  A    between atoms: C_7  and  C_9
REMARK    7  A    between atoms: C_10  and  C_11
REMARK    8  A    between atoms: C_17  and  C_18
REMARK                            x       y       z     vdW  Elec       q    Type
REMARK                         _______ _______ _______ _____ _____    ______ ____
ROOT
ATOM      1  C   UNL     1      -1.839  -1.167   0.572  0.00  0.00    +0.000 A 
ATOM      2  C   UNL     1      -1.474  -2.324   1.308  0.00  0.00    +0.000 A 
ATOM      3  N   UNL     1      -2.596  -2.678   1.930  0.00  0.00    +0.000 NA
ATOM      4  O   UNL     1      -3.553  -1.874   1.645  0.00  0.00    +0.000 OA
ATOM      5  C   UNL     1      -3.141  -0.902   0.800  0.00  0.00    +0.000 A 
ENDROOT
BRANCH   5   6
ATOM      6  C   UNL     1      -3.997   0.144   0.302  0.00  0.00    +0.000 A 
ATOM      7  C   UNL     1      -5.380  -0.149   0.312  0.00  0.00    +0.000 A 
ATOM      8  C   UNL     1      -6.347   0.712  -0.058  0.00  0.00    +0.000 A 
ATOM      9  C   UNL     1      -5.961   1.962  -0.472  0.00  0.00    +0.000 A 
ATOM     10  C   UNL     1      -4.626   2.326  -0.508  0.00  0.00    +0.000 A 
ATOM     11  C   UNL     1      -4.239   3.573  -0.894  0.00  0.00    +0.000 A 
ATOM     12  C   UNL     1      -2.904   3.961  -0.908  0.00  0.00    +0.000 A 
ATOM     13  C   UNL     1      -1.979   3.026  -0.510  0.00  0.00    +0.000 A 
ATOM     14  C   UNL     1      -2.383   1.795  -0.133  0.00  0.00    +0.000 A 
ATOM     15  C   UNL     1      -3.673   1.399  -0.117  0.00  0.00    +0.000 A 
ENDBRANCH   5   6
BRANCH   2  16
ATOM     16  C   UNL     1      -0.133  -2.943   1.343  0.00  0.00    +0.000 C 
ATOM     17  C   UNL     1       0.931  -2.049   1.875  0.00  0.00    +0.000 C 
ATOM     18  C   UNL     1       0.312  -3.339  -0.077  0.00  0.00    +0.000 C 
ATOM     19  C   UNL     1      -0.169  -4.228   2.151  0.00  0.00    +0.000 C 
ENDBRANCH   2  16
BRANCH   1  21
ATOM     20  N   UNL     1       0.361  -0.001   0.181  0.00  0.00    +0.000 NA
ATOM     21  C   UNL     1      -0.838  -0.516  -0.262  0.00  0.00    +0.000 C 
ATOM     22  O   UNL     1      -1.087  -0.410  -1.500  0.00  0.00    +0.000 OA
BRANCH  20  23
ATOM     23  C   UNL     1       1.453   0.634  -0.374  0.00  0.00    +0.000 C 
BRANCH  23  24
ATOM     24  C   UNL     1       2.256  -0.063  -1.413  0.00  0.00    +0.000 C 
BRANCH  24  25
ATOM     25  C   UNL     1       3.439   0.871  -1.778  0.00  0.00    +0.000 C 
BRANCH  25  27
ATOM     26  C   UNL     1       3.497   1.943   0.454  0.00  0.00    +0.000 C 
ATOM     27  N   UNL     1       4.196   1.110  -0.534  0.00  0.00    +0.000 N 
BRANCH  27  28
ATOM     28  C   UNL     1       5.460   0.557  -0.275  0.00  0.00    +0.000 A 
ATOM     29  C   UNL     1       6.634   1.206  -0.106  0.00  0.00    +0.000 A 
ATOM     30  C   UNL     1       7.822   0.577   0.151  0.00  0.00    +0.000 A 
ATOM     31  C   UNL     1       7.822  -0.818   0.245  0.00  0.00    +0.000 A 
ATOM     32  C   UNL     1       6.651  -1.480   0.077  0.00  0.00    +0.000 A 
ATOM     33  C   UNL     1       5.483  -0.853  -0.176  0.00  0.00    +0.000 A 
ENDBRANCH  27  28
ENDBRANCH  25  27
ENDBRANCH  24  25
ENDBRANCH  23  24
ENDBRANCH  20  23
ENDBRANCH   1  21
TORSDOF 8
