REMARK  Name = 
REMARK  8 active torsions:
REMARK  status: ('A' for Active; 'I' for Inactive)
REMARK    1  A    between atoms: C_5  and  N_6
REMARK    2  A    between atoms: C_7  and  C_9
REMARK    3  A    between atoms: C_9  and  S_10
REMARK    4  A    between atoms: S_10  and  C_11
REMARK    5  A    between atoms: C_14  and  C_15
REMARK    6  A    between atoms: C_15  and  C_16
REMARK    7  A    between atoms: N_22  and  C_23
REMARK    8  A    between atoms: C_23  and  C_24
REMARK                            x       y       z     vdW  Elec       q    Type
REMARK                         _______ _______ _______ _____ _____    ______ ____
ROOT
ATOM      1  C   UNL     1      -0.438  -0.170  -0.511  0.00  0.00    +0.000 A 
ATOM      2  N   UNL     1      -0.006   1.093  -0.383  0.00  0.00    +0.000 NA
ATOM      3  N   UNL     1      -0.689   1.617   0.612  0.00  0.00    +0.000 NA
ATOM      4  C   UNL     1      -1.556   0.685   1.115  0.00  0.00    +0.000 A 
ATOM      5  N   UNL     1      -1.404  -0.444   0.412  0.00  0.00    +0.000 N 
ENDROOT
BRANCH   1   6
ATOM      6  S   UNL     1       0.140  -1.380  -1.719  0.00  0.00    +0.000 S 
BRANCH   6   7
ATOM      7  C   UNL     1       1.539  -2.296  -1.021  0.00  0.00    +0.000 C 
BRANCH   7   9
ATOM      8  N   UNL     1       3.929  -1.767  -0.318  0.00  0.00    +0.000 NA
ATOM      9  C   UNL     1       2.668  -1.349  -0.850  0.00  0.00    +0.000 C 
ATOM     10  O   UNL     1       2.555  -0.130  -1.170  0.00  0.00    +0.000 OA
BRANCH   8  15
ATOM     11  C   UNL     1       8.062   2.140   0.213  0.00  0.00    +0.000 C 
ATOM     12  C   UNL     1       6.979   1.123   0.072  0.00  0.00    +0.000 A 
ATOM     13  C   UNL     1       5.742   1.462  -0.434  0.00  0.00    +0.000 A 
ATOM     14  C   UNL     1       4.770   0.491  -0.547  0.00  0.00    +0.000 A 
ATOM     15  C   UNL     1       4.974  -0.819  -0.175  0.00  0.00    +0.000 A 
ATOM     16  C   UNL     1       6.215  -1.143   0.329  0.00  0.00    +0.000 A 
ATOM     17  C   UNL     1       7.216  -0.180   0.454  0.00  0.00    +0.000 A 
ATOM     18  C   UNL     1       8.537  -0.605   1.008  0.00  0.00    +0.000 C 
ENDBRANCH   8  15
ENDBRANCH   7   9
ENDBRANCH   6   7
ENDBRANCH   1   6
BRANCH   4  19
ATOM     19  C   UNL     1      -2.481   0.861   2.251  0.00  0.00    +0.000 C 
BRANCH  19  20
ATOM     20  C   UNL     1      -3.666   1.684   1.954  0.00  0.00    +0.000 A 
ATOM     21  C   UNL     1      -3.549   3.072   2.112  0.00  0.00    +0.000 A 
ATOM     22  C   UNL     1      -4.612   3.912   1.861  0.00  0.00    +0.000 A 
ATOM     23  C   UNL     1      -5.839   3.397   1.441  0.00  0.00    +0.000 A 
ATOM     24  C   UNL     1      -5.981   2.037   1.279  0.00  0.00    +0.000 A 
ATOM     25  C   UNL     1      -4.890   1.246   1.542  0.00  0.00    +0.000 A 
ENDBRANCH  19  20
ENDBRANCH   4  19
BRANCH   5  26
ATOM     26  C   UNL     1      -2.047  -1.735   0.510  0.00  0.00    +0.000 C 
BRANCH  26  27
ATOM     27  C   UNL     1      -3.224  -1.926  -0.311  0.00  0.00    +0.000 A 
ATOM     28  C   UNL     1      -3.105  -2.311  -1.652  0.00  0.00    +0.000 A 
ATOM     29  C   UNL     1      -4.223  -2.509  -2.440  0.00  0.00    +0.000 A 
ATOM     30  C   UNL     1      -5.486  -2.334  -1.931  0.00  0.00    +0.000 A 
ATOM     31  C   UNL     1      -5.624  -1.957  -0.623  0.00  0.00    +0.000 A 
ATOM     32  C   UNL     1      -4.504  -1.764   0.149  0.00  0.00    +0.000 A 
ENDBRANCH  26  27
ENDBRANCH   5  26
TORSDOF 8
