REMARK  Name = 
REMARK  9 active torsions:
REMARK  status: ('A' for Active; 'I' for Inactive)
REMARK    1  A    between atoms: C_2  and  C_3
REMARK    2  A    between atoms: C_3  and  N_4
REMARK    3  A    between atoms: C_5  and  C_6
REMARK    4  A    between atoms: C_6  and  C_7
REMARK    5  A    between atoms: C_7  and  C_8
REMARK    6  A    between atoms: C_16  and  S_17
REMARK    7  A    between atoms: S_17  and  C_18
REMARK    8  A    between atoms: C_18  and  C_19
REMARK    9  A    between atoms: N_21  and  C_22
REMARK                            x       y       z     vdW  Elec       q    Type
REMARK                         _______ _______ _______ _____ _____    ______ ____
ROOT
ATOM      1  N   UNL     1       1.762  -0.452  -2.041  0.00  0.00    +0.000 N 
ATOM      2  C   UNL     1       2.956   0.151  -2.046  0.00  0.00    +0.000 A 
ATOM      3  N   UNL     1       2.896   1.216  -1.210  0.00  0.00    +0.000 NA
ATOM      4  N   UNL     1       1.683   1.244  -0.717  0.00  0.00    +0.000 NA
ATOM      5  C   UNL     1       0.941   0.244  -1.190  0.00  0.00    +0.000 A 
ENDROOT
BRANCH   1   6
ATOM      6  C   UNL     1       1.380  -1.613  -2.772  0.00  0.00    +0.000 C 
BRANCH   6   8
ATOM      7  C   UNL     1       2.776  -3.398  -1.626  0.00  0.00    +0.000 C 
ATOM      8  C   UNL     1       1.471  -2.920  -2.114  0.00  0.00    +0.000 C 
ENDBRANCH   6   8
ENDBRANCH   1   6
BRANCH   2   9
ATOM      9  C   UNL     1       4.199  -0.202  -2.806  0.00  0.00    +0.000 C 
BRANCH   9  10
ATOM     10  C   UNL     1       5.064  -1.063  -1.954  0.00  0.00    +0.000 C 
BRANCH  10  11
ATOM     11  C   UNL     1       5.476  -0.390  -0.680  0.00  0.00    +0.000 A 
ATOM     12  C   UNL     1       4.726  -0.489   0.474  0.00  0.00    +0.000 A 
ATOM     13  C   UNL     1       5.091   0.125   1.655  0.00  0.00    +0.000 A 
ATOM     14  C   UNL     1       6.256   0.878   1.710  0.00  0.00    +0.000 A 
ATOM     15  C   UNL     1       7.016   0.987   0.563  0.00  0.00    +0.000 A 
ATOM     16  C   UNL     1       6.634   0.366  -0.608  0.00  0.00    +0.000 A 
ENDBRANCH  10  11
ENDBRANCH   9  10
ENDBRANCH   2   9
BRANCH   5  17
ATOM     17  S   UNL     1      -0.753  -0.217  -0.882  0.00  0.00    +0.000 S 
BRANCH  17  18
ATOM     18  C   UNL     1      -1.498   0.933   0.285  0.00  0.00    +0.000 C 
BRANCH  18  19
ATOM     19  C   UNL     1      -2.905   0.560   0.548  0.00  0.00    +0.000 C 
ATOM     20  O   UNL     1      -3.397  -0.442  -0.024  0.00  0.00    +0.000 OA
ATOM     21  N   UNL     1      -3.736   1.294   1.431  0.00  0.00    +0.000 NA
BRANCH  21  22
ATOM     22  C   UNL     1      -5.072   0.850   1.613  0.00  0.00    +0.000 A 
ATOM     23  C   UNL     1      -6.045   1.345   0.780  0.00  0.00    +0.000 A 
ATOM     24  C   UNL     1      -5.685   2.322  -0.281  0.00  0.00    +0.000 C 
ATOM     25  C   UNL     1      -7.334   0.894   0.982  0.00  0.00    +0.000 A 
ATOM     26  C   UNL     1      -7.650  -0.018   1.978  0.00  0.00    +0.000 A 
ATOM     27  C   UNL     1      -6.634  -0.483   2.788  0.00  0.00    +0.000 A 
ATOM     28  C   UNL     1      -5.340  -0.064   2.624  0.00  0.00    +0.000 A 
ATOM     29  C   UNL     1      -4.278  -0.591   3.518  0.00  0.00    +0.000 C 
ENDBRANCH  21  22
ENDBRANCH  18  19
ENDBRANCH  17  18
ENDBRANCH   5  17
TORSDOF 9
