REMARK  Name = 
REMARK  6 active torsions:
REMARK  status: ('A' for Active; 'I' for Inactive)
REMARK    1  A    between atoms: O_2  and  C_3
REMARK    2  A    between atoms: C_8  and  C_9
REMARK    3  A    between atoms: N_11  and  C_12
REMARK    4  A    between atoms: C_16  and  C_17
REMARK    5  A    between atoms: N_19  and  C_20
REMARK    6  A    between atoms: C_20  and  C_21
REMARK                            x       y       z     vdW  Elec       q    Type
REMARK                         _______ _______ _______ _____ _____    ______ ____
ROOT
ATOM      1  C   UNL     1      -1.236  -0.736   0.649  0.00  0.00    +0.000 A 
ATOM      2  S   UNL     1      -1.591  -1.787   2.041  0.00  0.00    +0.000 S 
ATOM      3  C   UNL     1      -0.037  -2.104   2.558  0.00  0.00    +0.000 A 
ATOM      4  C   UNL     1       0.741  -1.418   1.690  0.00  0.00    +0.000 A 
ATOM      5  C   UNL     1       0.122  -0.703   0.697  0.00  0.00    +0.000 A 
ATOM      6  C   UNL     1       2.235  -1.597   2.011  0.00  0.00    +0.000 C 
ATOM      7  C   UNL     1       2.439  -3.115   1.892  0.00  0.00    +0.000 C 
ATOM      8  C   UNL     1       1.625  -3.849   2.936  0.00  0.00    +0.000 C 
ATOM      9  C   UNL     1       0.667  -2.893   3.647  0.00  0.00    +0.000 C 
ENDROOT
BRANCH   1  12
ATOM     10  C   UNL     1      -2.528   0.328  -1.311  0.00  0.00    +0.000 C 
ATOM     11  O   UNL     1      -1.625   0.394  -2.175  0.00  0.00    +0.000 OA
ATOM     12  N   UNL     1      -2.261  -0.198  -0.113  0.00  0.00    +0.000 NA
BRANCH  10  18
ATOM     13  C   UNL     1      -4.904   0.868  -0.874  0.00  0.00    +0.000 A 
ATOM     14  C   UNL     1      -6.162   1.354  -1.226  0.00  0.00    +0.000 A 
ATOM     15  C   UNL     1      -6.343   1.856  -2.504  0.00  0.00    +0.000 A 
ATOM     16  C   UNL     1      -5.284   1.864  -3.387  0.00  0.00    +0.000 A 
ATOM     17  C   UNL     1      -4.039   1.369  -2.998  0.00  0.00    +0.000 A 
ATOM     18  C   UNL     1      -3.846   0.866  -1.730  0.00  0.00    +0.000 A 
BRANCH  13  20
ATOM     19  C   UNL     1      -5.762   0.350   1.307  0.00  0.00    +0.000 C 
ATOM     20  O   UNL     1      -4.663   0.346   0.416  0.00  0.00    +0.000 OA
ENDBRANCH  13  20
ENDBRANCH  10  18
ENDBRANCH   1  12
BRANCH   5  21
ATOM     21  C   UNL     1       0.950   0.208  -0.155  0.00  0.00    +0.000 C 
ATOM     22  O   UNL     1       0.482   1.075  -0.903  0.00  0.00    +0.000 OA
ATOM     23  N   UNL     1       2.378   0.128  -0.160  0.00  0.00    +0.000 NA
BRANCH  23  24
ATOM     24  C   UNL     1       3.159   1.029  -1.010  0.00  0.00    +0.000 C 
BRANCH  24  25
ATOM     25  C   UNL     1       4.579   1.040  -0.600  0.00  0.00    +0.000 A 
ATOM     26  C   UNL     1       5.528   1.134  -1.594  0.00  0.00    +0.000 A 
ATOM     27  C   UNL     1       6.859   1.155  -1.235  0.00  0.00    +0.000 A 
ATOM     28  C   UNL     1       7.246   1.082   0.074  0.00  0.00    +0.000 A 
ATOM     29  C   UNL     1       6.309   0.989   1.058  0.00  0.00    +0.000 A 
ATOM     30  C   UNL     1       4.964   0.967   0.713  0.00  0.00    +0.000 A 
ENDBRANCH  24  25
ENDBRANCH  23  24
ENDBRANCH   5  21
TORSDOF 6
