REMARK  Name = 
REMARK  7 active torsions:
REMARK  status: ('A' for Active; 'I' for Inactive)
REMARK    1  A    between atoms: O_2  and  C_3
REMARK    2  A    between atoms: C_6  and  C_7
REMARK    3  A    between atoms: C_10  and  C_11
REMARK    4  A    between atoms: C_17  and  C_18
REMARK    5  A    between atoms: N_20  and  C_21
REMARK    6  A    between atoms: C_21  and  C_22
REMARK    7  A    between atoms: C_25  and  C_26
REMARK                            x       y       z     vdW  Elec       q    Type
REMARK                         _______ _______ _______ _____ _____    ______ ____
ROOT
ATOM      1  C   UNL     1      -2.782   0.033  -0.829  0.00  0.00    +0.000 A 
ATOM      2  N   UNL     1      -3.762  -0.655  -1.456  0.00  0.00    +0.000 NA
ATOM      3  O   UNL     1      -3.563  -1.909  -1.333  0.00  0.00    +0.000 OA
ATOM      4  C   UNL     1      -2.471  -2.183  -0.637  0.00  0.00    +0.000 A 
ATOM      5  C   UNL     1      -1.952  -0.958  -0.299  0.00  0.00    +0.000 A 
ENDROOT
BRANCH   1   9
ATOM      6  C   UNL     1      -2.628   4.271  -0.574  0.00  0.00    +0.000 A 
ATOM      7  C   UNL     1      -1.534   3.551  -0.998  0.00  0.00    +0.000 A 
ATOM      8  C   UNL     1      -1.536   2.184  -1.098  0.00  0.00    +0.000 A 
ATOM      9  C   UNL     1      -2.674   1.495  -0.764  0.00  0.00    +0.000 A 
ATOM     10  C   UNL     1      -3.774   2.207  -0.340  0.00  0.00    +0.000 A 
ATOM     11  C   UNL     1      -3.757   3.560  -0.246  0.00  0.00    +0.000 A 
BRANCH   6  13
ATOM     12  C   UNL     1      -3.684   6.427  -0.064  0.00  0.00    +0.000 C 
ATOM     13  O   UNL     1      -2.577   5.677  -0.489  0.00  0.00    +0.000 OA
ENDBRANCH   6  13
ENDBRANCH   1   9
BRANCH   4  14
ATOM     14  C   UNL     1      -2.014  -3.532  -0.354  0.00  0.00    +0.000 A 
ATOM     15  C   UNL     1      -0.899  -3.866   0.334  0.00  0.00    +0.000 A 
ATOM     16  C   UNL     1      -0.565  -5.195   0.526  0.00  0.00    +0.000 A 
ATOM     17  C   UNL     1      -1.356  -6.207   0.023  0.00  0.00    +0.000 A 
ATOM     18  C   UNL     1      -2.510  -5.892  -0.689  0.00  0.00    +0.000 A 
ATOM     19  C   UNL     1      -2.798  -4.569  -0.852  0.00  0.00    +0.000 A 
ENDBRANCH   4  14
BRANCH   5  20
ATOM     20  C   UNL     1      -0.784  -0.661   0.505  0.00  0.00    +0.000 C 
ATOM     21  O   UNL     1      -0.089  -1.571   0.988  0.00  0.00    +0.000 OA
ATOM     22  N   UNL     1      -0.382   0.674   0.787  0.00  0.00    +0.000 NA
BRANCH  22  23
ATOM     23  C   UNL     1       0.732   0.949   1.595  0.00  0.00    +0.000 C 
BRANCH  23  24
ATOM     24  C   UNL     1       2.072   0.790   1.084  0.00  0.00    +0.000 A 
ATOM     25  C   UNL     1       2.484   0.162  -0.064  0.00  0.00    +0.000 A 
ATOM     26  C   UNL     1       3.836   0.072  -0.419  0.00  0.00    +0.000 A 
ATOM     27  C   UNL     1       4.806   0.613   0.379  0.00  0.00    +0.000 A 
ATOM     28  C   UNL     1       4.417   1.252   1.540  0.00  0.00    +0.000 A 
ATOM     29  C   UNL     1       3.099   1.336   1.877  0.00  0.00    +0.000 A 
BRANCH  27  30
ATOM     30  C   UNL     1       6.265   0.538   0.062  0.00  0.00    +0.000 C 
ATOM     31  C   UNL     1       6.949  -0.161   1.234  0.00  0.00    +0.000 C 
ATOM     32  C   UNL     1       6.529  -0.314  -1.156  0.00  0.00    +0.000 C 
ATOM     33  C   UNL     1       6.901   1.884  -0.128  0.00  0.00    +0.000 C 
ENDBRANCH  27  30
ENDBRANCH  23  24
ENDBRANCH  22  23
ENDBRANCH   5  20
TORSDOF 7
