REMARK  Name = 
REMARK  9 active torsions:
REMARK  status: ('A' for Active; 'I' for Inactive)
REMARK    1  A    between atoms: C_2  and  C_3
REMARK    2  A    between atoms: C_3  and  N_4
REMARK    3  A    between atoms: C_8  and  C_9
REMARK    4  A    between atoms: C_9  and  C_11
REMARK    5  A    between atoms: C_11  and  O_12
REMARK    6  A    between atoms: O_12  and  C_13
REMARK    7  A    between atoms: C_13  and  C_15
REMARK    8  A    between atoms: C_15  and  C_17
REMARK    9  A    between atoms: C_15  and  C_23
REMARK                            x       y       z     vdW  Elec       q    Type
REMARK                         _______ _______ _______ _____ _____    ______ ____
ROOT
ATOM      1  C   UNL     1      -1.078  -0.471  -0.796  0.00  0.00    +0.000 C 
ATOM      2  O   UNL     1      -0.882  -0.711   0.412  0.00  0.00    +0.000 OA
ENDROOT
BRANCH   1   3
ATOM      3  C   UNL     1      -2.465  -0.148  -1.212  0.00  0.00    +0.000 C 
ATOM      4  O   UNL     1      -2.519   0.097  -2.598  0.00  0.00    +0.000 OA
BRANCH   3   5
ATOM      5  C   UNL     1      -3.015   0.984  -0.433  0.00  0.00    +0.000 A 
ATOM      6  C   UNL     1      -4.268   1.490  -0.708  0.00  0.00    +0.000 A 
ATOM      7  C   UNL     1      -4.791   2.547   0.013  0.00  0.00    +0.000 A 
ATOM      8  C   UNL     1      -4.086   3.143   1.039  0.00  0.00    +0.000 A 
ATOM      9  C   UNL     1      -2.833   2.641   1.319  0.00  0.00    +0.000 A 
ATOM     10  C   UNL     1      -2.323   1.595   0.600  0.00  0.00    +0.000 A 
ENDBRANCH   3   5
BRANCH   3  11
ATOM     11  C   UNL     1      -3.275  -1.390  -0.998  0.00  0.00    +0.000 A 
ATOM     12  C   UNL     1      -4.581  -1.351  -1.452  0.00  0.00    +0.000 A 
ATOM     13  C   UNL     1      -5.423  -2.445  -1.307  0.00  0.00    +0.000 A 
ATOM     14  C   UNL     1      -4.886  -3.556  -0.691  0.00  0.00    +0.000 A 
ATOM     15  C   UNL     1      -3.597  -3.621  -0.233  0.00  0.00    +0.000 A 
ATOM     16  C   UNL     1      -2.770  -2.510  -0.390  0.00  0.00    +0.000 A 
ENDBRANCH   3  11
ENDBRANCH   1   3
BRANCH   1  17
ATOM     17  O   UNL     1      -0.003  -0.523  -1.656  0.00  0.00    +0.000 OA
BRANCH  17  18
ATOM     18  C   UNL     1       1.267  -0.838  -1.159  0.00  0.00    +0.000 C 
BRANCH  18  19
ATOM     19  C   UNL     1       1.761   0.090  -0.145  0.00  0.00    +0.000 C 
ATOM     20  O   UNL     1       1.054   1.063   0.197  0.00  0.00    +0.000 OA
BRANCH  19  25
ATOM     21  N   UNL     1       4.821   0.256   1.780  0.00  0.00    +0.000 N 
ATOM     22  C   UNL     1       5.071  -0.858   1.062  0.00  0.00    +0.000 A 
ATOM     23  C   UNL     1       6.330  -1.663   1.178  0.00  0.00    +0.000 C 
ATOM     24  C   UNL     1       3.992  -1.098   0.242  0.00  0.00    +0.000 A 
ATOM     25  C   UNL     1       3.054  -0.095   0.470  0.00  0.00    +0.000 A 
ATOM     26  C   UNL     1       3.611   0.719   1.428  0.00  0.00    +0.000 A 
ATOM     27  C   UNL     1       2.979   1.940   2.004  0.00  0.00    +0.000 C 
BRANCH  21  28
ATOM     28  C   UNL     1       5.707   0.839   2.753  0.00  0.00    +0.000 C 
BRANCH  28  30
ATOM     29  C   UNL     1       6.540   2.061   0.813  0.00  0.00    +0.000 C 
ATOM     30  C   UNL     1       6.609   1.815   2.121  0.00  0.00    +0.000 C 
ENDBRANCH  28  30
ENDBRANCH  21  28
ENDBRANCH  19  25
ENDBRANCH  18  19
ENDBRANCH  17  18
ENDBRANCH   1  17
TORSDOF 9
