REMARK  Name = 
REMARK  7 active torsions:
REMARK  status: ('A' for Active; 'I' for Inactive)
REMARK    1  A    between atoms: C_5  and  C_6
REMARK    2  A    between atoms: C_6  and  S_7
REMARK    3  A    between atoms: S_7  and  C_8
REMARK    4  A    between atoms: N_19  and  C_20
REMARK    5  A    between atoms: C_20  and  C_21
REMARK    6  A    between atoms: C_21  and  C_22
REMARK    7  A    between atoms: C_22  and  C_23
REMARK                            x       y       z     vdW  Elec       q    Type
REMARK                         _______ _______ _______ _____ _____    ______ ____
ROOT
ATOM      1  C   UNL     1       0.352   0.304  -0.061  0.00  0.00    +0.000 A 
ATOM      2  N   UNL     1       0.857  -0.755  -0.719  0.00  0.00    +0.000 NA
ATOM      3  C   UNL     1       0.444  -1.899  -0.153  0.00  0.00    +0.000 A 
ATOM      4  C   UNL     1      -0.362  -1.534   0.915  0.00  0.00    +0.000 A 
ATOM      5  C   UNL     1      -0.930  -2.534   1.686  0.00  0.00    +0.000 A 
ATOM      6  O   UNL     1      -1.659  -2.188   2.651  0.00  0.00    +0.000 OA
ATOM      7  N   UNL     1      -0.683  -3.822   1.374  0.00  0.00    +0.000 NA
ATOM      8  C   UNL     1       0.100  -4.170   0.336  0.00  0.00    +0.000 A 
ATOM      9  O   UNL     1       0.303  -5.365   0.083  0.00  0.00    +0.000 OA
ATOM     10  N   UNL     1       0.652  -3.197  -0.412  0.00  0.00    +0.000 N 
ATOM     11  C   UNL     1       1.509  -3.545  -1.549  0.00  0.00    +0.000 C 
ATOM     12  N   UNL     1      -0.398  -0.177   0.944  0.00  0.00    +0.000 N 
ENDROOT
BRANCH   1  13
ATOM     13  S   UNL     1       0.651   2.013  -0.482  0.00  0.00    +0.000 S 
BRANCH  13  14
ATOM     14  C   UNL     1       2.099   2.671   0.346  0.00  0.00    +0.000 C 
BRANCH  14  19
ATOM     15  C   UNL     1       6.993   0.128  -1.343  0.00  0.00    +0.000 C 
ATOM     16  C   UNL     1       5.743   0.835  -0.965  0.00  0.00    +0.000 A 
ATOM     17  C   UNL     1       5.034   0.309   0.103  0.00  0.00    +0.000 A 
ATOM     18  C   UNL     1       3.854   0.911   0.520  0.00  0.00    +0.000 A 
ATOM     19  C   UNL     1       3.357   2.033  -0.103  0.00  0.00    +0.000 A 
ATOM     20  C   UNL     1       4.073   2.545  -1.163  0.00  0.00    +0.000 A 
ATOM     21  C   UNL     1       5.262   1.944  -1.589  0.00  0.00    +0.000 A 
ENDBRANCH  14  19
ENDBRANCH  13  14
ENDBRANCH   1  13
BRANCH  12  22
ATOM     22  C   UNL     1      -1.140   0.600   1.923  0.00  0.00    +0.000 C 
BRANCH  22  23
ATOM     23  C   UNL     1      -2.531   0.845   1.387  0.00  0.00    +0.000 C 
BRANCH  23  24
ATOM     24  C   UNL     1      -2.495   1.609   0.078  0.00  0.00    +0.000 C 
BRANCH  24  25
ATOM     25  C   UNL     1      -3.889   1.826  -0.412  0.00  0.00    +0.000 A 
ATOM     26  C   UNL     1      -4.533   0.940  -1.233  0.00  0.00    +0.000 A 
ATOM     27  C   UNL     1      -5.816   1.191  -1.654  0.00  0.00    +0.000 A 
ATOM     28  C   UNL     1      -6.501   2.326  -1.275  0.00  0.00    +0.000 A 
ATOM     29  C   UNL     1      -5.815   3.191  -0.447  0.00  0.00    +0.000 A 
ATOM     30  C   UNL     1      -4.531   2.966  -0.010  0.00  0.00    +0.000 A 
ENDBRANCH  24  25
ENDBRANCH  23  24
ENDBRANCH  22  23
ENDBRANCH  12  22
TORSDOF 7
