REMARK  Name = 
REMARK  8 active torsions:
REMARK  status: ('A' for Active; 'I' for Inactive)
REMARK    1  A    between atoms: C_2  and  O_3
REMARK    2  A    between atoms: O_3  and  C_4
REMARK    3  A    between atoms: C_7  and  C_8
REMARK    4  A    between atoms: C_11  and  C_12
REMARK    5  A    between atoms: C_12  and  N_13
REMARK    6  A    between atoms: N_13  and  C_14
REMARK    7  A    between atoms: C_14  and  C_15
REMARK    8  A    between atoms: C_20  and  O_21
REMARK                            x       y       z     vdW  Elec       q    Type
REMARK                         _______ _______ _______ _____ _____    ______ ____
ROOT
ATOM      1  C   UNL     1       2.174   0.221   0.631  0.00  0.00    +0.000 A 
ATOM      2  C   UNL     1       1.514   0.536   1.795  0.00  0.00    +0.000 A 
ATOM      3  C   UNL     1       0.209   0.227   2.019  0.00  0.00    +0.000 A 
ATOM      4  C   UNL     1      -0.496  -0.445   1.008  0.00  0.00    +0.000 A 
ATOM      5  C   UNL     1       0.128  -0.785  -0.175  0.00  0.00    +0.000 A 
ATOM      6  C   UNL     1      -0.546  -1.485  -1.163  0.00  0.00    +0.000 A 
ATOM      7  N   UNL     1       0.063  -1.851  -2.301  0.00  0.00    +0.000 NA
ATOM      8  C   UNL     1       1.329  -1.549  -2.507  0.00  0.00    +0.000 A 
ATOM      9  C   UNL     1       2.058  -0.843  -1.539  0.00  0.00    +0.000 A 
ATOM     10  C   UNL     1       1.458  -0.450  -0.356  0.00  0.00    +0.000 A 
ENDROOT
BRANCH   1  14
ATOM     11  C   UNL     1       6.229   1.256   0.020  0.00  0.00    +0.000 A 
ATOM     12  C   UNL     1       5.363   2.161   0.543  0.00  0.00    +0.000 A 
ATOM     13  C   UNL     1       4.029   1.798   0.739  0.00  0.00    +0.000 A 
ATOM     14  C   UNL     1       3.573   0.548   0.414  0.00  0.00    +0.000 A 
ATOM     15  C   UNL     1       4.473  -0.336  -0.109  0.00  0.00    +0.000 A 
ATOM     16  C   UNL     1       5.795  -0.034  -0.322  0.00  0.00    +0.000 A 
BRANCH  11  17
ATOM     17  O   UNL     1       7.580   1.603  -0.181  0.00  0.00    +0.000 OA
BRANCH  17  19
ATOM     18  C   UNL     1       9.819   1.093  -0.891  0.00  0.00    +0.000 C 
ATOM     19  C   UNL     1       8.423   0.583  -0.733  0.00  0.00    +0.000 C 
ENDBRANCH  17  19
ENDBRANCH  11  17
ENDBRANCH   1  14
BRANCH   4  20
ATOM     20  C   UNL     1      -1.904  -0.669   1.246  0.00  0.00    +0.000 C 
BRANCH  20  21
ATOM     21  N   UNL     1      -2.426  -1.928   0.652  0.00  0.00    +0.000 NA
BRANCH  21  22
ATOM     22  C   UNL     1      -3.801  -1.947   1.198  0.00  0.00    +0.000 C 
BRANCH  22  23
ATOM     23  C   UNL     1      -4.681  -1.112   0.291  0.00  0.00    +0.000 A 
ATOM     24  C   UNL     1      -4.426  -0.940  -1.045  0.00  0.00    +0.000 A 
ATOM     25  C   UNL     1      -5.195  -0.064  -1.812  0.00  0.00    +0.000 A 
ATOM     26  C   UNL     1      -6.211   0.631  -1.222  0.00  0.00    +0.000 A 
ATOM     27  O   UNL     1      -6.982   1.515  -2.002  0.00  0.00    +0.000 OA
ATOM     28  C   UNL     1      -6.507   0.483   0.142  0.00  0.00    +0.000 A 
ATOM     29  C   UNL     1      -5.718  -0.402   0.873  0.00  0.00    +0.000 A 
BRANCH  28  30
ATOM     30  O   UNL     1      -7.541   1.195   0.726  0.00  0.00    +0.000 OA
ATOM     31  C   UNL     1      -7.783   0.987   2.114  0.00  0.00    +0.000 C 
ENDBRANCH  28  30
ENDBRANCH  22  23
ENDBRANCH  21  22
ENDBRANCH  20  21
ENDBRANCH   4  20
TORSDOF 8
