REMARK  Name = 
REMARK  5 active torsions:
REMARK  status: ('A' for Active; 'I' for Inactive)
REMARK    1  A    between atoms: C_5  and  C_6
REMARK    2  A    between atoms: C_6  and  C_7
REMARK    3  A    between atoms: C_7  and  N_8
REMARK    4  A    between atoms: C_11  and  C_12
REMARK    5  A    between atoms: C_14  and  C_15
REMARK                            x       y       z     vdW  Elec       q    Type
REMARK                         _______ _______ _______ _____ _____    ______ ____
ROOT
ATOM      1  N   UNL     1      -2.710   0.258   0.521  0.00  0.00    +0.000 NA
ATOM      2  C   UNL     1      -1.694  -0.540   1.157  0.00  0.00    +0.000 C 
ATOM      3  C   UNL     1      -0.741   0.322   1.917  0.00  0.00    +0.000 C 
ATOM      4  C   UNL     1      -0.020   1.270   0.998  0.00  0.00    +0.000 C 
ATOM      5  C   UNL     1      -0.930   1.722  -0.117  0.00  0.00    +0.000 C 
ATOM      6  C   UNL     1      -2.350   1.655   0.403  0.00  0.00    +0.000 C 
ENDROOT
BRANCH   4   7
ATOM      7  C   UNL     1       1.250   0.693   0.476  0.00  0.00    +0.000 A 
ATOM      8  C   UNL     1       2.556   0.994   0.795  0.00  0.00    +0.000 A 
ATOM      9  C   UNL     1       3.419   0.207   0.063  0.00  0.00    +0.000 A 
ATOM     10  N   UNL     1       2.619  -0.568  -0.698  0.00  0.00    +0.000 NA
ATOM     11  N   UNL     1       1.342  -0.284  -0.457  0.00  0.00    +0.000 NA
BRANCH   9  12
ATOM     12  C   UNL     1       4.878   0.203   0.092  0.00  0.00    +0.000 A 
ATOM     13  C   UNL     1       5.596   1.043   0.913  0.00  0.00    +0.000 A 
ATOM     14  C   UNL     1       6.994   1.020   0.921  0.00  0.00    +0.000 A 
ATOM     15  C   UNL     1       7.697   0.156   0.109  0.00  0.00    +0.000 A 
ATOM     16  C   UNL     1       6.968  -0.684  -0.711  0.00  0.00    +0.000 A 
ATOM     17  C   UNL     1       5.589  -0.656  -0.715  0.00  0.00    +0.000 A 
ATOM     18  O   UNL     1       7.663  -1.553  -1.528  0.00  0.00    +0.000 OA
ATOM     19  C   UNL     1       9.054  -1.496  -1.719  0.00  0.00    +0.000 C 
ATOM     20  C   UNL     1       9.729  -0.329  -1.082  0.00  0.00    +0.000 C 
ATOM     21  O   UNL     1       9.096   0.120   0.106  0.00  0.00    +0.000 OA
ENDBRANCH   9  12
ENDBRANCH   4   7
BRANCH   1  22
ATOM     22  C   UNL     1      -3.088  -0.344  -0.727  0.00  0.00    +0.000 C 
BRANCH  22  23
ATOM     23  C   UNL     1      -4.154   0.459  -1.438  0.00  0.00    +0.000 C 
BRANCH  23  28
ATOM     24  C   UNL     1      -8.081  -2.530  -0.342  0.00  0.00    +0.000 A 
ATOM     25  C   UNL     1      -6.928  -2.707  -1.077  0.00  0.00    +0.000 A 
ATOM     26  C   UNL     1      -6.054  -1.642  -1.164  0.00  0.00    +0.000 A 
ATOM     27  C   UNL     1      -6.299  -0.432  -0.548  0.00  0.00    +0.000 A 
ATOM     28  C   UNL     1      -5.396   0.603  -0.664  0.00  0.00    +0.000 A 
ATOM     29  C   UNL     1      -5.656   1.803  -0.045  0.00  0.00    +0.000 A 
ATOM     30  C   UNL     1      -6.811   1.950   0.680  0.00  0.00    +0.000 A 
ATOM     31  C   UNL     1      -7.702   0.918   0.789  0.00  0.00    +0.000 A 
ATOM     32  C   UNL     1      -7.464  -0.293   0.179  0.00  0.00    +0.000 A 
ATOM     33  C   UNL     1      -8.371  -1.337   0.293  0.00  0.00    +0.000 A 
ENDBRANCH  23  28
ENDBRANCH  22  23
ENDBRANCH   1  22
TORSDOF 5
