MODEL 1
REMARK VINA RESULT:      -6.7      0.000      0.000
REMARK  Name = 
REMARK  2 active torsions:
REMARK  status: ('A' for Active; 'I' for Inactive)
REMARK    1  A    between atoms: C_2  and  N_5
REMARK    2  A    between atoms: C_9  and  C_10
REMARK                            x       y       z     vdW  Elec       q    Type
REMARK                         _______ _______ _______ _____ _____    ______ ____
ROOT
ATOM      1  N   UNL     1      33.245  -5.859  33.161  0.00  0.00    +0.000 NA
ATOM      2  C   UNL     1      33.151  -4.528  33.589  0.00  0.00    +0.000 C 
ATOM      3  N   UNL     1      33.870  -3.649  33.005  0.00  0.00    +0.000 NA
ATOM      4  N   UNL     1      33.882  -2.313  33.317  0.00  0.00    +0.000 NA
ATOM      5  C   UNL     1      33.136  -1.647  34.306  0.00  0.00    +0.000 C 
ATOM      6  C   UNL     1      32.290  -2.271  35.093  0.00  0.00    +0.000 C 
ATOM      7  S   UNL     1      32.066  -4.018  34.918  0.00  0.00    +0.000 S 
ENDROOT
BRANCH   5   8
ATOM      8  C   UNL     1      33.327  -0.176  34.453  0.00  0.00    +0.000 A 
ATOM      9  C   UNL     1      33.643   0.534  35.576  0.00  0.00    +0.000 A 
ATOM     10  C   UNL     1      33.706   1.861  35.197  0.00  0.00    +0.000 A 
ATOM     11  C   UNL     1      33.970   3.031  35.841  0.00  0.00    +0.000 A 
ATOM     12  C   UNL     1      33.966   4.262  35.196  0.00  0.00    +0.000 A 
ATOM     13  C   UNL     1      33.677   4.234  33.849  0.00  0.00    +0.000 A 
ATOM     14  C   UNL     1      33.403   3.080  33.152  0.00  0.00    +0.000 A 
ATOM     15  C   UNL     1      33.422   1.882  33.848  0.00  0.00    +0.000 A 
ATOM     16  O   UNL     1      33.208   0.657  33.472  0.00  0.00    +0.000 OA
ENDBRANCH   5   8
BRANCH   1  18
ATOM     17  C   UNL     1      33.175  -7.488  31.327  0.00  0.00    +0.000 C 
ATOM     18  C   UNL     1      33.632  -6.127  31.801  0.00  0.00    +0.000 C 
ATOM     19  C   UNL     1      35.149  -6.123  31.731  0.00  0.00    +0.000 C 
ATOM     20  C   UNL     1      33.127  -5.104  30.831  0.00  0.00    +0.000 C 
ENDBRANCH   1  18
TORSDOF 2
ENDMDL
MODEL 2
REMARK VINA RESULT:      -6.2     14.408     15.807
REMARK  Name = 
REMARK  2 active torsions:
REMARK  status: ('A' for Active; 'I' for Inactive)
REMARK    1  A    between atoms: C_2  and  N_5
REMARK    2  A    between atoms: C_9  and  C_10
REMARK                            x       y       z     vdW  Elec       q    Type
REMARK                         _______ _______ _______ _____ _____    ______ ____
ROOT
ATOM      1  N   UNL     1      26.747  -9.336  23.136  0.00  0.00    +0.000 NA
ATOM      2  C   UNL     1      25.581  -8.699  23.580  0.00  0.00    +0.000 C 
ATOM      3  N   UNL     1      24.703  -9.397  24.192  0.00  0.00    +0.000 NA
ATOM      4  N   UNL     1      23.516  -8.910  24.681  0.00  0.00    +0.000 NA
ATOM      5  C   UNL     1      23.028  -7.592  24.618  0.00  0.00    +0.000 C 
ATOM      6  C   UNL     1      23.698  -6.617  24.047  0.00  0.00    +0.000 C 
ATOM      7  S   UNL     1      25.277  -6.954  23.323  0.00  0.00    +0.000 S 
ENDROOT
BRANCH   5   8
ATOM      8  C   UNL     1      21.698  -7.310  25.228  0.00  0.00    +0.000 A 
ATOM      9  C   UNL     1      20.789  -8.195  25.737  0.00  0.00    +0.000 A 
ATOM     10  C   UNL     1      19.719  -7.444  26.184  0.00  0.00    +0.000 A 
ATOM     11  C   UNL     1      18.528  -7.731  26.776  0.00  0.00    +0.000 A 
ATOM     12  C   UNL     1      17.608  -6.751  27.131  0.00  0.00    +0.000 A 
ATOM     13  C   UNL     1      17.974  -5.453  26.847  0.00  0.00    +0.000 A 
ATOM     14  C   UNL     1      19.165  -5.110  26.250  0.00  0.00    +0.000 A 
ATOM     15  C   UNL     1      20.042  -6.130  25.918  0.00  0.00    +0.000 A 
ATOM     16  O   UNL     1      21.214  -6.119  25.358  0.00  0.00    +0.000 OA
ENDBRANCH   5   8
BRANCH   1  18
ATOM     17  C   UNL     1      27.444 -10.249  25.304  0.00  0.00    +0.000 C 
ATOM     18  C   UNL     1      27.210 -10.506  23.833  0.00  0.00    +0.000 C 
ATOM     19  C   UNL     1      28.547 -10.913  23.239  0.00  0.00    +0.000 C 
ATOM     20  C   UNL     1      26.280 -11.673  23.708  0.00  0.00    +0.000 C 
ENDBRANCH   1  18
TORSDOF 2
ENDMDL
MODEL 3
REMARK VINA RESULT:      -6.1      3.548      8.360
REMARK  Name = 
REMARK  2 active torsions:
REMARK  status: ('A' for Active; 'I' for Inactive)
REMARK    1  A    between atoms: C_2  and  N_5
REMARK    2  A    between atoms: C_9  and  C_10
REMARK                            x       y       z     vdW  Elec       q    Type
REMARK                         _______ _______ _______ _____ _____    ______ ____
ROOT
ATOM      1  N   UNL     1      33.972   5.084  36.821  0.00  0.00    +0.000 NA
ATOM      2  C   UNL     1      34.031   3.697  36.626  0.00  0.00    +0.000 C 
ATOM      3  N   UNL     1      33.821   3.238  35.453  0.00  0.00    +0.000 NA
ATOM      4  N   UNL     1      33.846   1.908  35.115  0.00  0.00    +0.000 NA
ATOM      5  C   UNL     1      34.098   0.806  35.952  0.00  0.00    +0.000 C 
ATOM      6  C   UNL     1      34.353   0.936  37.234  0.00  0.00    +0.000 C 
ATOM      7  S   UNL     1      34.386   2.552  37.955  0.00  0.00    +0.000 S 
ENDROOT
BRANCH   5   8
ATOM      8  C   UNL     1      34.069  -0.554  35.344  0.00  0.00    +0.000 A 
ATOM      9  C   UNL     1      33.523  -0.943  34.153  0.00  0.00    +0.000 A 
ATOM     10  C   UNL     1      33.756  -2.300  34.040  0.00  0.00    +0.000 A 
ATOM     11  C   UNL     1      33.467  -3.248  33.106  0.00  0.00    +0.000 A 
ATOM     12  C   UNL     1      33.830  -4.582  33.250  0.00  0.00    +0.000 A 
ATOM     13  C   UNL     1      34.510  -4.897  34.407  0.00  0.00    +0.000 A 
ATOM     14  C   UNL     1      34.827  -3.978  35.380  0.00  0.00    +0.000 A 
ATOM     15  C   UNL     1      34.439  -2.663  35.182  0.00  0.00    +0.000 A 
ATOM     16  O   UNL     1      34.590  -1.595  35.905  0.00  0.00    +0.000 OA
ENDBRANCH   5   8
BRANCH   1  18
ATOM     17  C   UNL     1      35.642   5.710  35.137  0.00  0.00    +0.000 C 
ATOM     18  C   UNL     1      34.266   5.954  35.714  0.00  0.00    +0.000 C 
ATOM     19  C   UNL     1      34.251   7.386  36.222  0.00  0.00    +0.000 C 
ATOM     20  C   UNL     1      33.271   5.853  34.601  0.00  0.00    +0.000 C 
ENDBRANCH   1  18
TORSDOF 2
ENDMDL
MODEL 4
REMARK VINA RESULT:      -6.0     15.098     16.095
REMARK  Name = 
REMARK  2 active torsions:
REMARK  status: ('A' for Active; 'I' for Inactive)
REMARK    1  A    between atoms: C_2  and  N_5
REMARK    2  A    between atoms: C_9  and  C_10
REMARK                            x       y       z     vdW  Elec       q    Type
REMARK                         _______ _______ _______ _____ _____    ______ ____
ROOT
ATOM      1  N   UNL     1      26.616 -10.156  23.336  0.00  0.00    +0.000 NA
ATOM      2  C   UNL     1      25.390  -9.865  23.948  0.00  0.00    +0.000 C 
ATOM      3  N   UNL     1      24.895  -8.697  23.793  0.00  0.00    +0.000 NA
ATOM      4  N   UNL     1      23.706  -8.272  24.333  0.00  0.00    +0.000 NA
ATOM      5  C   UNL     1      22.812  -8.997  25.140  0.00  0.00    +0.000 C 
ATOM      6  C   UNL     1      23.028 -10.244  25.490  0.00  0.00    +0.000 C 
ATOM      7  S   UNL     1      24.497 -11.061  24.936  0.00  0.00    +0.000 S 
ENDROOT
BRANCH   5   8
ATOM      8  C   UNL     1      21.576  -8.308  25.606  0.00  0.00    +0.000 A 
ATOM      9  C   UNL     1      20.491  -8.842  26.242  0.00  0.00    +0.000 A 
ATOM     10  C   UNL     1      19.613  -7.798  26.464  0.00  0.00    +0.000 A 
ATOM     11  C   UNL     1      18.385  -7.684  27.041  0.00  0.00    +0.000 A 
ATOM     12  C   UNL     1      17.706  -6.475  27.132  0.00  0.00    +0.000 A 
ATOM     13  C   UNL     1      18.354  -5.381  26.599  0.00  0.00    +0.000 A 
ATOM     14  C   UNL     1      19.593  -5.442  26.006  0.00  0.00    +0.000 A 
ATOM     15  C   UNL     1      20.222  -6.675  25.944  0.00  0.00    +0.000 A 
ATOM     16  O   UNL     1      21.369  -7.041  25.456  0.00  0.00    +0.000 OA
ENDBRANCH   5   8
BRANCH   1  18
ATOM     17  C   UNL     1      25.938  -9.547  21.058  0.00  0.00    +0.000 C 
ATOM     18  C   UNL     1      26.985  -9.441  22.143  0.00  0.00    +0.000 C 
ATOM     19  C   UNL     1      28.255 -10.065  21.591  0.00  0.00    +0.000 C 
ATOM     20  C   UNL     1      27.257  -7.989  22.386  0.00  0.00    +0.000 C 
ENDBRANCH   1  18
TORSDOF 2
ENDMDL
MODEL 5
REMARK VINA RESULT:      -5.9     27.347     31.112
REMARK  Name = 
REMARK  2 active torsions:
REMARK  status: ('A' for Active; 'I' for Inactive)
REMARK    1  A    between atoms: C_2  and  N_5
REMARK    2  A    between atoms: C_9  and  C_10
REMARK                            x       y       z     vdW  Elec       q    Type
REMARK                         _______ _______ _______ _____ _____    ______ ____
ROOT
ATOM      1  N   UNL     1      29.515  28.603  17.599  0.00  0.00    +0.000 NA
ATOM      2  C   UNL     1      29.277  27.915  18.797  0.00  0.00    +0.000 C 
ATOM      3  N   UNL     1      30.007  26.903  19.072  0.00  0.00    +0.000 NA
ATOM      4  N   UNL     1      29.889  26.136  20.204  0.00  0.00    +0.000 NA
ATOM      5  C   UNL     1      28.977  26.290  21.264  0.00  0.00    +0.000 C 
ATOM      6  C   UNL     1      28.078  27.247  21.290  0.00  0.00    +0.000 C 
ATOM      7  S   UNL     1      27.995  28.398  19.948  0.00  0.00    +0.000 S 
ENDROOT
BRANCH   5   8
ATOM      8  C   UNL     1      29.048  25.319  22.392  0.00  0.00    +0.000 A 
ATOM      9  C   UNL     1      28.068  24.966  23.276  0.00  0.00    +0.000 A 
ATOM     10  C   UNL     1      28.626  24.034  24.130  0.00  0.00    +0.000 A 
ATOM     11  C   UNL     1      28.174  23.320  25.197  0.00  0.00    +0.000 A 
ATOM     12  C   UNL     1      28.974  22.423  25.895  0.00  0.00    +0.000 A 
ATOM     13  C   UNL     1      30.268  22.294  25.441  0.00  0.00    +0.000 A 
ATOM     14  C   UNL     1      30.774  22.991  24.369  0.00  0.00    +0.000 A 
ATOM     15  C   UNL     1      29.930  23.871  23.711  0.00  0.00    +0.000 A 
ATOM     16  O   UNL     1      30.115  24.652  22.690  0.00  0.00    +0.000 OA
ENDBRANCH   5   8
BRANCH   1  18
ATOM     17  C   UNL     1      31.154  29.825  16.244  0.00  0.00    +0.000 C 
ATOM     18  C   UNL     1      30.836  28.574  17.031  0.00  0.00    +0.000 C 
ATOM     19  C   UNL     1      30.907  27.411  16.056  0.00  0.00    +0.000 C 
ATOM     20  C   UNL     1      31.914  28.381  18.052  0.00  0.00    +0.000 C 
ENDBRANCH   1  18
TORSDOF 2
ENDMDL
MODEL 6
REMARK VINA RESULT:      -5.8     15.851     18.264
REMARK  Name = 
REMARK  2 active torsions:
REMARK  status: ('A' for Active; 'I' for Inactive)
REMARK    1  A    between atoms: C_2  and  N_5
REMARK    2  A    between atoms: C_9  and  C_10
REMARK                            x       y       z     vdW  Elec       q    Type
REMARK                         _______ _______ _______ _____ _____    ______ ____
ROOT
ATOM      1  N   UNL     1      24.893   9.494  37.249  0.00  0.00    +0.000 NA
ATOM      2  C   UNL     1      23.531   9.485  37.578  0.00  0.00    +0.000 C 
ATOM      3  N   UNL     1      23.179   8.981  38.698  0.00  0.00    +0.000 NA
ATOM      4  N   UNL     1      21.886   8.903  39.151  0.00  0.00    +0.000 NA
ATOM      5  C   UNL     1      20.714   9.343  38.509  0.00  0.00    +0.000 C 
ATOM      6  C   UNL     1      20.729   9.914  37.326  0.00  0.00    +0.000 C 
ATOM      7  S   UNL     1      22.272  10.148  36.492  0.00  0.00    +0.000 S 
ENDROOT
BRANCH   5   8
ATOM      8  C   UNL     1      19.415   9.144  39.212  0.00  0.00    +0.000 A 
ATOM      9  C   UNL     1      18.373  10.018  39.339  0.00  0.00    +0.000 A 
ATOM     10  C   UNL     1      17.403   9.367  40.077  0.00  0.00    +0.000 A 
ATOM     11  C   UNL     1      16.162   9.696  40.530  0.00  0.00    +0.000 A 
ATOM     12  C   UNL     1      15.378   8.823  41.274  0.00  0.00    +0.000 A 
ATOM     13  C   UNL     1      15.932   7.587  41.531  0.00  0.00    +0.000 A 
ATOM     14  C   UNL     1      17.181   7.207  41.097  0.00  0.00    +0.000 A 
ATOM     15  C   UNL     1      17.917   8.119  40.359  0.00  0.00    +0.000 A 
ATOM     16  O   UNL     1      19.099   8.051  39.825  0.00  0.00    +0.000 OA
ENDBRANCH   5   8
BRANCH   1  18
ATOM     17  C   UNL     1      27.273   9.713  37.800  0.00  0.00    +0.000 C 
ATOM     18  C   UNL     1      25.864   9.512  38.310  0.00  0.00    +0.000 C 
ATOM     19  C   UNL     1      25.835   8.160  39.002  0.00  0.00    +0.000 C 
ATOM     20  C   UNL     1      25.591  10.560  39.344  0.00  0.00    +0.000 C 
ENDBRANCH   1  18
TORSDOF 2
ENDMDL
MODEL 7
REMARK VINA RESULT:      -5.6     18.086     20.648
REMARK  Name = 
REMARK  2 active torsions:
REMARK  status: ('A' for Active; 'I' for Inactive)
REMARK    1  A    between atoms: C_2  and  N_5
REMARK    2  A    between atoms: C_9  and  C_10
REMARK                            x       y       z     vdW  Elec       q    Type
REMARK                         _______ _______ _______ _____ _____    ______ ____
ROOT
ATOM      1  N   UNL     1      20.936  -7.082  25.307  0.00  0.00    +0.000 NA
ATOM      2  C   UNL     1      19.590  -7.338  25.601  0.00  0.00    +0.000 C 
ATOM      3  N   UNL     1      19.021  -8.329  25.030  0.00  0.00    +0.000 NA
ATOM      4  N   UNL     1      17.713  -8.698  25.219  0.00  0.00    +0.000 NA
ATOM      5  C   UNL     1      16.752  -8.091  26.049  0.00  0.00    +0.000 C 
ATOM      6  C   UNL     1      17.019  -7.034  26.782  0.00  0.00    +0.000 C 
ATOM      7  S   UNL     1      18.643  -6.332  26.738  0.00  0.00    +0.000 S 
ENDROOT
BRANCH   5   8
ATOM      8  C   UNL     1      15.385  -8.683  26.084  0.00  0.00    +0.000 A 
ATOM      9  C   UNL     1      15.003  -9.918  26.526  0.00  0.00    +0.000 A 
ATOM     10  C   UNL     1      13.635  -9.991  26.352  0.00  0.00    +0.000 A 
ATOM     11  C   UNL     1      12.687 -10.938  26.593  0.00  0.00    +0.000 A 
ATOM     12  C   UNL     1      11.340 -10.742  26.313  0.00  0.00    +0.000 A 
ATOM     13  C   UNL     1      11.011  -9.519  25.770  0.00  0.00    +0.000 A 
ATOM     14  C   UNL     1      11.929  -8.529  25.507  0.00  0.00    +0.000 A 
ATOM     15  C   UNL     1      13.258  -8.781  25.807  0.00  0.00    +0.000 A 
ATOM     16  O   UNL     1      14.330  -8.060  25.675  0.00  0.00    +0.000 OA
ENDBRANCH   5   8
BRANCH   1  18
ATOM     17  C   UNL     1      21.897  -9.242  25.959  0.00  0.00    +0.000 C 
ATOM     18  C   UNL     1      21.778  -8.173  24.897  0.00  0.00    +0.000 C 
ATOM     19  C   UNL     1      23.177  -7.629  24.663  0.00  0.00    +0.000 C 
ATOM     20  C   UNL     1      21.323  -8.826  23.629  0.00  0.00    +0.000 C 
ENDBRANCH   1  18
TORSDOF 2
ENDMDL
MODEL 8
REMARK VINA RESULT:      -5.6     14.544     15.611
REMARK  Name = 
REMARK  2 active torsions:
REMARK  status: ('A' for Active; 'I' for Inactive)
REMARK    1  A    between atoms: C_2  and  N_5
REMARK    2  A    between atoms: C_9  and  C_10
REMARK                            x       y       z     vdW  Elec       q    Type
REMARK                         _______ _______ _______ _____ _____    ______ ____
ROOT
ATOM      1  N   UNL     1      24.050   0.051  40.876  0.00  0.00    +0.000 NA
ATOM      2  C   UNL     1      23.267   1.213  40.910  0.00  0.00    +0.000 C 
ATOM      3  N   UNL     1      21.996   1.090  40.915  0.00  0.00    +0.000 NA
ATOM      4  N   UNL     1      21.107   2.136  40.945  0.00  0.00    +0.000 NA
ATOM      5  C   UNL     1      21.390   3.513  40.976  0.00  0.00    +0.000 C 
ATOM      6  C   UNL     1      22.617   3.983  40.980  0.00  0.00    +0.000 C 
ATOM      7  S   UNL     1      23.980   2.854  40.944  0.00  0.00    +0.000 S 
ENDROOT
BRANCH   5   8
ATOM      8  C   UNL     1      20.241   4.461  41.006  0.00  0.00    +0.000 A 
ATOM      9  C   UNL     1      19.031   4.314  41.622  0.00  0.00    +0.000 A 
ATOM     10  C   UNL     1      18.313   5.464  41.357  0.00  0.00    +0.000 A 
ATOM     11  C   UNL     1      17.070   5.915  41.682  0.00  0.00    +0.000 A 
ATOM     12  C   UNL     1      16.586   7.151  41.268  0.00  0.00    +0.000 A 
ATOM     13  C   UNL     1      17.446   7.906  40.500  0.00  0.00    +0.000 A 
ATOM     14  C   UNL     1      18.710   7.497  40.143  0.00  0.00    +0.000 A 
ATOM     15  C   UNL     1      19.138   6.255  40.585  0.00  0.00    +0.000 A 
ATOM     16  O   UNL     1      20.253   5.611  40.415  0.00  0.00    +0.000 OA
ENDBRANCH   5   8
BRANCH   1  18
ATOM     17  C   UNL     1      23.054  -1.005  42.854  0.00  0.00    +0.000 C 
ATOM     18  C   UNL     1      23.511  -1.166  41.423  0.00  0.00    +0.000 C 
ATOM     19  C   UNL     1      24.614  -2.211  41.428  0.00  0.00    +0.000 C 
ATOM     20  C   UNL     1      22.367  -1.714  40.629  0.00  0.00    +0.000 C 
ENDBRANCH   1  18
TORSDOF 2
ENDMDL
MODEL 9
REMARK VINA RESULT:      -5.6     23.882     26.223
REMARK  Name = 
REMARK  2 active torsions:
REMARK  status: ('A' for Active; 'I' for Inactive)
REMARK    1  A    between atoms: C_2  and  N_5
REMARK    2  A    between atoms: C_9  and  C_10
REMARK                            x       y       z     vdW  Elec       q    Type
REMARK                         _______ _______ _______ _____ _____    ______ ____
ROOT
ATOM      1  N   UNL     1      29.909  22.561  31.930  0.00  0.00    +0.000 NA
ATOM      2  C   UNL     1      29.298  22.642  30.671  0.00  0.00    +0.000 C 
ATOM      3  N   UNL     1      30.009  22.996  29.671  0.00  0.00    +0.000 NA
ATOM      4  N   UNL     1      29.548  23.119  28.385  0.00  0.00    +0.000 NA
ATOM      5  C   UNL     1      28.245  22.892  27.906  0.00  0.00    +0.000 C 
ATOM      6  C   UNL     1      27.261  22.513  28.688  0.00  0.00    +0.000 C 
ATOM      7  S   UNL     1      27.565  22.272  30.415  0.00  0.00    +0.000 S 
ENDROOT
BRANCH   5   8
ATOM      8  C   UNL     1      27.990  23.096  26.452  0.00  0.00    +0.000 A 
ATOM      9  C   UNL     1      26.792  23.188  25.802  0.00  0.00    +0.000 A 
ATOM     10  C   UNL     1      27.084  23.374  24.465  0.00  0.00    +0.000 A 
ATOM     11  C   UNL     1      26.343  23.533  23.334  0.00  0.00    +0.000 A 
ATOM     12  C   UNL     1      26.913  23.708  22.079  0.00  0.00    +0.000 A 
ATOM     13  C   UNL     1      28.291  23.712  22.040  0.00  0.00    +0.000 A 
ATOM     14  C   UNL     1      29.085  23.555  23.152  0.00  0.00    +0.000 A 
ATOM     15  C   UNL     1      28.461  23.385  24.377  0.00  0.00    +0.000 A 
ATOM     16  O   UNL     1      28.932  23.217  25.575  0.00  0.00    +0.000 OA
ENDBRANCH   5   8
BRANCH   1  18
ATOM     17  C   UNL     1      31.722  21.663  33.316  0.00  0.00    +0.000 C 
ATOM     18  C   UNL     1      31.320  22.291  32.002  0.00  0.00    +0.000 C 
ATOM     19  C   UNL     1      32.061  23.612  31.901  0.00  0.00    +0.000 C 
ATOM     20  C   UNL     1      31.809  21.407  30.896  0.00  0.00    +0.000 C 
ENDBRANCH   1  18
TORSDOF 2
ENDMDL
MODEL 10
REMARK VINA RESULT:      -5.6     28.323     31.866
REMARK  Name = 
REMARK  2 active torsions:
REMARK  status: ('A' for Active; 'I' for Inactive)
REMARK    1  A    between atoms: C_2  and  N_5
REMARK    2  A    between atoms: C_9  and  C_10
REMARK                            x       y       z     vdW  Elec       q    Type
REMARK                         _______ _______ _______ _____ _____    ______ ____
ROOT
ATOM      1  N   UNL     1      28.741  25.111  24.395  0.00  0.00    +0.000 NA
ATOM      2  C   UNL     1      28.857  25.851  23.210  0.00  0.00    +0.000 C 
ATOM      3  N   UNL     1      29.164  25.234  22.135  0.00  0.00    +0.000 NA
ATOM      4  N   UNL     1      29.312  25.826  20.906  0.00  0.00    +0.000 NA
ATOM      5  C   UNL     1      29.166  27.186  20.576  0.00  0.00    +0.000 C 
ATOM      6  C   UNL     1      28.850  28.099  21.466  0.00  0.00    +0.000 C 
ATOM      7  S   UNL     1      28.596  27.620  23.151  0.00  0.00    +0.000 S 
ENDROOT
BRANCH   5   8
ATOM      8  C   UNL     1      29.381  27.587  19.157  0.00  0.00    +0.000 A 
ATOM      9  C   UNL     1      30.395  27.227  18.314  0.00  0.00    +0.000 A 
ATOM     10  C   UNL     1      30.147  27.858  17.111  0.00  0.00    +0.000 A 
ATOM     11  C   UNL     1      30.773  27.900  15.903  0.00  0.00    +0.000 A 
ATOM     12  C   UNL     1      30.291  28.639  14.830  0.00  0.00    +0.000 A 
ATOM     13  C   UNL     1      29.125  29.338  15.058  0.00  0.00    +0.000 A 
ATOM     14  C   UNL     1      28.453  29.329  16.258  0.00  0.00    +0.000 A 
ATOM     15  C   UNL     1      28.982  28.574  17.292  0.00  0.00    +0.000 A 
ATOM     16  O   UNL     1      28.584  28.373  18.512  0.00  0.00    +0.000 OA
ENDBRANCH   5   8
BRANCH   1  18
ATOM     17  C   UNL     1      27.260  23.468  23.333  0.00  0.00    +0.000 C 
ATOM     18  C   UNL     1      28.383  23.720  24.313  0.00  0.00    +0.000 C 
ATOM     19  C   UNL     1      27.883  23.279  25.678  0.00  0.00    +0.000 C 
ATOM     20  C   UNL     1      29.532  22.835  23.940  0.00  0.00    +0.000 C 
ENDBRANCH   1  18
TORSDOF 2
ENDMDL
