MODEL 1
REMARK VINA RESULT:      -8.5      0.000      0.000
REMARK  Name = 
REMARK  2 active torsions:
REMARK  status: ('A' for Active; 'I' for Inactive)
REMARK    1  A    between atoms: C_4  and  C_5
REMARK    2  A    between atoms: N_7  and  N_8
REMARK                            x       y       z     vdW  Elec       q    Type
REMARK                         _______ _______ _______ _____ _____    ______ ____
ROOT
ATOM      1  N   UNL     1      15.037  12.036  36.235  0.00  0.00    +0.000 NA
ATOM      2  C   UNL     1      15.147  12.003  34.934  0.00  0.00    +0.000 C 
ATOM      3  C   UNL     1      15.878  11.052  34.117  0.00  0.00    +0.000 C 
ATOM      4  O   UNL     1      16.546  10.072  34.535  0.00  0.00    +0.000 OA
ATOM      5  N   UNL     1      15.695  11.437  32.767  0.00  0.00    +0.000 NA
ATOM      6  C   UNL     1      14.865  12.610  32.701  0.00  0.00    +0.000 A 
ATOM      7  C   UNL     1      14.420  13.337  31.612  0.00  0.00    +0.000 A 
ATOM      8  C   UNL     1      14.812  12.915  30.254  0.00  0.00    +0.000 C 
ATOM      9  C   UNL     1      13.621  14.438  31.865  0.00  0.00    +0.000 A 
ATOM     10  C   UNL     1      13.274  14.805  33.147  0.00  0.00    +0.000 A 
ATOM     11  C   UNL     1      13.734  14.059  34.224  0.00  0.00    +0.000 A 
ATOM     12  C   UNL     1      14.535  12.953  33.993  0.00  0.00    +0.000 A 
ENDROOT
BRANCH   1  15
ATOM     13  C   UNL     1      16.941  11.209  37.598  0.00  0.00    +0.000 C 
ATOM     14  O   UNL     1      17.472  12.327  37.605  0.00  0.00    +0.000 OA
ATOM     15  N   UNL     1      15.713  11.021  36.919  0.00  0.00    +0.000 NA
BRANCH  13  19
ATOM     16  C   UNL     1      18.334   7.663  40.942  0.00  0.00    +0.000 C 
ATOM     17  C   UNL     1      18.208   8.575  39.766  0.00  0.00    +0.000 A 
ATOM     18  C   UNL     1      17.301   9.572  39.530  0.00  0.00    +0.000 A 
ATOM     19  C   UNL     1      17.611  10.114  38.302  0.00  0.00    +0.000 A 
ATOM     20  C   UNL     1      18.714   9.407  37.844  0.00  0.00    +0.000 A 
ATOM     21  C   UNL     1      19.372   9.691  36.524  0.00  0.00    +0.000 C 
ATOM     22  O   UNL     1      19.015   8.525  38.736  0.00  0.00    +0.000 OA
ENDBRANCH  13  19
ENDBRANCH   1  15
TORSDOF 2
ENDMDL
MODEL 2
REMARK VINA RESULT:      -8.1      1.623      2.557
REMARK  Name = 
REMARK  2 active torsions:
REMARK  status: ('A' for Active; 'I' for Inactive)
REMARK    1  A    between atoms: C_4  and  C_5
REMARK    2  A    between atoms: N_7  and  N_8
REMARK                            x       y       z     vdW  Elec       q    Type
REMARK                         _______ _______ _______ _____ _____    ______ ____
ROOT
ATOM      1  N   UNL     1      17.054   9.992  34.941  0.00  0.00    +0.000 NA
ATOM      2  C   UNL     1      16.256  10.965  34.595  0.00  0.00    +0.000 C 
ATOM      3  C   UNL     1      15.597  11.936  35.451  0.00  0.00    +0.000 C 
ATOM      4  O   UNL     1      15.687  12.003  36.703  0.00  0.00    +0.000 OA
ATOM      5  N   UNL     1      14.839  12.785  34.609  0.00  0.00    +0.000 NA
ATOM      6  C   UNL     1      14.997  12.383  33.237  0.00  0.00    +0.000 A 
ATOM      7  C   UNL     1      14.456  12.908  32.078  0.00  0.00    +0.000 A 
ATOM      8  C   UNL     1      13.557  14.073  32.166  0.00  0.00    +0.000 C 
ATOM      9  C   UNL     1      14.796  12.297  30.884  0.00  0.00    +0.000 A 
ATOM     10  C   UNL     1      15.639  11.209  30.838  0.00  0.00    +0.000 A 
ATOM     11  C   UNL     1      16.170  10.700  32.016  0.00  0.00    +0.000 A 
ATOM     12  C   UNL     1      15.842  11.296  33.223  0.00  0.00    +0.000 A 
ENDROOT
BRANCH   1  15
ATOM     13  C   UNL     1      18.585   9.662  36.868  0.00  0.00    +0.000 C 
ATOM     14  O   UNL     1      19.567   9.565  36.121  0.00  0.00    +0.000 OA
ATOM     15  N   UNL     1      17.300   9.877  36.312  0.00  0.00    +0.000 NA
BRANCH  13  19
ATOM     16  C   UNL     1      18.847   8.055  41.668  0.00  0.00    +0.000 C 
ATOM     17  C   UNL     1      18.903   8.838  40.398  0.00  0.00    +0.000 A 
ATOM     18  C   UNL     1      18.555   8.466  39.129  0.00  0.00    +0.000 A 
ATOM     19  C   UNL     1      18.794   9.550  38.312  0.00  0.00    +0.000 A 
ATOM     20  C   UNL     1      19.285  10.548  39.143  0.00  0.00    +0.000 A 
ATOM     21  C   UNL     1      19.674  11.907  38.638  0.00  0.00    +0.000 C 
ATOM     22  O   UNL     1      19.327  10.077  40.343  0.00  0.00    +0.000 OA
ENDBRANCH  13  19
ENDBRANCH   1  15
TORSDOF 2
ENDMDL
MODEL 3
REMARK VINA RESULT:      -7.3      1.735      2.330
REMARK  Name = 
REMARK  2 active torsions:
REMARK  status: ('A' for Active; 'I' for Inactive)
REMARK    1  A    between atoms: C_4  and  C_5
REMARK    2  A    between atoms: N_7  and  N_8
REMARK                            x       y       z     vdW  Elec       q    Type
REMARK                         _______ _______ _______ _____ _____    ______ ____
ROOT
ATOM      1  N   UNL     1      16.736  10.977  37.059  0.00  0.00    +0.000 NA
ATOM      2  C   UNL     1      16.736  10.927  35.754  0.00  0.00    +0.000 C 
ATOM      3  C   UNL     1      17.581  10.128  34.884  0.00  0.00    +0.000 C 
ATOM      4  O   UNL     1      18.480   9.329  35.251  0.00  0.00    +0.000 OA
ATOM      5  N   UNL     1      17.200  10.421  33.553  0.00  0.00    +0.000 NA
ATOM      6  C   UNL     1      16.133  11.386  33.549  0.00  0.00    +0.000 A 
ATOM      7  C   UNL     1      15.448  11.965  32.497  0.00  0.00    +0.000 A 
ATOM      8  C   UNL     1      15.801  11.593  31.115  0.00  0.00    +0.000 C 
ATOM      9  C   UNL     1      14.454  12.876  32.810  0.00  0.00    +0.000 A 
ATOM     10  C   UNL     1      14.150  13.201  34.113  0.00  0.00    +0.000 A 
ATOM     11  C   UNL     1      14.853  12.606  35.152  0.00  0.00    +0.000 A 
ATOM     12  C   UNL     1      15.852  11.692  34.862  0.00  0.00    +0.000 A 
ENDROOT
BRANCH   1  15
ATOM     13  C   UNL     1      17.525   9.655  39.008  0.00  0.00    +0.000 C 
ATOM     14  O   UNL     1      16.518   9.949  39.664  0.00  0.00    +0.000 OA
ATOM     15  N   UNL     1      17.673  10.153  37.690  0.00  0.00    +0.000 NA
BRANCH  13  19
ATOM     16  C   UNL     1      20.142   5.729  40.860  0.00  0.00    +0.000 C 
ATOM     17  C   UNL     1      19.663   7.076  40.430  0.00  0.00    +0.000 A 
ATOM     18  C   UNL     1      18.496   7.428  39.808  0.00  0.00    +0.000 A 
ATOM     19  C   UNL     1      18.534   8.793  39.627  0.00  0.00    +0.000 A 
ATOM     20  C   UNL     1      19.745   9.213  40.159  0.00  0.00    +0.000 A 
ATOM     21  C   UNL     1      20.179  10.650  40.161  0.00  0.00    +0.000 C 
ATOM     22  O   UNL     1      20.359   8.171  40.610  0.00  0.00    +0.000 OA
ENDBRANCH  13  19
ENDBRANCH   1  15
TORSDOF 2
ENDMDL
MODEL 4
REMARK VINA RESULT:      -6.9     18.275     19.576
REMARK  Name = 
REMARK  2 active torsions:
REMARK  status: ('A' for Active; 'I' for Inactive)
REMARK    1  A    between atoms: C_4  and  C_5
REMARK    2  A    between atoms: N_7  and  N_8
REMARK                            x       y       z     vdW  Elec       q    Type
REMARK                         _______ _______ _______ _____ _____    ______ ____
ROOT
ATOM      1  N   UNL     1      30.579  22.535  26.369  0.00  0.00    +0.000 NA
ATOM      2  C   UNL     1      29.341  22.623  25.964  0.00  0.00    +0.000 C 
ATOM      3  C   UNL     1      28.130  22.294  26.694  0.00  0.00    +0.000 C 
ATOM      4  O   UNL     1      28.068  21.856  27.871  0.00  0.00    +0.000 OA
ATOM      5  N   UNL     1      27.040  22.558  25.830  0.00  0.00    +0.000 NA
ATOM      6  C   UNL     1      27.523  23.048  24.567  0.00  0.00    +0.000 A 
ATOM      7  C   UNL     1      26.837  23.434  23.430  0.00  0.00    +0.000 A 
ATOM      8  C   UNL     1      25.364  23.364  23.418  0.00  0.00    +0.000 C 
ATOM      9  C   UNL     1      27.587  23.869  22.352  0.00  0.00    +0.000 A 
ATOM     10  C   UNL     1      28.963  23.922  22.396  0.00  0.00    +0.000 A 
ATOM     11  C   UNL     1      29.629  23.528  23.550  0.00  0.00    +0.000 A 
ATOM     12  C   UNL     1      28.897  23.089  24.641  0.00  0.00    +0.000 A 
ENDROOT
BRANCH   1  15
ATOM     13  C   UNL     1      31.195  22.867  28.751  0.00  0.00    +0.000 C 
ATOM     14  O   UNL     1      31.454  24.061  28.558  0.00  0.00    +0.000 OA
ATOM     15  N   UNL     1      30.751  22.063  27.673  0.00  0.00    +0.000 NA
BRANCH  13  19
ATOM     16  C   UNL     1      30.490  21.335  33.532  0.00  0.00    +0.000 C 
ATOM     17  C   UNL     1      31.038  21.664  32.183  0.00  0.00    +0.000 A 
ATOM     18  C   UNL     1      30.419  22.238  31.106  0.00  0.00    +0.000 A 
ATOM     19  C   UNL     1      31.358  22.327  30.103  0.00  0.00    +0.000 A 
ATOM     20  C   UNL     1      32.527  21.793  30.629  0.00  0.00    +0.000 A 
ATOM     21  C   UNL     1      33.805  21.703  29.847  0.00  0.00    +0.000 C 
ATOM     22  O   UNL     1      32.280  21.424  31.841  0.00  0.00    +0.000 OA
ENDBRANCH  13  19
ENDBRANCH   1  15
TORSDOF 2
ENDMDL
MODEL 5
REMARK VINA RESULT:      -6.8      3.872      7.969
REMARK  Name = 
REMARK  2 active torsions:
REMARK  status: ('A' for Active; 'I' for Inactive)
REMARK    1  A    between atoms: C_4  and  C_5
REMARK    2  A    between atoms: N_7  and  N_8
REMARK                            x       y       z     vdW  Elec       q    Type
REMARK                         _______ _______ _______ _____ _____    ______ ____
ROOT
ATOM      1  N   UNL     1      20.059  10.110  37.226  0.00  0.00    +0.000 NA
ATOM      2  C   UNL     1      21.066  10.873  37.555  0.00  0.00    +0.000 C 
ATOM      3  C   UNL     1      21.035  12.186  38.173  0.00  0.00    +0.000 C 
ATOM      4  O   UNL     1      20.005  12.827  38.504  0.00  0.00    +0.000 OA
ATOM      5  N   UNL     1      22.379  12.603  38.329  0.00  0.00    +0.000 NA
ATOM      6  C   UNL     1      23.268  11.590  37.828  0.00  0.00    +0.000 A 
ATOM      7  C   UNL     1      24.649  11.553  37.771  0.00  0.00    +0.000 A 
ATOM      8  C   UNL     1      25.423  12.698  38.286  0.00  0.00    +0.000 C 
ATOM      9  C   UNL     1      25.233  10.424  37.224  0.00  0.00    +0.000 A 
ATOM     10  C   UNL     1      24.480   9.372  36.752  0.00  0.00    +0.000 A 
ATOM     11  C   UNL     1      23.095   9.433  36.820  0.00  0.00    +0.000 A 
ATOM     12  C   UNL     1      22.489  10.554  37.364  0.00  0.00    +0.000 A 
ENDROOT
BRANCH   1  15
ATOM     13  C   UNL     1      17.596  10.163  36.916  0.00  0.00    +0.000 C 
ATOM     14  O   UNL     1      17.640   9.237  36.096  0.00  0.00    +0.000 OA
ATOM     15  N   UNL     1      18.794  10.632  37.508  0.00  0.00    +0.000 NA
BRANCH  13  19
ATOM     16  C   UNL     1      13.137  12.571  36.801  0.00  0.00    +0.000 C 
ATOM     17  C   UNL     1      14.354  11.794  37.181  0.00  0.00    +0.000 A 
ATOM     18  C   UNL     1      15.451  11.470  36.431  0.00  0.00    +0.000 A 
ATOM     19  C   UNL     1      16.292  10.742  37.244  0.00  0.00    +0.000 A 
ATOM     20  C   UNL     1      15.652  10.658  38.474  0.00  0.00    +0.000 A 
ATOM     21  C   UNL     1      16.243   9.938  39.651  0.00  0.00    +0.000 C 
ATOM     22  O   UNL     1      14.530  11.287  38.377  0.00  0.00    +0.000 OA
ENDBRANCH  13  19
ENDBRANCH   1  15
TORSDOF 2
ENDMDL
MODEL 6
REMARK VINA RESULT:      -6.8     21.884     23.618
REMARK  Name = 
REMARK  2 active torsions:
REMARK  status: ('A' for Active; 'I' for Inactive)
REMARK    1  A    between atoms: C_4  and  C_5
REMARK    2  A    between atoms: N_7  and  N_8
REMARK                            x       y       z     vdW  Elec       q    Type
REMARK                         _______ _______ _______ _____ _____    ______ ____
ROOT
ATOM      1  N   UNL     1      22.284  -6.581  25.009  0.00  0.00    +0.000 NA
ATOM      2  C   UNL     1      21.400  -7.341  25.596  0.00  0.00    +0.000 C 
ATOM      3  C   UNL     1      21.493  -8.758  25.902  0.00  0.00    +0.000 C 
ATOM      4  O   UNL     1      22.467  -9.510  25.645  0.00  0.00    +0.000 OA
ATOM      5  N   UNL     1      20.284  -9.125  26.540  0.00  0.00    +0.000 NA
ATOM      6  C   UNL     1      19.421  -7.980  26.651  0.00  0.00    +0.000 A 
ATOM      7  C   UNL     1      18.156  -7.856  27.195  0.00  0.00    +0.000 A 
ATOM      8  C   UNL     1      17.504  -9.043  27.781  0.00  0.00    +0.000 C 
ATOM      9  C   UNL     1      17.566  -6.606  27.156  0.00  0.00    +0.000 A 
ATOM     10  C   UNL     1      18.203  -5.518  26.600  0.00  0.00    +0.000 A 
ATOM     11  C   UNL     1      19.474  -5.668  26.060  0.00  0.00    +0.000 A 
ATOM     12  C   UNL     1      20.083  -6.912  26.089  0.00  0.00    +0.000 A 
ENDROOT
BRANCH   1  15
ATOM     13  C   UNL     1      23.819  -7.497  23.286  0.00  0.00    +0.000 C 
ATOM     14  O   UNL     1      23.054  -7.164  22.372  0.00  0.00    +0.000 OA
ATOM     15  N   UNL     1      23.468  -7.220  24.630  0.00  0.00    +0.000 NA
BRANCH  13  19
ATOM     16  C   UNL     1      28.664  -8.631  22.317  0.00  0.00    +0.000 C 
ATOM     17  C   UNL     1      27.184  -8.650  22.517  0.00  0.00    +0.000 A 
ATOM     18  C   UNL     1      26.344  -7.640  22.897  0.00  0.00    +0.000 A 
ATOM     19  C   UNL     1      25.072  -8.169  22.937  0.00  0.00    +0.000 A 
ATOM     20  C   UNL     1      25.205  -9.502  22.571  0.00  0.00    +0.000 A 
ATOM     21  C   UNL     1      24.039 -10.443  22.488  0.00  0.00    +0.000 C 
ATOM     22  O   UNL     1      26.455  -9.723  22.339  0.00  0.00    +0.000 OA
ENDBRANCH  13  19
ENDBRANCH   1  15
TORSDOF 2
ENDMDL
MODEL 7
REMARK VINA RESULT:      -6.4     21.405     22.662
REMARK  Name = 
REMARK  2 active torsions:
REMARK  status: ('A' for Active; 'I' for Inactive)
REMARK    1  A    between atoms: C_4  and  C_5
REMARK    2  A    between atoms: N_7  and  N_8
REMARK                            x       y       z     vdW  Elec       q    Type
REMARK                         _______ _______ _______ _____ _____    ______ ____
ROOT
ATOM      1  N   UNL     1      15.245  -7.967  26.148  0.00  0.00    +0.000 NA
ATOM      2  C   UNL     1      14.478  -8.610  25.310  0.00  0.00    +0.000 C 
ATOM      3  C   UNL     1      14.810  -9.112  23.988  0.00  0.00    +0.000 C 
ATOM      4  O   UNL     1      15.922  -9.007  23.413  0.00  0.00    +0.000 OA
ATOM      5  N   UNL     1      13.647  -9.736  23.477  0.00  0.00    +0.000 NA
ATOM      6  C   UNL     1      12.580  -9.647  24.438  0.00  0.00    +0.000 A 
ATOM      7  C   UNL     1      11.277 -10.108  24.381  0.00  0.00    +0.000 A 
ATOM      8  C   UNL     1      10.817 -10.819  23.174  0.00  0.00    +0.000 C 
ATOM      9  C   UNL     1      10.470  -9.869  25.479  0.00  0.00    +0.000 A 
ATOM     10  C   UNL     1      10.933  -9.201  26.591  0.00  0.00    +0.000 A 
ATOM     11  C   UNL     1      12.245  -8.748  26.623  0.00  0.00    +0.000 A 
ATOM     12  C   UNL     1      13.071  -8.976  25.535  0.00  0.00    +0.000 A 
ENDROOT
BRANCH   1  15
ATOM     13  C   UNL     1      17.662  -7.588  26.574  0.00  0.00    +0.000 C 
ATOM     14  O   UNL     1      17.498  -7.664  27.798  0.00  0.00    +0.000 OA
ATOM     15  N   UNL     1      16.552  -7.736  25.707  0.00  0.00    +0.000 NA
BRANCH  13  19
ATOM     16  C   UNL     1      22.332  -8.068  24.661  0.00  0.00    +0.000 C 
ATOM     17  C   UNL     1      21.045  -7.571  25.232  0.00  0.00    +0.000 A 
ATOM     18  C   UNL     1      19.925  -8.268  25.594  0.00  0.00    +0.000 A 
ATOM     19  C   UNL     1      19.014  -7.348  26.065  0.00  0.00    +0.000 A 
ATOM     20  C   UNL     1      19.637  -6.112  25.965  0.00  0.00    +0.000 A 
ATOM     21  C   UNL     1      18.974  -4.831  26.380  0.00  0.00    +0.000 C 
ATOM     22  O   UNL     1      20.815  -6.303  25.474  0.00  0.00    +0.000 OA
ENDBRANCH  13  19
ENDBRANCH   1  15
TORSDOF 2
ENDMDL
MODEL 8
REMARK VINA RESULT:      -6.4     22.351     24.391
REMARK  Name = 
REMARK  2 active torsions:
REMARK  status: ('A' for Active; 'I' for Inactive)
REMARK    1  A    between atoms: C_4  and  C_5
REMARK    2  A    between atoms: N_7  and  N_8
REMARK                            x       y       z     vdW  Elec       q    Type
REMARK                         _______ _______ _______ _____ _____    ______ ____
ROOT
ATOM      1  N   UNL     1      23.915  -9.190  24.588  0.00  0.00    +0.000 NA
ATOM      2  C   UNL     1      24.822  -8.486  23.965  0.00  0.00    +0.000 C 
ATOM      3  C   UNL     1      24.930  -7.042  23.868  0.00  0.00    +0.000 C 
ATOM      4  O   UNL     1      24.147  -6.202  24.381  0.00  0.00    +0.000 OA
ATOM      5  N   UNL     1      26.078  -6.763  23.089  0.00  0.00    +0.000 NA
ATOM      6  C   UNL     1      26.708  -7.992  22.686  0.00  0.00    +0.000 A 
ATOM      7  C   UNL     1      27.841  -8.216  21.926  0.00  0.00    +0.000 A 
ATOM      8  C   UNL     1      28.594  -7.063  21.398  0.00  0.00    +0.000 C 
ATOM      9  C   UNL     1      28.207  -9.531  21.701  0.00  0.00    +0.000 A 
ATOM     10  C   UNL     1      27.480 -10.585  22.209  0.00  0.00    +0.000 A 
ATOM     11  C   UNL     1      26.345 -10.335  22.970  0.00  0.00    +0.000 A 
ATOM     12  C   UNL     1      25.961  -9.025  23.206  0.00  0.00    +0.000 A 
ENDROOT
BRANCH   1  15
ATOM     13  C   UNL     1      21.571  -8.411  24.837  0.00  0.00    +0.000 C 
ATOM     14  O   UNL     1      21.208  -9.064  23.850  0.00  0.00    +0.000 OA
ATOM     15  N   UNL     1      22.927  -8.448  25.243  0.00  0.00    +0.000 NA
BRANCH  13  19
ATOM     16  C   UNL     1      18.654  -4.682  26.648  0.00  0.00    +0.000 C 
ATOM     17  C   UNL     1      19.307  -5.987  26.337  0.00  0.00    +0.000 A 
ATOM     18  C   UNL     1      20.342  -6.263  25.485  0.00  0.00    +0.000 A 
ATOM     19  C   UNL     1      20.570  -7.620  25.556  0.00  0.00    +0.000 A 
ATOM     20  C   UNL     1      19.645  -8.112  26.467  0.00  0.00    +0.000 A 
ATOM     21  C   UNL     1      19.559  -9.566  26.833  0.00  0.00    +0.000 C 
ATOM     22  O   UNL     1      18.938  -7.118  26.887  0.00  0.00    +0.000 OA
ENDBRANCH  13  19
ENDBRANCH   1  15
TORSDOF 2
ENDMDL
MODEL 9
REMARK VINA RESULT:      -6.4     17.558     19.559
REMARK  Name = 
REMARK  2 active torsions:
REMARK  status: ('A' for Active; 'I' for Inactive)
REMARK    1  A    between atoms: C_4  and  C_5
REMARK    2  A    between atoms: N_7  and  N_8
REMARK                            x       y       z     vdW  Elec       q    Type
REMARK                         _______ _______ _______ _____ _____    ______ ____
ROOT
ATOM      1  N   UNL     1      25.753  24.262  25.784  0.00  0.00    +0.000 NA
ATOM      2  C   UNL     1      26.775  23.744  26.410  0.00  0.00    +0.000 C 
ATOM      3  C   UNL     1      26.914  23.464  27.828  0.00  0.00    +0.000 C 
ATOM      4  O   UNL     1      26.051  23.681  28.716  0.00  0.00    +0.000 OA
ATOM      5  N   UNL     1      28.201  22.906  28.017  0.00  0.00    +0.000 NA
ATOM      6  C   UNL     1      28.888  22.820  26.756  0.00  0.00    +0.000 A 
ATOM      7  C   UNL     1      30.151  22.349  26.450  0.00  0.00    +0.000 A 
ATOM      8  C   UNL     1      31.008  21.828  27.531  0.00  0.00    +0.000 C 
ATOM      9  C   UNL     1      30.544  22.395  25.124  0.00  0.00    +0.000 A 
ATOM     10  C   UNL     1      29.718  22.889  24.138  0.00  0.00    +0.000 A 
ATOM     11  C   UNL     1      28.454  23.357  24.471  0.00  0.00    +0.000 A 
ATOM     12  C   UNL     1      28.041  23.320  25.793  0.00  0.00    +0.000 A 
ENDROOT
BRANCH   1  15
ATOM     13  C   UNL     1      24.040  25.860  26.608  0.00  0.00    +0.000 C 
ATOM     14  O   UNL     1      24.472  26.760  25.877  0.00  0.00    +0.000 OA
ATOM     15  N   UNL     1      24.658  24.586  26.590  0.00  0.00    +0.000 NA
BRANCH  13  19
ATOM     16  C   UNL     1      19.393  26.610  28.489  0.00  0.00    +0.000 C 
ATOM     17  C   UNL     1      20.865  26.475  28.276  0.00  0.00    +0.000 A 
ATOM     18  C   UNL     1      21.554  26.135  27.144  0.00  0.00    +0.000 A 
ATOM     19  C   UNL     1      22.893  26.152  27.469  0.00  0.00    +0.000 A 
ATOM     20  C   UNL     1      22.953  26.510  28.809  0.00  0.00    +0.000 A 
ATOM     21  C   UNL     1      24.247  26.644  29.559  0.00  0.00    +0.000 C 
ATOM     22  O   UNL     1      21.744  26.684  29.225  0.00  0.00    +0.000 OA
ENDBRANCH  13  19
ENDBRANCH   1  15
TORSDOF 2
ENDMDL
MODEL 10
REMARK VINA RESULT:      -6.4     18.060     19.805
REMARK  Name = 
REMARK  2 active torsions:
REMARK  status: ('A' for Active; 'I' for Inactive)
REMARK    1  A    between atoms: C_4  and  C_5
REMARK    2  A    between atoms: N_7  and  N_8
REMARK                            x       y       z     vdW  Elec       q    Type
REMARK                         _______ _______ _______ _____ _____    ______ ____
ROOT
ATOM      1  N   UNL     1      24.594  25.360  25.491  0.00  0.00    +0.000 NA
ATOM      2  C   UNL     1      24.465  25.735  26.735  0.00  0.00    +0.000 C 
ATOM      3  C   UNL     1      25.506  25.925  27.730  0.00  0.00    +0.000 C 
ATOM      4  O   UNL     1      26.739  25.754  27.556  0.00  0.00    +0.000 OA
ATOM      5  N   UNL     1      24.868  26.336  28.925  0.00  0.00    +0.000 NA
ATOM      6  C   UNL     1      23.446  26.415  28.720  0.00  0.00    +0.000 A 
ATOM      7  C   UNL     1      22.430  26.768  29.589  0.00  0.00    +0.000 A 
ATOM      8  C   UNL     1      22.765  27.139  30.976  0.00  0.00    +0.000 C 
ATOM      9  C   UNL     1      21.138  26.750  29.096  0.00  0.00    +0.000 A 
ATOM     10  C   UNL     1      20.860  26.397  27.794  0.00  0.00    +0.000 A 
ATOM     11  C   UNL     1      21.898  26.046  26.941  0.00  0.00    +0.000 A 
ATOM     12  C   UNL     1      23.200  26.057  27.413  0.00  0.00    +0.000 A 
ENDROOT
BRANCH   1  15
ATOM     13  C   UNL     1      26.407  23.818  24.784  0.00  0.00    +0.000 C 
ATOM     14  O   UNL     1      25.668  22.833  24.899  0.00  0.00    +0.000 OA
ATOM     15  N   UNL     1      25.904  25.110  25.073  0.00  0.00    +0.000 NA
BRANCH  13  19
ATOM     16  C   UNL     1      31.382  22.870  24.559  0.00  0.00    +0.000 C 
ATOM     17  C   UNL     1      29.954  23.192  24.263  0.00  0.00    +0.000 A 
ATOM     18  C   UNL     1      28.888  23.285  25.114  0.00  0.00    +0.000 A 
ATOM     19  C   UNL     1      27.789  23.607  24.347  0.00  0.00    +0.000 A 
ATOM     20  C   UNL     1      28.251  23.697  23.042  0.00  0.00    +0.000 A 
ATOM     21  C   UNL     1      27.358  24.033  21.883  0.00  0.00    +0.000 C 
ATOM     22  O   UNL     1      29.517  23.445  23.054  0.00  0.00    +0.000 OA
ENDBRANCH  13  19
ENDBRANCH   1  15
TORSDOF 2
ENDMDL
