MODEL 1
REMARK VINA RESULT:      -5.8      0.000      0.000
REMARK  Name = 
REMARK  3 active torsions:
REMARK  status: ('A' for Active; 'I' for Inactive)
REMARK    1  A    between atoms: O_2  and  C_3
REMARK    2  A    between atoms: C_3  and  C_5
REMARK    3  A    between atoms: C_16  and  C_17
REMARK                            x       y       z     vdW  Elec       q    Type
REMARK                         _______ _______ _______ _____ _____    ______ ____
ROOT
ATOM      1  C   UNL     1      26.328  23.813  25.125  0.00  0.00    +0.000 C 
ATOM      2  C   UNL     1      25.499  24.654  25.676  0.00  0.00    +0.000 C 
ATOM      3  N   UNL     1      24.629  25.428  24.812  0.00  0.00    +0.000 NA
ATOM      4  O   UNL     1      25.424  24.830  27.059  0.00  0.00    +0.000 OA
ATOM      5  C   UNL     1      26.265  24.074  27.820  0.00  0.00    +0.000 C 
ATOM      6  C   UNL     1      27.130  23.203  27.370  0.00  0.00    +0.000 C 
ATOM      7  C   UNL     1      27.970  22.462  28.318  0.00  0.00    +0.000 C 
ATOM      8  O   UNL     1      29.159  22.345  28.030  0.00  0.00    +0.000 OA
ATOM      9  C   UNL     1      27.316  21.938  29.501  0.00  0.00    +0.000 C 
ATOM     10  C   UNL     1      26.279  22.885  30.001  0.00  0.00    +0.000 C 
ATOM     11  C   UNL     1      26.251  24.203  29.331  0.00  0.00    +0.000 C 
ATOM     12  C   UNL     1      27.313  22.923  25.861  0.00  0.00    +0.000 C 
ENDROOT
BRANCH  12  13
ATOM     13  C   UNL     1      28.660  23.598  25.566  0.00  0.00    +0.000 A 
ATOM     14  C   UNL     1      29.228  24.753  25.756  0.00  0.00    +0.000 A 
ATOM     15  C   UNL     1      30.476  24.948  25.327  0.00  0.00    +0.000 A 
ATOM     16  C   UNL     1      31.093  23.896  24.702  0.00  0.00    +0.000 A 
ATOM     17  S   UNL     1      29.838  22.699  24.773  0.00  0.00    +0.000 S 
ENDBRANCH  12  13
BRANCH   1  18
ATOM     18  C   UNL     1      26.295  23.732  23.647  0.00  0.00    +0.000 C 
ATOM     19  O   UNL     1      25.670  22.838  23.028  0.00  0.00    +0.000 OA
BRANCH  18  21
ATOM     20  C   UNL     1      27.956  24.234  21.909  0.00  0.00    +0.000 C 
ATOM     21  O   UNL     1      26.941  24.620  22.820  0.00  0.00    +0.000 OA
ENDBRANCH  18  21
ENDBRANCH   1  18
TORSDOF 3
ENDMDL
MODEL 2
REMARK VINA RESULT:      -5.4      2.804      5.590
REMARK  Name = 
REMARK  3 active torsions:
REMARK  status: ('A' for Active; 'I' for Inactive)
REMARK    1  A    between atoms: O_2  and  C_3
REMARK    2  A    between atoms: C_3  and  C_5
REMARK    3  A    between atoms: C_16  and  C_17
REMARK                            x       y       z     vdW  Elec       q    Type
REMARK                         _______ _______ _______ _____ _____    ______ ____
ROOT
ATOM      1  C   UNL     1      27.801  22.764  28.821  0.00  0.00    +0.000 C 
ATOM      2  C   UNL     1      29.015  22.752  29.297  0.00  0.00    +0.000 C 
ATOM      3  N   UNL     1      29.194  22.523  30.716  0.00  0.00    +0.000 NA
ATOM      4  O   UNL     1      30.135  22.951  28.487  0.00  0.00    +0.000 OA
ATOM      5  C   UNL     1      29.905  23.160  27.160  0.00  0.00    +0.000 C 
ATOM      6  C   UNL     1      28.732  23.190  26.583  0.00  0.00    +0.000 C 
ATOM      7  C   UNL     1      28.644  23.427  25.137  0.00  0.00    +0.000 C 
ATOM      8  O   UNL     1      27.777  24.211  24.757  0.00  0.00    +0.000 OA
ATOM      9  C   UNL     1      29.586  22.713  24.298  0.00  0.00    +0.000 C 
ATOM     10  C   UNL     1      30.918  22.609  24.961  0.00  0.00    +0.000 C 
ATOM     11  C   UNL     1      31.065  23.386  26.210  0.00  0.00    +0.000 C 
ATOM     12  C   UNL     1      27.417  22.992  27.370  0.00  0.00    +0.000 C 
ENDROOT
BRANCH  12  13
ATOM     13  C   UNL     1      26.835  24.412  27.395  0.00  0.00    +0.000 A 
ATOM     14  C   UNL     1      27.233  25.618  27.680  0.00  0.00    +0.000 A 
ATOM     15  C   UNL     1      26.376  26.634  27.568  0.00  0.00    +0.000 A 
ATOM     16  C   UNL     1      25.106  26.336  27.149  0.00  0.00    +0.000 A 
ATOM     17  S   UNL     1      25.228  24.617  26.946  0.00  0.00    +0.000 S 
ENDBRANCH  12  13
BRANCH   1  18
ATOM     18  C   UNL     1      26.711  22.539  29.797  0.00  0.00    +0.000 C 
ATOM     19  O   UNL     1      26.429  21.405  30.251  0.00  0.00    +0.000 OA
BRANCH  18  21
ATOM     20  C   UNL     1      26.403  24.593  31.105  0.00  0.00    +0.000 C 
ATOM     21  O   UNL     1      25.912  23.541  30.294  0.00  0.00    +0.000 OA
ENDBRANCH  18  21
ENDBRANCH   1  18
TORSDOF 3
ENDMDL
MODEL 3
REMARK VINA RESULT:      -5.4      3.235      4.774
REMARK  Name = 
REMARK  3 active torsions:
REMARK  status: ('A' for Active; 'I' for Inactive)
REMARK    1  A    between atoms: O_2  and  C_3
REMARK    2  A    between atoms: C_3  and  C_5
REMARK    3  A    between atoms: C_16  and  C_17
REMARK                            x       y       z     vdW  Elec       q    Type
REMARK                         _______ _______ _______ _____ _____    ______ ____
ROOT
ATOM      1  C   UNL     1      28.990  25.648  22.918  0.00  0.00    +0.000 C 
ATOM      2  C   UNL     1      29.487  24.585  22.352  0.00  0.00    +0.000 C 
ATOM      3  N   UNL     1      29.567  24.551  20.905  0.00  0.00    +0.000 NA
ATOM      4  O   UNL     1      29.942  23.490  23.090  0.00  0.00    +0.000 OA
ATOM      5  C   UNL     1      29.843  23.580  24.446  0.00  0.00    +0.000 C 
ATOM      6  C   UNL     1      29.363  24.598  25.112  0.00  0.00    +0.000 C 
ATOM      7  C   UNL     1      29.323  24.548  26.578  0.00  0.00    +0.000 C 
ATOM      8  O   UNL     1      28.293  24.948  27.117  0.00  0.00    +0.000 OA
ATOM      9  C   UNL     1      30.500  24.033  27.249  0.00  0.00    +0.000 C 
ATOM     10  C   UNL     1      31.106  22.910  26.477  0.00  0.00    +0.000 C 
ATOM     11  C   UNL     1      30.312  22.436  25.323  0.00  0.00    +0.000 C 
ATOM     12  C   UNL     1      28.823  25.865  24.412  0.00  0.00    +0.000 C 
ENDROOT
BRANCH  12  13
ATOM     13  C   UNL     1      27.307  25.722  24.604  0.00  0.00    +0.000 A 
ATOM     14  C   UNL     1      26.394  24.805  24.468  0.00  0.00    +0.000 A 
ATOM     15  C   UNL     1      25.125  25.096  24.754  0.00  0.00    +0.000 A 
ATOM     16  C   UNL     1      24.858  26.370  25.184  0.00  0.00    +0.000 A 
ATOM     17  S   UNL     1      26.449  27.062  25.147  0.00  0.00    +0.000 S 
ENDBRANCH  12  13
BRANCH   1  18
ATOM     18  C   UNL     1      28.549  26.731  22.010  0.00  0.00    +0.000 C 
ATOM     19  O   UNL     1      29.237  27.757  21.791  0.00  0.00    +0.000 OA
BRANCH  18  21
ATOM     20  C   UNL     1      26.799  27.866  20.715  0.00  0.00    +0.000 C 
ATOM     21  O   UNL     1      27.357  26.716  21.326  0.00  0.00    +0.000 OA
ENDBRANCH  18  21
ENDBRANCH   1  18
TORSDOF 3
ENDMDL
MODEL 4
REMARK VINA RESULT:      -5.3      2.536      3.538
REMARK  Name = 
REMARK  3 active torsions:
REMARK  status: ('A' for Active; 'I' for Inactive)
REMARK    1  A    between atoms: O_2  and  C_3
REMARK    2  A    between atoms: C_3  and  C_5
REMARK    3  A    between atoms: C_16  and  C_17
REMARK                            x       y       z     vdW  Elec       q    Type
REMARK                         _______ _______ _______ _____ _____    ______ ____
ROOT
ATOM      1  C   UNL     1      28.478  24.391  22.896  0.00  0.00    +0.000 C 
ATOM      2  C   UNL     1      27.372  23.700  22.918  0.00  0.00    +0.000 C 
ATOM      3  N   UNL     1      26.629  23.554  21.683  0.00  0.00    +0.000 NA
ATOM      4  O   UNL     1      26.889  23.103  24.085  0.00  0.00    +0.000 OA
ATOM      5  C   UNL     1      27.632  23.274  25.215  0.00  0.00    +0.000 C 
ATOM      6  C   UNL     1      28.752  23.944  25.301  0.00  0.00    +0.000 C 
ATOM      7  C   UNL     1      29.440  24.039  26.593  0.00  0.00    +0.000 C 
ATOM      8  O   UNL     1      29.880  25.143  26.906  0.00  0.00    +0.000 OA
ATOM      9  C   UNL     1      29.534  22.822  27.376  0.00  0.00    +0.000 C 
ATOM     10  C   UNL     1      28.292  22.006  27.246  0.00  0.00    +0.000 C 
ATOM     11  C   UNL     1      27.179  22.660  26.526  0.00  0.00    +0.000 C 
ATOM     12  C   UNL     1      29.385  24.656  24.084  0.00  0.00    +0.000 C 
ENDROOT
BRANCH  12  13
ATOM     13  C   UNL     1      29.111  26.134  24.393  0.00  0.00    +0.000 A 
ATOM     14  C   UNL     1      28.092  26.895  24.667  0.00  0.00    +0.000 A 
ATOM     15  C   UNL     1      28.284  28.197  24.882  0.00  0.00    +0.000 A 
ATOM     16  C   UNL     1      29.572  28.659  24.801  0.00  0.00    +0.000 A 
ATOM     17  S   UNL     1      30.417  27.192  24.420  0.00  0.00    +0.000 S 
ENDBRANCH  12  13
BRANCH   1  18
ATOM     18  C   UNL     1      28.867  24.965  21.588  0.00  0.00    +0.000 C 
ATOM     19  O   UNL     1      29.701  24.419  20.827  0.00  0.00    +0.000 OA
BRANCH  18  21
ATOM     20  C   UNL     1      29.157  27.272  20.800  0.00  0.00    +0.000 C 
ATOM     21  O   UNL     1      28.357  26.139  21.088  0.00  0.00    +0.000 OA
ENDBRANCH  18  21
ENDBRANCH   1  18
TORSDOF 3
ENDMDL
MODEL 5
REMARK VINA RESULT:      -5.3      2.324      5.178
REMARK  Name = 
REMARK  3 active torsions:
REMARK  status: ('A' for Active; 'I' for Inactive)
REMARK    1  A    between atoms: O_2  and  C_3
REMARK    2  A    between atoms: C_3  and  C_5
REMARK    3  A    between atoms: C_16  and  C_17
REMARK                            x       y       z     vdW  Elec       q    Type
REMARK                         _______ _______ _______ _____ _____    ______ ____
ROOT
ATOM      1  C   UNL     1      27.079  24.195  24.232  0.00  0.00    +0.000 C 
ATOM      2  C   UNL     1      26.638  23.962  23.028  0.00  0.00    +0.000 C 
ATOM      3  N   UNL     1      25.624  22.942  22.852  0.00  0.00    +0.000 NA
ATOM      4  O   UNL     1      27.109  24.661  21.914  0.00  0.00    +0.000 OA
ATOM      5  C   UNL     1      28.061  25.609  22.141  0.00  0.00    +0.000 C 
ATOM      6  C   UNL     1      28.568  25.921  23.305  0.00  0.00    +0.000 C 
ATOM      7  C   UNL     1      29.590  26.970  23.391  0.00  0.00    +0.000 C 
ATOM      8  O   UNL     1      30.559  26.740  24.112  0.00  0.00    +0.000 OA
ATOM      9  C   UNL     1      29.359  28.174  22.618  0.00  0.00    +0.000 C 
ATOM     10  C   UNL     1      28.722  27.853  21.308  0.00  0.00    +0.000 C 
ATOM     11  C   UNL     1      28.628  26.413  20.987  0.00  0.00    +0.000 C 
ATOM     12  C   UNL     1      28.136  25.216  24.612  0.00  0.00    +0.000 C 
ENDROOT
BRANCH  12  13
ATOM     13  C   UNL     1      29.355  24.337  24.925  0.00  0.00    +0.000 A 
ATOM     14  C   UNL     1      30.124  23.489  24.307  0.00  0.00    +0.000 A 
ATOM     15  C   UNL     1      31.127  22.911  24.969  0.00  0.00    +0.000 A 
ATOM     16  C   UNL     1      31.288  23.256  26.285  0.00  0.00    +0.000 A 
ATOM     17  S   UNL     1      29.986  24.387  26.482  0.00  0.00    +0.000 S 
ENDBRANCH  12  13
BRANCH   1  18
ATOM     18  C   UNL     1      26.488  23.377  25.317  0.00  0.00    +0.000 C 
ATOM     19  O   UNL     1      26.944  22.258  25.650  0.00  0.00    +0.000 OA
BRANCH  18  21
ATOM     20  C   UNL     1      25.493  24.313  27.357  0.00  0.00    +0.000 C 
ATOM     21  O   UNL     1      25.394  23.764  26.054  0.00  0.00    +0.000 OA
ENDBRANCH  18  21
ENDBRANCH   1  18
TORSDOF 3
ENDMDL
MODEL 6
REMARK VINA RESULT:      -5.2     31.879     33.287
REMARK  Name = 
REMARK  3 active torsions:
REMARK  status: ('A' for Active; 'I' for Inactive)
REMARK    1  A    between atoms: O_2  and  C_3
REMARK    2  A    between atoms: C_3  and  C_5
REMARK    3  A    between atoms: C_16  and  C_17
REMARK                            x       y       z     vdW  Elec       q    Type
REMARK                         _______ _______ _______ _____ _____    ______ ____
ROOT
ATOM      1  C   UNL     1      19.414  -7.784  26.566  0.00  0.00    +0.000 C 
ATOM      2  C   UNL     1      19.296  -6.538  26.201  0.00  0.00    +0.000 C 
ATOM      3  N   UNL     1      18.181  -5.773  26.721  0.00  0.00    +0.000 NA
ATOM      4  O   UNL     1      20.204  -5.926  25.334  0.00  0.00    +0.000 OA
ATOM      5  C   UNL     1      21.233  -6.695  24.879  0.00  0.00    +0.000 C 
ATOM      6  C   UNL     1      21.443  -7.950  25.183  0.00  0.00    +0.000 C 
ATOM      7  C   UNL     1      22.600  -8.648  24.612  0.00  0.00    +0.000 C 
ATOM      8  O   UNL     1      22.407  -9.787  24.191  0.00  0.00    +0.000 OA
ATOM      9  C   UNL     1      23.858  -7.929  24.600  0.00  0.00    +0.000 C 
ATOM     10  C   UNL     1      23.643  -6.480  24.317  0.00  0.00    +0.000 C 
ATOM     11  C   UNL     1      22.263  -6.110  23.933  0.00  0.00    +0.000 C 
ATOM     12  C   UNL     1      20.507  -8.741  26.125  0.00  0.00    +0.000 C 
ENDROOT
BRANCH  12  13
ATOM     13  C   UNL     1      19.770  -9.667  25.148  0.00  0.00    +0.000 A 
ATOM     14  C   UNL     1      19.119  -9.572  24.025  0.00  0.00    +0.000 A 
ATOM     15  C   UNL     1      18.603 -10.670  23.472  0.00  0.00    +0.000 A 
ATOM     16  C   UNL     1      18.797 -11.854  24.135  0.00  0.00    +0.000 A 
ATOM     17  S   UNL     1      19.706 -11.308  25.508  0.00  0.00    +0.000 S 
ENDBRANCH  12  13
BRANCH   1  18
ATOM     18  C   UNL     1      18.377  -8.298  27.490  0.00  0.00    +0.000 C 
ATOM     19  O   UNL     1      18.597  -8.514  28.705  0.00  0.00    +0.000 OA
BRANCH  18  21
ATOM     20  C   UNL     1      16.540  -9.890  27.149  0.00  0.00    +0.000 C 
ATOM     21  O   UNL     1      17.088  -8.584  27.107  0.00  0.00    +0.000 OA
ENDBRANCH  18  21
ENDBRANCH   1  18
TORSDOF 3
ENDMDL
MODEL 7
REMARK VINA RESULT:      -5.1      2.114      4.641
REMARK  Name = 
REMARK  3 active torsions:
REMARK  status: ('A' for Active; 'I' for Inactive)
REMARK    1  A    between atoms: O_2  and  C_3
REMARK    2  A    between atoms: C_3  and  C_5
REMARK    3  A    between atoms: C_16  and  C_17
REMARK                            x       y       z     vdW  Elec       q    Type
REMARK                         _______ _______ _______ _____ _____    ______ ____
ROOT
ATOM      1  C   UNL     1      28.075  24.255  24.494  0.00  0.00    +0.000 C 
ATOM      2  C   UNL     1      28.604  23.640  23.474  0.00  0.00    +0.000 C 
ATOM      3  N   UNL     1      27.739  23.261  22.375  0.00  0.00    +0.000 NA
ATOM      4  O   UNL     1      29.966  23.339  23.410  0.00  0.00    +0.000 OA
ATOM      5  C   UNL     1      30.730  23.721  24.472  0.00  0.00    +0.000 C 
ATOM      6  C   UNL     1      30.301  24.343  25.539  0.00  0.00    +0.000 C 
ATOM      7  C   UNL     1      31.248  24.691  26.604  0.00  0.00    +0.000 C 
ATOM      8  O   UNL     1      30.884  24.482  27.759  0.00  0.00    +0.000 OA
ATOM      9  C   UNL     1      32.522  25.247  26.191  0.00  0.00    +0.000 C 
ATOM     10  C   UNL     1      33.006  24.599  24.938  0.00  0.00    +0.000 C 
ATOM     11  C   UNL     1      32.219  23.432  24.485  0.00  0.00    +0.000 C 
ATOM     12  C   UNL     1      28.815  24.724  25.733  0.00  0.00    +0.000 C 
ENDROOT
BRANCH  12  13
ATOM     13  C   UNL     1      28.357  23.720  26.799  0.00  0.00    +0.000 A 
ATOM     14  C   UNL     1      28.437  22.440  27.023  0.00  0.00    +0.000 A 
ATOM     15  C   UNL     1      27.877  21.932  28.122  0.00  0.00    +0.000 A 
ATOM     16  C   UNL     1      27.243  22.809  28.963  0.00  0.00    +0.000 A 
ATOM     17  S   UNL     1      27.492  24.303  28.117  0.00  0.00    +0.000 S 
ENDBRANCH  12  13
BRANCH   1  18
ATOM     18  C   UNL     1      26.617  24.508  24.423  0.00  0.00    +0.000 C 
ATOM     19  O   UNL     1      25.762  23.618  24.638  0.00  0.00    +0.000 OA
BRANCH  18  21
ATOM     20  C   UNL     1      25.144  26.397  24.960  0.00  0.00    +0.000 C 
ATOM     21  O   UNL     1      26.069  25.732  24.118  0.00  0.00    +0.000 OA
ENDBRANCH  18  21
ENDBRANCH   1  18
TORSDOF 3
ENDMDL
MODEL 8
REMARK VINA RESULT:      -5.1      3.640      6.320
REMARK  Name = 
REMARK  3 active torsions:
REMARK  status: ('A' for Active; 'I' for Inactive)
REMARK    1  A    between atoms: O_2  and  C_3
REMARK    2  A    between atoms: C_3  and  C_5
REMARK    3  A    between atoms: C_16  and  C_17
REMARK                            x       y       z     vdW  Elec       q    Type
REMARK                         _______ _______ _______ _____ _____    ______ ____
ROOT
ATOM      1  C   UNL     1      29.537  23.248  28.821  0.00  0.00    +0.000 C 
ATOM      2  C   UNL     1      28.733  22.517  28.101  0.00  0.00    +0.000 C 
ATOM      3  N   UNL     1      27.551  21.968  28.735  0.00  0.00    +0.000 NA
ATOM      4  O   UNL     1      28.974  22.252  26.751  0.00  0.00    +0.000 OA
ATOM      5  C   UNL     1      30.100  22.797  26.210  0.00  0.00    +0.000 C 
ATOM      6  C   UNL     1      30.969  23.543  26.842  0.00  0.00    +0.000 C 
ATOM      7  C   UNL     1      32.137  24.060  26.120  0.00  0.00    +0.000 C 
ATOM      8  O   UNL     1      33.219  23.998  26.702  0.00  0.00    +0.000 OA
ATOM      9  C   UNL     1      31.904  24.594  24.793  0.00  0.00    +0.000 C 
ATOM     10  C   UNL     1      30.870  23.798  24.071  0.00  0.00    +0.000 C 
ATOM     11  C   UNL     1      30.439  22.557  24.752  0.00  0.00    +0.000 C 
ATOM     12  C   UNL     1      30.819  23.902  28.337  0.00  0.00    +0.000 C 
ENDROOT
BRANCH  12  13
ATOM     13  C   UNL     1      31.905  23.037  28.990  0.00  0.00    +0.000 A 
ATOM     14  C   UNL     1      32.266  21.787  29.012  0.00  0.00    +0.000 A 
ATOM     15  C   UNL     1      33.321  21.423  29.743  0.00  0.00    +0.000 A 
ATOM     16  C   UNL     1      33.971  22.409  30.438  0.00  0.00    +0.000 A 
ATOM     17  S   UNL     1      33.021  23.793  29.994  0.00  0.00    +0.000 S 
ENDBRANCH  12  13
BRANCH   1  18
ATOM     18  C   UNL     1      29.153  23.445  30.238  0.00  0.00    +0.000 C 
ATOM     19  O   UNL     1      28.656  24.514  30.665  0.00  0.00    +0.000 OA
BRANCH  18  21
ATOM     20  C   UNL     1      30.239  22.594  32.269  0.00  0.00    +0.000 C 
ATOM     21  O   UNL     1      29.304  22.485  31.210  0.00  0.00    +0.000 OA
ENDBRANCH  18  21
ENDBRANCH   1  18
TORSDOF 3
ENDMDL
MODEL 9
REMARK VINA RESULT:      -5.0     21.697     24.389
REMARK  Name = 
REMARK  3 active torsions:
REMARK  status: ('A' for Active; 'I' for Inactive)
REMARK    1  A    between atoms: O_2  and  C_3
REMARK    2  A    between atoms: C_3  and  C_5
REMARK    3  A    between atoms: C_16  and  C_17
REMARK                            x       y       z     vdW  Elec       q    Type
REMARK                         _______ _______ _______ _____ _____    ______ ____
ROOT
ATOM      1  C   UNL     1      34.273   2.904  37.926  0.00  0.00    +0.000 C 
ATOM      2  C   UNL     1      34.171   1.836  37.185  0.00  0.00    +0.000 C 
ATOM      3  N   UNL     1      34.251   0.541  37.831  0.00  0.00    +0.000 NA
ATOM      4  O   UNL     1      33.987   1.903  35.802  0.00  0.00    +0.000 OA
ATOM      5  C   UNL     1      33.917   3.147  35.252  0.00  0.00    +0.000 C 
ATOM      6  C   UNL     1      34.006   4.278  35.902  0.00  0.00    +0.000 C 
ATOM      7  C   UNL     1      33.911   5.545  35.167  0.00  0.00    +0.000 C 
ATOM      8  O   UNL     1      34.718   6.421  35.469  0.00  0.00    +0.000 OA
ATOM      9  C   UNL     1      32.876   5.639  34.157  0.00  0.00    +0.000 C 
ATOM     10  C   UNL     1      32.709   4.342  33.440  0.00  0.00    +0.000 C 
ATOM     11  C   UNL     1      33.720   3.311  33.757  0.00  0.00    +0.000 C 
ATOM     12  C   UNL     1      34.217   4.338  37.432  0.00  0.00    +0.000 C 
ENDROOT
BRANCH  12  13
ATOM     13  C   UNL     1      35.681   4.788  37.541  0.00  0.00    +0.000 A 
ATOM     14  C   UNL     1      36.836   4.459  37.041  0.00  0.00    +0.000 A 
ATOM     15  C   UNL     1      37.926   5.133  37.412  0.00  0.00    +0.000 A 
ATOM     16  C   UNL     1      37.755   6.150  38.314  0.00  0.00    +0.000 A 
ATOM     17  S   UNL     1      36.040   6.069  38.569  0.00  0.00    +0.000 S 
ENDBRANCH  12  13
BRANCH   1  18
ATOM     18  C   UNL     1      34.465   2.680  39.377  0.00  0.00    +0.000 C 
ATOM     19  O   UNL     1      33.523   2.730  40.203  0.00  0.00    +0.000 OA
BRANCH  18  21
ATOM     20  C   UNL     1      36.208   3.125  41.048  0.00  0.00    +0.000 C 
ATOM     21  O   UNL     1      35.682   2.398  39.951  0.00  0.00    +0.000 OA
ENDBRANCH  18  21
ENDBRANCH   1  18
TORSDOF 3
ENDMDL
MODEL 10
REMARK VINA RESULT:      -4.9      2.149      4.768
REMARK  Name = 
REMARK  3 active torsions:
REMARK  status: ('A' for Active; 'I' for Inactive)
REMARK    1  A    between atoms: O_2  and  C_3
REMARK    2  A    between atoms: C_3  and  C_5
REMARK    3  A    between atoms: C_16  and  C_17
REMARK                            x       y       z     vdW  Elec       q    Type
REMARK                         _______ _______ _______ _____ _____    ______ ____
ROOT
ATOM      1  C   UNL     1      27.139  24.973  26.626  0.00  0.00    +0.000 C 
ATOM      2  C   UNL     1      25.926  24.541  26.425  0.00  0.00    +0.000 C 
ATOM      3  N   UNL     1      24.959  24.690  27.494  0.00  0.00    +0.000 NA
ATOM      4  O   UNL     1      25.535  23.946  25.224  0.00  0.00    +0.000 OA
ATOM      5  C   UNL     1      26.487  23.835  24.256  0.00  0.00    +0.000 C 
ATOM      6  C   UNL     1      27.729  24.236  24.353  0.00  0.00    +0.000 C 
ATOM      7  C   UNL     1      28.640  24.047  23.219  0.00  0.00    +0.000 C 
ATOM      8  O   UNL     1      29.768  23.634  23.479  0.00  0.00    +0.000 OA
ATOM      9  C   UNL     1      28.123  24.366  21.903  0.00  0.00    +0.000 C 
ATOM     10  C   UNL     1      26.688  23.977  21.784  0.00  0.00    +0.000 C 
ATOM     11  C   UNL     1      26.148  23.201  22.921  0.00  0.00    +0.000 C 
ATOM     12  C   UNL     1      28.285  24.901  25.632  0.00  0.00    +0.000 C 
ENDROOT
BRANCH  12  13
ATOM     13  C   UNL     1      29.169  23.792  26.218  0.00  0.00    +0.000 A 
ATOM     14  C   UNL     1      29.071  22.529  26.514  0.00  0.00    +0.000 A 
ATOM     15  C   UNL     1      30.123  21.894  27.033  0.00  0.00    +0.000 A 
ATOM     16  C   UNL     1      31.264  22.628  27.223  0.00  0.00    +0.000 A 
ATOM     17  S   UNL     1      30.748  24.181  26.645  0.00  0.00    +0.000 S 
ENDBRANCH  12  13
BRANCH   1  18
ATOM     18  C   UNL     1      27.409  25.582  27.948  0.00  0.00    +0.000 C 
ATOM     19  O   UNL     1      27.471  26.822  28.126  0.00  0.00    +0.000 OA
BRANCH  18  21
ATOM     20  C   UNL     1      28.832  24.882  29.823  0.00  0.00    +0.000 C 
ATOM     21  O   UNL     1      27.616  24.854  29.096  0.00  0.00    +0.000 OA
ENDBRANCH  18  21
ENDBRANCH   1  18
TORSDOF 3
ENDMDL
