MODEL 1
REMARK VINA RESULT:      -8.1      0.000      0.000
REMARK  Name = 
REMARK  8 active torsions:
REMARK  status: ('A' for Active; 'I' for Inactive)
REMARK    1  A    between atoms: C_2  and  C_3
REMARK    2  A    between atoms: C_2  and  C_9
REMARK    3  A    between atoms: C_2  and  C_15
REMARK    4  A    between atoms: N_18  and  C_19
REMARK    5  A    between atoms: C_19  and  C_20
REMARK    6  A    between atoms: C_20  and  C_21
REMARK    7  A    between atoms: C_21  and  O_22
REMARK    8  A    between atoms: O_22  and  C_23
REMARK                            x       y       z     vdW  Elec       q    Type
REMARK                         _______ _______ _______ _____ _____    ______ ____
ROOT
ATOM      1  C   UNL     1      38.521  -1.303  14.837  0.00  0.00    +0.000 C 
ATOM      2  C   UNL     1      38.093  -1.687  13.500  0.00  0.00    +0.000 C 
ATOM      3  C   UNL     1      38.828  -0.885  12.449  0.00  0.00    +0.000 C 
ATOM      4  N   UNL     1      39.644   0.091  13.085  0.00  0.00    +0.000 NA
ATOM      5  C   UNL     1      40.687  -0.446  13.936  0.00  0.00    +0.000 C 
ATOM      6  C   UNL     1      39.970  -1.155  15.086  0.00  0.00    +0.000 C 
ENDROOT
BRANCH   1   8
ATOM      7  O   UNL     1      38.350  -1.438  17.169  0.00  0.00    +0.000 OA
ATOM      8  C   UNL     1      37.628  -1.390  15.978  0.00  0.00    +0.000 C 
BRANCH   8   9
ATOM      9  C   UNL     1      36.711  -0.226  16.021  0.00  0.00    +0.000 A 
ATOM     10  C   UNL     1      36.021   0.112  17.178  0.00  0.00    +0.000 A 
ATOM     11  C   UNL     1      35.176   1.188  17.230  0.00  0.00    +0.000 A 
ATOM     12  C   UNL     1      34.999   1.958  16.115  0.00  0.00    +0.000 A 
ATOM     13  C   UNL     1      35.680   1.637  14.946  0.00  0.00    +0.000 A 
ATOM     14  C   UNL     1      36.526   0.554  14.904  0.00  0.00    +0.000 A 
ENDBRANCH   8   9
BRANCH   8  15
ATOM     15  C   UNL     1      36.741  -2.595  15.854  0.00  0.00    +0.000 A 
ATOM     16  C   UNL     1      35.481  -2.556  15.346  0.00  0.00    +0.000 A 
ATOM     17  C   UNL     1      34.746  -3.740  15.273  0.00  0.00    +0.000 A 
ATOM     18  C   UNL     1      35.248  -4.949  15.698  0.00  0.00    +0.000 A 
ATOM     19  C   UNL     1      36.524  -4.966  16.209  0.00  0.00    +0.000 A 
ATOM     20  C   UNL     1      37.253  -3.798  16.282  0.00  0.00    +0.000 A 
ENDBRANCH   8  15
ENDBRANCH   1   8
BRANCH   4  21
ATOM     21  C   UNL     1      40.035   1.215  12.314  0.00  0.00    +0.000 C 
BRANCH  21  22
ATOM     22  C   UNL     1      40.311   2.457  13.110  0.00  0.00    +0.000 C 
BRANCH  22  23
ATOM     23  C   UNL     1      39.165   2.866  14.003  0.00  0.00    +0.000 C 
BRANCH  23  24
ATOM     24  O   UNL     1      39.327   4.263  14.243  0.00  0.00    +0.000 OA
BRANCH  24  25
ATOM     25  C   UNL     1      39.320   4.728  15.563  0.00  0.00    +0.000 A 
ATOM     26  C   UNL     1      38.373   4.238  16.442  0.00  0.00    +0.000 A 
ATOM     27  C   UNL     1      38.349   4.686  17.756  0.00  0.00    +0.000 A 
ATOM     28  C   UNL     1      39.271   5.624  18.196  0.00  0.00    +0.000 A 
ATOM     29  C   UNL     1      40.214   6.121  17.343  0.00  0.00    +0.000 A 
ATOM     30  C   UNL     1      40.208   5.653  16.046  0.00  0.00    +0.000 A 
ATOM     31  O   UNL     1      41.107   7.049  17.823  0.00  0.00    +0.000 OA
ATOM     32  C   UNL     1      41.019   7.678  19.069  0.00  0.00    +0.000 C 
ATOM     33  C   UNL     1      40.094   7.038  20.045  0.00  0.00    +0.000 C 
ATOM     34  O   UNL     1      39.253   6.072  19.495  0.00  0.00    +0.000 OA
ENDBRANCH  24  25
ENDBRANCH  23  24
ENDBRANCH  22  23
ENDBRANCH  21  22
ENDBRANCH   4  21
TORSDOF 8
ENDMDL
MODEL 2
REMARK VINA RESULT:      -8.0      1.394      3.189
REMARK  Name = 
REMARK  8 active torsions:
REMARK  status: ('A' for Active; 'I' for Inactive)
REMARK    1  A    between atoms: C_2  and  C_3
REMARK    2  A    between atoms: C_2  and  C_9
REMARK    3  A    between atoms: C_2  and  C_15
REMARK    4  A    between atoms: N_18  and  C_19
REMARK    5  A    between atoms: C_19  and  C_20
REMARK    6  A    between atoms: C_20  and  C_21
REMARK    7  A    between atoms: C_21  and  O_22
REMARK    8  A    between atoms: O_22  and  C_23
REMARK                            x       y       z     vdW  Elec       q    Type
REMARK                         _______ _______ _______ _____ _____    ______ ____
ROOT
ATOM      1  C   UNL     1      38.323  -1.476  14.392  0.00  0.00    +0.000 C 
ATOM      2  C   UNL     1      38.215  -1.272  12.954  0.00  0.00    +0.000 C 
ATOM      3  C   UNL     1      39.087  -0.120  12.509  0.00  0.00    +0.000 C 
ATOM      4  N   UNL     1      39.673   0.498  13.648  0.00  0.00    +0.000 NA
ATOM      5  C   UNL     1      40.555  -0.356  14.419  0.00  0.00    +0.000 C 
ATOM      6  C   UNL     1      39.673  -1.464  14.995  0.00  0.00    +0.000 C 
ENDROOT
BRANCH   1   8
ATOM      7  O   UNL     1      36.405  -2.822  14.385  0.00  0.00    +0.000 OA
ATOM      8  C   UNL     1      37.222  -2.012  15.171  0.00  0.00    +0.000 C 
BRANCH   8   9
ATOM      9  C   UNL     1      37.724  -2.807  16.318  0.00  0.00    +0.000 A 
ATOM     10  C   UNL     1      38.212  -2.197  17.466  0.00  0.00    +0.000 A 
ATOM     11  C   UNL     1      38.674  -2.923  18.531  0.00  0.00    +0.000 A 
ATOM     12  C   UNL     1      38.657  -4.288  18.473  0.00  0.00    +0.000 A 
ATOM     13  C   UNL     1      38.172  -4.919  17.332  0.00  0.00    +0.000 A 
ATOM     14  C   UNL     1      37.712  -4.181  16.266  0.00  0.00    +0.000 A 
ENDBRANCH   8   9
BRANCH   8  15
ATOM     15  C   UNL     1      36.422  -0.895  15.778  0.00  0.00    +0.000 A 
ATOM     16  C   UNL     1      36.712   0.422  15.605  0.00  0.00    +0.000 A 
ATOM     17  C   UNL     1      35.897   1.377  16.213  0.00  0.00    +0.000 A 
ATOM     18  C   UNL     1      34.808   1.038  16.983  0.00  0.00    +0.000 A 
ATOM     19  C   UNL     1      34.533  -0.299  17.145  0.00  0.00    +0.000 A 
ATOM     20  C   UNL     1      35.336  -1.245  16.546  0.00  0.00    +0.000 A 
ENDBRANCH   8  15
ENDBRANCH   1   8
BRANCH   4  21
ATOM     21  C   UNL     1      40.126   1.833  13.503  0.00  0.00    +0.000 C 
BRANCH  21  22
ATOM     22  C   UNL     1      39.463   2.823  14.414  0.00  0.00    +0.000 C 
BRANCH  22  23
ATOM     23  C   UNL     1      39.845   4.255  14.128  0.00  0.00    +0.000 C 
BRANCH  23  24
ATOM     24  O   UNL     1      39.014   5.063  14.960  0.00  0.00    +0.000 OA
BRANCH  24  25
ATOM     25  C   UNL     1      39.448   5.368  16.256  0.00  0.00    +0.000 A 
ATOM     26  C   UNL     1      38.656   5.012  17.330  0.00  0.00    +0.000 A 
ATOM     27  C   UNL     1      39.068   5.306  18.623  0.00  0.00    +0.000 A 
ATOM     28  C   UNL     1      40.273   5.955  18.846  0.00  0.00    +0.000 A 
ATOM     29  C   UNL     1      41.070   6.316  17.798  0.00  0.00    +0.000 A 
ATOM     30  C   UNL     1      40.628   6.008  16.529  0.00  0.00    +0.000 A 
ATOM     31  O   UNL     1      42.255   6.957  18.067  0.00  0.00    +0.000 OA
ATOM     32  C   UNL     1      42.636   7.448  19.321  0.00  0.00    +0.000 C 
ATOM     33  C   UNL     1      41.850   6.931  20.476  0.00  0.00    +0.000 C 
ATOM     34  O   UNL     1      40.687   6.248  20.123  0.00  0.00    +0.000 OA
ENDBRANCH  24  25
ENDBRANCH  23  24
ENDBRANCH  22  23
ENDBRANCH  21  22
ENDBRANCH   4  21
TORSDOF 8
ENDMDL
MODEL 3
REMARK VINA RESULT:      -8.0      2.724      8.907
REMARK  Name = 
REMARK  8 active torsions:
REMARK  status: ('A' for Active; 'I' for Inactive)
REMARK    1  A    between atoms: C_2  and  C_3
REMARK    2  A    between atoms: C_2  and  C_9
REMARK    3  A    between atoms: C_2  and  C_15
REMARK    4  A    between atoms: N_18  and  C_19
REMARK    5  A    between atoms: C_19  and  C_20
REMARK    6  A    between atoms: C_20  and  C_21
REMARK    7  A    between atoms: C_21  and  O_22
REMARK    8  A    between atoms: O_22  and  C_23
REMARK                            x       y       z     vdW  Elec       q    Type
REMARK                         _______ _______ _______ _____ _____    ______ ____
ROOT
ATOM      1  C   UNL     1      39.938   6.156  17.376  0.00  0.00    +0.000 C 
ATOM      2  C   UNL     1      39.182   5.156  18.116  0.00  0.00    +0.000 C 
ATOM      3  C   UNL     1      38.162   4.485  17.223  0.00  0.00    +0.000 C 
ATOM      4  N   UNL     1      38.168   5.110  15.946  0.00  0.00    +0.000 NA
ATOM      5  C   UNL     1      39.418   5.006  15.221  0.00  0.00    +0.000 C 
ATOM      6  C   UNL     1      40.446   5.790  16.036  0.00  0.00    +0.000 C 
ENDROOT
BRANCH   1   8
ATOM      7  O   UNL     1      40.941   8.252  17.081  0.00  0.00    +0.000 OA
ATOM      8  C   UNL     1      40.482   7.335  18.024  0.00  0.00    +0.000 C 
BRANCH   8   9
ATOM      9  C   UNL     1      39.458   7.991  18.872  0.00  0.00    +0.000 A 
ATOM     10  C   UNL     1      38.107   7.928  18.558  0.00  0.00    +0.000 A 
ATOM     11  C   UNL     1      37.153   8.527  19.337  0.00  0.00    +0.000 A 
ATOM     12  C   UNL     1      37.532   9.209  20.459  0.00  0.00    +0.000 A 
ATOM     13  C   UNL     1      38.881   9.284  20.791  0.00  0.00    +0.000 A 
ATOM     14  C   UNL     1      39.831   8.680  20.002  0.00  0.00    +0.000 A 
ENDBRANCH   8   9
BRANCH   8  15
ATOM     15  C   UNL     1      41.591   6.949  18.961  0.00  0.00    +0.000 A 
ATOM     16  C   UNL     1      41.386   6.384  20.180  0.00  0.00    +0.000 A 
ATOM     17  C   UNL     1      42.492   6.061  20.968  0.00  0.00    +0.000 A 
ATOM     18  C   UNL     1      43.784   6.293  20.558  0.00  0.00    +0.000 A 
ATOM     19  C   UNL     1      43.968   6.866  19.322  0.00  0.00    +0.000 A 
ATOM     20  C   UNL     1      42.879   7.186  18.541  0.00  0.00    +0.000 A 
ENDBRANCH   8  15
ENDBRANCH   1   8
BRANCH   4  21
ATOM     21  C   UNL     1      37.009   4.961  15.143  0.00  0.00    +0.000 C 
BRANCH  21  22
ATOM     22  C   UNL     1      36.746   3.560  14.674  0.00  0.00    +0.000 C 
BRANCH  22  23
ATOM     23  C   UNL     1      35.294   3.159  14.760  0.00  0.00    +0.000 C 
BRANCH  23  24
ATOM     24  O   UNL     1      35.264   1.739  14.620  0.00  0.00    +0.000 OA
BRANCH  24  25
ATOM     25  C   UNL     1      35.642   0.944  15.708  0.00  0.00    +0.000 A 
ATOM     26  C   UNL     1      35.017   1.131  16.925  0.00  0.00    +0.000 A 
ATOM     27  C   UNL     1      35.377   0.353  18.017  0.00  0.00    +0.000 A 
ATOM     28  C   UNL     1      36.363  -0.615  17.895  0.00  0.00    +0.000 A 
ATOM     29  C   UNL     1      36.993  -0.816  16.701  0.00  0.00    +0.000 A 
ATOM     30  C   UNL     1      36.609  -0.024  15.640  0.00  0.00    +0.000 A 
ATOM     31  O   UNL     1      37.963  -1.786  16.628  0.00  0.00    +0.000 OA
ATOM     32  C   UNL     1      38.503  -2.467  17.725  0.00  0.00    +0.000 C 
ATOM     33  C   UNL     1      37.723  -2.361  18.990  0.00  0.00    +0.000 C 
ATOM     34  O   UNL     1      36.724  -1.389  18.972  0.00  0.00    +0.000 OA
ENDBRANCH  24  25
ENDBRANCH  23  24
ENDBRANCH  22  23
ENDBRANCH  21  22
ENDBRANCH   4  21
TORSDOF 8
ENDMDL
MODEL 4
REMARK VINA RESULT:      -7.9      3.303      3.882
REMARK  Name = 
REMARK  8 active torsions:
REMARK  status: ('A' for Active; 'I' for Inactive)
REMARK    1  A    between atoms: C_2  and  C_3
REMARK    2  A    between atoms: C_2  and  C_9
REMARK    3  A    between atoms: C_2  and  C_15
REMARK    4  A    between atoms: N_18  and  C_19
REMARK    5  A    between atoms: C_19  and  C_20
REMARK    6  A    between atoms: C_20  and  C_21
REMARK    7  A    between atoms: C_21  and  O_22
REMARK    8  A    between atoms: O_22  and  C_23
REMARK                            x       y       z     vdW  Elec       q    Type
REMARK                         _______ _______ _______ _____ _____    ______ ____
ROOT
ATOM      1  C   UNL     1      38.020  -2.865  15.451  0.00  0.00    +0.000 C 
ATOM      2  C   UNL     1      37.640  -3.067  14.061  0.00  0.00    +0.000 C 
ATOM      3  C   UNL     1      38.391  -2.117  13.155  0.00  0.00    +0.000 C 
ATOM      4  N   UNL     1      39.169  -1.227  13.944  0.00  0.00    +0.000 NA
ATOM      5  C   UNL     1      40.196  -1.862  14.746  0.00  0.00    +0.000 C 
ATOM      6  C   UNL     1      39.459  -2.732  15.764  0.00  0.00    +0.000 C 
ENDROOT
BRANCH   1   8
ATOM      7  O   UNL     1      37.721  -3.831  17.564  0.00  0.00    +0.000 OA
ATOM      8  C   UNL     1      37.097  -3.122  16.540  0.00  0.00    +0.000 C 
BRANCH   8   9
ATOM      9  C   UNL     1      36.566  -1.852  17.093  0.00  0.00    +0.000 A 
ATOM     10  C   UNL     1      36.326  -1.696  18.452  0.00  0.00    +0.000 A 
ATOM     11  C   UNL     1      35.841  -0.527  18.973  0.00  0.00    +0.000 A 
ATOM     12  C   UNL     1      35.583   0.525  18.139  0.00  0.00    +0.000 A 
ATOM     13  C   UNL     1      35.816   0.390  16.774  0.00  0.00    +0.000 A 
ATOM     14  C   UNL     1      36.302  -0.790  16.260  0.00  0.00    +0.000 A 
ENDBRANCH   8   9
BRANCH   8  15
ATOM     15  C   UNL     1      35.896  -3.873  16.039  0.00  0.00    +0.000 A 
ATOM     16  C   UNL     1      34.751  -3.273  15.620  0.00  0.00    +0.000 A 
ATOM     17  C   UNL     1      33.699  -4.070  15.169  0.00  0.00    +0.000 A 
ATOM     18  C   UNL     1      33.774  -5.443  15.132  0.00  0.00    +0.000 A 
ATOM     19  C   UNL     1      34.941  -6.029  15.561  0.00  0.00    +0.000 A 
ATOM     20  C   UNL     1      35.983  -5.245  16.007  0.00  0.00    +0.000 A 
ENDBRANCH   8  15
ENDBRANCH   1   8
BRANCH   4  21
ATOM     21  C   UNL     1      39.563  -0.002  13.348  0.00  0.00    +0.000 C 
BRANCH  21  22
ATOM     22  C   UNL     1      39.799   1.120  14.316  0.00  0.00    +0.000 C 
BRANCH  22  23
ATOM     23  C   UNL     1      39.576   2.487  13.719  0.00  0.00    +0.000 C 
BRANCH  23  24
ATOM     24  O   UNL     1      38.361   2.404  12.976  0.00  0.00    +0.000 OA
BRANCH  24  25
ATOM     25  C   UNL     1      37.313   3.276  13.294  0.00  0.00    +0.000 A 
ATOM     26  C   UNL     1      36.589   3.062  14.451  0.00  0.00    +0.000 A 
ATOM     27  C   UNL     1      35.546   3.916  14.784  0.00  0.00    +0.000 A 
ATOM     28  C   UNL     1      35.222   4.985  13.962  0.00  0.00    +0.000 A 
ATOM     29  C   UNL     1      35.925   5.213  12.814  0.00  0.00    +0.000 A 
ATOM     30  C   UNL     1      36.953   4.345  12.515  0.00  0.00    +0.000 A 
ATOM     31  O   UNL     1      35.568   6.284  12.031  0.00  0.00    +0.000 OA
ATOM     32  C   UNL     1      34.418   7.061  12.208  0.00  0.00    +0.000 C 
ATOM     33  C   UNL     1      33.743   6.913  13.527  0.00  0.00    +0.000 C 
ATOM     34  O   UNL     1      34.191   5.833  14.286  0.00  0.00    +0.000 OA
ENDBRANCH  24  25
ENDBRANCH  23  24
ENDBRANCH  22  23
ENDBRANCH  21  22
ENDBRANCH   4  21
TORSDOF 8
ENDMDL
MODEL 5
REMARK VINA RESULT:      -7.8      2.156      4.275
REMARK  Name = 
REMARK  8 active torsions:
REMARK  status: ('A' for Active; 'I' for Inactive)
REMARK    1  A    between atoms: C_2  and  C_3
REMARK    2  A    between atoms: C_2  and  C_9
REMARK    3  A    between atoms: C_2  and  C_15
REMARK    4  A    between atoms: N_18  and  C_19
REMARK    5  A    between atoms: C_19  and  C_20
REMARK    6  A    between atoms: C_20  and  C_21
REMARK    7  A    between atoms: C_21  and  O_22
REMARK    8  A    between atoms: O_22  and  C_23
REMARK                            x       y       z     vdW  Elec       q    Type
REMARK                         _______ _______ _______ _____ _____    ______ ____
ROOT
ATOM      1  C   UNL     1      36.628  -0.598  15.480  0.00  0.00    +0.000 C 
ATOM      2  C   UNL     1      35.452  -0.370  16.308  0.00  0.00    +0.000 C 
ATOM      3  C   UNL     1      35.392   1.068  16.771  0.00  0.00    +0.000 C 
ATOM      4  N   UNL     1      36.567   1.750  16.350  0.00  0.00    +0.000 NA
ATOM      5  C   UNL     1      36.744   1.831  14.914  0.00  0.00    +0.000 C 
ATOM      6  C   UNL     1      36.940   0.395  14.430  0.00  0.00    +0.000 C 
ENDROOT
BRANCH   1   8
ATOM      7  O   UNL     1      36.445  -2.850  14.862  0.00  0.00    +0.000 OA
ATOM      8  C   UNL     1      37.284  -1.891  15.427  0.00  0.00    +0.000 C 
BRANCH   8   9
ATOM      9  C   UNL     1      38.532  -1.818  14.628  0.00  0.00    +0.000 A 
ATOM     10  C   UNL     1      38.651  -2.469  13.408  0.00  0.00    +0.000 A 
ATOM     11  C   UNL     1      39.797  -2.403  12.661  0.00  0.00    +0.000 A 
ATOM     12  C   UNL     1      40.860  -1.678  13.122  0.00  0.00    +0.000 A 
ATOM     13  C   UNL     1      40.760  -1.018  14.343  0.00  0.00    +0.000 A 
ATOM     14  C   UNL     1      39.605  -1.091  15.086  0.00  0.00    +0.000 A 
ENDBRANCH   8   9
BRANCH   8  15
ATOM     15  C   UNL     1      37.712  -2.316  16.802  0.00  0.00    +0.000 A 
ATOM     16  C   UNL     1      37.697  -1.494  17.884  0.00  0.00    +0.000 A 
ATOM     17  C   UNL     1      38.113  -1.996  19.118  0.00  0.00    +0.000 A 
ATOM     18  C   UNL     1      38.540  -3.293  19.283  0.00  0.00    +0.000 A 
ATOM     19  C   UNL     1      38.547  -4.107  18.175  0.00  0.00    +0.000 A 
ATOM     20  C   UNL     1      38.137  -3.615  16.954  0.00  0.00    +0.000 A 
ENDBRANCH   8  15
ENDBRANCH   1   8
BRANCH   4  21
ATOM     21  C   UNL     1      36.925   2.928  17.054  0.00  0.00    +0.000 C 
BRANCH  21  22
ATOM     22  C   UNL     1      37.465   4.032  16.195  0.00  0.00    +0.000 C 
BRANCH  22  23
ATOM     23  C   UNL     1      38.737   4.644  16.729  0.00  0.00    +0.000 C 
BRANCH  23  24
ATOM     24  O   UNL     1      38.548   4.792  18.136  0.00  0.00    +0.000 OA
BRANCH  24  25
ATOM     25  C   UNL     1      38.954   5.982  18.751  0.00  0.00    +0.000 A 
ATOM     26  C   UNL     1      40.149   6.007  19.442  0.00  0.00    +0.000 A 
ATOM     27  C   UNL     1      40.569   7.178  20.060  0.00  0.00    +0.000 A 
ATOM     28  C   UNL     1      39.796   8.327  19.987  0.00  0.00    +0.000 A 
ATOM     29  C   UNL     1      38.612   8.323  19.308  0.00  0.00    +0.000 A 
ATOM     30  C   UNL     1      38.227   7.143  18.708  0.00  0.00    +0.000 A 
ATOM     31  O   UNL     1      37.880   9.485  19.262  0.00  0.00    +0.000 OA
ATOM     32  C   UNL     1      38.149  10.634  20.014  0.00  0.00    +0.000 C 
ATOM     33  C   UNL     1      39.505  10.693  20.630  0.00  0.00    +0.000 C 
ATOM     34  O   UNL     1      40.206   9.489  20.594  0.00  0.00    +0.000 OA
ENDBRANCH  24  25
ENDBRANCH  23  24
ENDBRANCH  22  23
ENDBRANCH  21  22
ENDBRANCH   4  21
TORSDOF 8
ENDMDL
MODEL 6
REMARK VINA RESULT:      -7.8      1.377      1.957
REMARK  Name = 
REMARK  8 active torsions:
REMARK  status: ('A' for Active; 'I' for Inactive)
REMARK    1  A    between atoms: C_2  and  C_3
REMARK    2  A    between atoms: C_2  and  C_9
REMARK    3  A    between atoms: C_2  and  C_15
REMARK    4  A    between atoms: N_18  and  C_19
REMARK    5  A    between atoms: C_19  and  C_20
REMARK    6  A    between atoms: C_20  and  C_21
REMARK    7  A    between atoms: C_21  and  O_22
REMARK    8  A    between atoms: O_22  and  C_23
REMARK                            x       y       z     vdW  Elec       q    Type
REMARK                         _______ _______ _______ _____ _____    ______ ____
ROOT
ATOM      1  C   UNL     1      38.462  -1.529  14.914  0.00  0.00    +0.000 C 
ATOM      2  C   UNL     1      38.328  -2.306  13.691  0.00  0.00    +0.000 C 
ATOM      3  C   UNL     1      38.691  -1.473  12.482  0.00  0.00    +0.000 C 
ATOM      4  N   UNL     1      38.951  -0.136  12.891  0.00  0.00    +0.000 NA
ATOM      5  C   UNL     1      40.073   0.018  13.796  0.00  0.00    +0.000 C 
ATOM      6  C   UNL     1      39.679  -0.706  15.083  0.00  0.00    +0.000 C 
ENDROOT
BRANCH   1   8
ATOM      7  O   UNL     1      38.424  -1.986  17.211  0.00  0.00    +0.000 OA
ATOM      8  C   UNL     1      37.636  -1.789  16.079  0.00  0.00    +0.000 C 
BRANCH   8   9
ATOM      9  C   UNL     1      36.708  -0.660  16.331  0.00  0.00    +0.000 A 
ATOM     10  C   UNL     1      36.209   0.115  15.293  0.00  0.00    +0.000 A 
ATOM     11  C   UNL     1      35.348   1.156  15.515  0.00  0.00    +0.000 A 
ATOM     12  C   UNL     1      34.962   1.448  16.793  0.00  0.00    +0.000 A 
ATOM     13  C   UNL     1      35.450   0.684  17.848  0.00  0.00    +0.000 A 
ATOM     14  C   UNL     1      36.316  -0.359  17.614  0.00  0.00    +0.000 A 
ENDBRANCH   8   9
BRANCH   8  15
ATOM     15  C   UNL     1      36.758  -2.984  15.838  0.00  0.00    +0.000 A 
ATOM     16  C   UNL     1      35.649  -2.959  15.052  0.00  0.00    +0.000 A 
ATOM     17  C   UNL     1      34.909  -4.131  14.895  0.00  0.00    +0.000 A 
ATOM     18  C   UNL     1      35.257  -5.314  15.504  0.00  0.00    +0.000 A 
ATOM     19  C   UNL     1      36.383  -5.316  16.294  0.00  0.00    +0.000 A 
ATOM     20  C   UNL     1      37.117  -4.160  16.452  0.00  0.00    +0.000 A 
ENDBRANCH   8  15
ENDBRANCH   1   8
BRANCH   4  21
ATOM     21  C   UNL     1      38.849   0.878  11.905  0.00  0.00    +0.000 C 
BRANCH  21  22
ATOM     22  C   UNL     1      37.532   1.597  11.879  0.00  0.00    +0.000 C 
BRANCH  22  23
ATOM     23  C   UNL     1      37.625   3.039  12.311  0.00  0.00    +0.000 C 
BRANCH  23  24
ATOM     24  O   UNL     1      36.948   3.124  13.564  0.00  0.00    +0.000 OA
BRANCH  24  25
ATOM     25  C   UNL     1      37.349   4.101  14.484  0.00  0.00    +0.000 A 
ATOM     26  C   UNL     1      37.282   5.432  14.121  0.00  0.00    +0.000 A 
ATOM     27  C   UNL     1      37.674   6.416  15.019  0.00  0.00    +0.000 A 
ATOM     28  C   UNL     1      38.134   6.072  16.282  0.00  0.00    +0.000 A 
ATOM     29  C   UNL     1      38.209   4.762  16.659  0.00  0.00    +0.000 A 
ATOM     30  C   UNL     1      37.811   3.813  15.742  0.00  0.00    +0.000 A 
ATOM     31  O   UNL     1      38.671   4.469  17.919  0.00  0.00    +0.000 OA
ATOM     32  C   UNL     1      39.256   5.391  18.795  0.00  0.00    +0.000 C 
ATOM     33  C   UNL     1      39.041   6.825  18.451  0.00  0.00    +0.000 C 
ATOM     34  O   UNL     1      38.524   7.041  17.175  0.00  0.00    +0.000 OA
ENDBRANCH  24  25
ENDBRANCH  23  24
ENDBRANCH  22  23
ENDBRANCH  21  22
ENDBRANCH   4  21
TORSDOF 8
ENDMDL
MODEL 7
REMARK VINA RESULT:      -7.7      1.744      4.363
REMARK  Name = 
REMARK  8 active torsions:
REMARK  status: ('A' for Active; 'I' for Inactive)
REMARK    1  A    between atoms: C_2  and  C_3
REMARK    2  A    between atoms: C_2  and  C_9
REMARK    3  A    between atoms: C_2  and  C_15
REMARK    4  A    between atoms: N_18  and  C_19
REMARK    5  A    between atoms: C_19  and  C_20
REMARK    6  A    between atoms: C_20  and  C_21
REMARK    7  A    between atoms: C_21  and  O_22
REMARK    8  A    between atoms: O_22  and  C_23
REMARK                            x       y       z     vdW  Elec       q    Type
REMARK                         _______ _______ _______ _____ _____    ______ ____
ROOT
ATOM      1  C   UNL     1      36.808  -0.403  16.020  0.00  0.00    +0.000 C 
ATOM      2  C   UNL     1      36.016  -0.026  17.182  0.00  0.00    +0.000 C 
ATOM      3  C   UNL     1      35.819   1.472  17.235  0.00  0.00    +0.000 C 
ATOM      4  N   UNL     1      36.563   2.084  16.189  0.00  0.00    +0.000 NA
ATOM      5  C   UNL     1      36.158   1.705  14.850  0.00  0.00    +0.000 C 
ATOM      6  C   UNL     1      36.469   0.214  14.720  0.00  0.00    +0.000 C 
ENDROOT
BRANCH   1   8
ATOM      7  O   UNL     1      38.377  -1.661  17.221  0.00  0.00    +0.000 OA
ATOM      8  C   UNL     1      37.664  -1.575  16.028  0.00  0.00    +0.000 C 
BRANCH   8   9
ATOM      9  C   UNL     1      36.865  -2.813  15.857  0.00  0.00    +0.000 A 
ATOM     10  C   UNL     1      35.708  -2.830  15.090  0.00  0.00    +0.000 A 
ATOM     11  C   UNL     1      34.967  -3.969  14.922  0.00  0.00    +0.000 A 
ATOM     12  C   UNL     1      35.369  -5.128  15.524  0.00  0.00    +0.000 A 
ATOM     13  C   UNL     1      36.526  -5.133  16.297  0.00  0.00    +0.000 A 
ATOM     14  C   UNL     1      37.263  -3.983  16.460  0.00  0.00    +0.000 A 
ENDBRANCH   8   9
BRANCH   8  15
ATOM     15  C   UNL     1      38.604  -1.540  14.857  0.00  0.00    +0.000 A 
ATOM     16  C   UNL     1      38.493  -2.357  13.776  0.00  0.00    +0.000 A 
ATOM     17  C   UNL     1      39.422  -2.234  12.741  0.00  0.00    +0.000 A 
ATOM     18  C   UNL     1      40.448  -1.318  12.773  0.00  0.00    +0.000 A 
ATOM     19  C   UNL     1      40.541  -0.503  13.876  0.00  0.00    +0.000 A 
ATOM     20  C   UNL     1      39.626  -0.621  14.900  0.00  0.00    +0.000 A 
ENDBRANCH   8  15
ENDBRANCH   1   8
BRANCH   4  21
ATOM     21  C   UNL     1      36.890   3.455  16.338  0.00  0.00    +0.000 C 
BRANCH  21  22
ATOM     22  C   UNL     1      38.057   3.916  15.515  0.00  0.00    +0.000 C 
BRANCH  22  23
ATOM     23  C   UNL     1      39.156   4.553  16.330  0.00  0.00    +0.000 C 
BRANCH  23  24
ATOM     24  O   UNL     1      38.672   4.614  17.671  0.00  0.00    +0.000 OA
BRANCH  24  25
ATOM     25  C   UNL     1      38.934   5.759  18.432  0.00  0.00    +0.000 A 
ATOM     26  C   UNL     1      40.003   5.754  19.306  0.00  0.00    +0.000 A 
ATOM     27  C   UNL     1      40.279   6.881  20.070  0.00  0.00    +0.000 A 
ATOM     28  C   UNL     1      39.487   8.014  19.963  0.00  0.00    +0.000 A 
ATOM     29  C   UNL     1      38.425   8.038  19.106  0.00  0.00    +0.000 A 
ATOM     30  C   UNL     1      38.181   6.903  18.364  0.00  0.00    +0.000 A 
ATOM     31  O   UNL     1      37.669   9.183  19.034  0.00  0.00    +0.000 OA
ATOM     32  C   UNL     1      37.775  10.273  19.905  0.00  0.00    +0.000 C 
ATOM     33  C   UNL     1      39.014  10.312  20.731  0.00  0.00    +0.000 C 
ATOM     34  O   UNL     1      39.755   9.132  20.716  0.00  0.00    +0.000 OA
ENDBRANCH  24  25
ENDBRANCH  23  24
ENDBRANCH  22  23
ENDBRANCH  21  22
ENDBRANCH   4  21
TORSDOF 8
ENDMDL
MODEL 8
REMARK VINA RESULT:      -7.7      1.992      4.002
REMARK  Name = 
REMARK  8 active torsions:
REMARK  status: ('A' for Active; 'I' for Inactive)
REMARK    1  A    between atoms: C_2  and  C_3
REMARK    2  A    between atoms: C_2  and  C_9
REMARK    3  A    between atoms: C_2  and  C_15
REMARK    4  A    between atoms: N_18  and  C_19
REMARK    5  A    between atoms: C_19  and  C_20
REMARK    6  A    between atoms: C_20  and  C_21
REMARK    7  A    between atoms: C_21  and  O_22
REMARK    8  A    between atoms: O_22  and  C_23
REMARK                            x       y       z     vdW  Elec       q    Type
REMARK                         _______ _______ _______ _____ _____    ______ ____
ROOT
ATOM      1  C   UNL     1      36.388  -0.502  15.613  0.00  0.00    +0.000 C 
ATOM      2  C   UNL     1      35.446  -0.218  16.685  0.00  0.00    +0.000 C 
ATOM      3  C   UNL     1      35.409   1.262  16.990  0.00  0.00    +0.000 C 
ATOM      4  N   UNL     1      36.393   1.930  16.211  0.00  0.00    +0.000 NA
ATOM      5  C   UNL     1      36.198   1.843  14.777  0.00  0.00    +0.000 C 
ATOM      6  C   UNL     1      36.361   0.367  14.417  0.00  0.00    +0.000 C 
ENDROOT
BRANCH   1   8
ATOM      7  O   UNL     1      36.283  -2.753  14.973  0.00  0.00    +0.000 OA
ATOM      8  C   UNL     1      37.094  -1.768  15.532  0.00  0.00    +0.000 C 
BRANCH   8   9
ATOM      9  C   UNL     1      38.323  -1.636  14.712  0.00  0.00    +0.000 A 
ATOM     10  C   UNL     1      39.366  -0.804  15.096  0.00  0.00    +0.000 A 
ATOM     11  C   UNL     1      40.506  -0.680  14.349  0.00  0.00    +0.000 A 
ATOM     12  C   UNL     1      40.631  -1.391  13.189  0.00  0.00    +0.000 A 
ATOM     13  C   UNL     1      39.597  -2.230  12.786  0.00  0.00    +0.000 A 
ATOM     14  C   UNL     1      38.455  -2.347  13.543  0.00  0.00    +0.000 A 
ENDBRANCH   8   9
BRANCH   8  15
ATOM     15  C   UNL     1      37.565  -2.189  16.895  0.00  0.00    +0.000 A 
ATOM     16  C   UNL     1      37.522  -1.386  17.990  0.00  0.00    +0.000 A 
ATOM     17  C   UNL     1      37.983  -1.883  19.210  0.00  0.00    +0.000 A 
ATOM     18  C   UNL     1      38.480  -3.158  19.347  0.00  0.00    +0.000 A 
ATOM     19  C   UNL     1      38.515  -3.954  18.227  0.00  0.00    +0.000 A 
ATOM     20  C   UNL     1      38.060  -3.466  17.020  0.00  0.00    +0.000 A 
ENDBRANCH   8  15
ENDBRANCH   1   8
BRANCH   4  21
ATOM     21  C   UNL     1      36.837   3.197  16.668  0.00  0.00    +0.000 C 
BRANCH  21  22
ATOM     22  C   UNL     1      37.000   4.230  15.593  0.00  0.00    +0.000 C 
BRANCH  22  23
ATOM     23  C   UNL     1      38.203   5.119  15.789  0.00  0.00    +0.000 C 
BRANCH  23  24
ATOM     24  O   UNL     1      38.140   5.584  17.136  0.00  0.00    +0.000 OA
BRANCH  24  25
ATOM     25  C   UNL     1      39.333   5.893  17.801  0.00  0.00    +0.000 A 
ATOM     26  C   UNL     1      39.319   6.028  19.175  0.00  0.00    +0.000 A 
ATOM     27  C   UNL     1      40.491   6.334  19.854  0.00  0.00    +0.000 A 
ATOM     28  C   UNL     1      41.680   6.505  19.161  0.00  0.00    +0.000 A 
ATOM     29  C   UNL     1      41.715   6.376  17.802  0.00  0.00    +0.000 A 
ATOM     30  C   UNL     1      40.532   6.072  17.163  0.00  0.00    +0.000 A 
ATOM     31  O   UNL     1      42.915   6.554  17.158  0.00  0.00    +0.000 OA
ATOM     32  C   UNL     1      44.082   7.047  17.754  0.00  0.00    +0.000 C 
ATOM     33  C   UNL     1      44.089   7.044  19.244  0.00  0.00    +0.000 C 
ATOM     34  O   UNL     1      42.844   6.807  19.826  0.00  0.00    +0.000 OA
ENDBRANCH  24  25
ENDBRANCH  23  24
ENDBRANCH  22  23
ENDBRANCH  21  22
ENDBRANCH   4  21
TORSDOF 8
ENDMDL
MODEL 9
REMARK VINA RESULT:      -7.7     25.907     28.269
REMARK  Name = 
REMARK  8 active torsions:
REMARK  status: ('A' for Active; 'I' for Inactive)
REMARK    1  A    between atoms: C_2  and  C_3
REMARK    2  A    between atoms: C_2  and  C_9
REMARK    3  A    between atoms: C_2  and  C_15
REMARK    4  A    between atoms: N_18  and  C_19
REMARK    5  A    between atoms: C_19  and  C_20
REMARK    6  A    between atoms: C_20  and  C_21
REMARK    7  A    between atoms: C_21  and  O_22
REMARK    8  A    between atoms: O_22  and  C_23
REMARK                            x       y       z     vdW  Elec       q    Type
REMARK                         _______ _______ _______ _____ _____    ______ ____
ROOT
ATOM      1  C   UNL     1      28.252  16.571  36.043  0.00  0.00    +0.000 C 
ATOM      2  C   UNL     1      29.128  17.645  36.488  0.00  0.00    +0.000 C 
ATOM      3  C   UNL     1      30.448  17.093  36.978  0.00  0.00    +0.000 C 
ATOM      4  N   UNL     1      30.401  15.672  36.963  0.00  0.00    +0.000 NA
ATOM      5  C   UNL     1      30.218  15.081  35.652  0.00  0.00    +0.000 C 
ATOM      6  C   UNL     1      28.829  15.515  35.184  0.00  0.00    +0.000 C 
ENDROOT
BRANCH   1   8
ATOM      7  O   UNL     1      26.417  18.008  36.277  0.00  0.00    +0.000 OA
ATOM      8  C   UNL     1      26.807  16.679  36.130  0.00  0.00    +0.000 C 
BRANCH   8   9
ATOM      9  C   UNL     1      26.162  16.123  34.916  0.00  0.00    +0.000 A 
ATOM     10  C   UNL     1      26.122  14.755  34.677  0.00  0.00    +0.000 A 
ATOM     11  C   UNL     1      25.524  14.232  33.562  0.00  0.00    +0.000 A 
ATOM     12  C   UNL     1      24.948  15.072  32.651  0.00  0.00    +0.000 A 
ATOM     13  C   UNL     1      24.978  16.444  32.871  0.00  0.00    +0.000 A 
ATOM     14  C   UNL     1      25.581  16.961  33.994  0.00  0.00    +0.000 A 
ENDBRANCH   8   9
BRANCH   8  15
ATOM     15  C   UNL     1      26.290  15.852  37.272  0.00  0.00    +0.000 A 
ATOM     16  C   UNL     1      27.092  15.181  38.141  0.00  0.00    +0.000 A 
ATOM     17  C   UNL     1      26.503  14.446  39.171  0.00  0.00    +0.000 A 
ATOM     18  C   UNL     1      25.140  14.374  39.342  0.00  0.00    +0.000 A 
ATOM     19  C   UNL     1      24.349  15.060  38.453  0.00  0.00    +0.000 A 
ATOM     20  C   UNL     1      24.926  15.787  37.434  0.00  0.00    +0.000 A 
ENDBRANCH   8  15
ENDBRANCH   1   8
BRANCH   4  21
ATOM     21  C   UNL     1      31.318  14.982  37.795  0.00  0.00    +0.000 C 
BRANCH  21  22
ATOM     22  C   UNL     1      31.162  13.490  37.799  0.00  0.00    +0.000 C 
BRANCH  22  23
ATOM     23  C   UNL     1      31.365  12.866  39.158  0.00  0.00    +0.000 C 
BRANCH  23  24
ATOM     24  O   UNL     1      30.072  12.782  39.755  0.00  0.00    +0.000 OA
BRANCH  24  25
ATOM     25  C   UNL     1      29.659  11.562  40.303  0.00  0.00    +0.000 A 
ATOM     26  C   UNL     1      30.594  10.568  40.511  0.00  0.00    +0.000 A 
ATOM     27  C   UNL     1      30.204   9.350  41.054  0.00  0.00    +0.000 A 
ATOM     28  C   UNL     1      28.878   9.124  41.390  0.00  0.00    +0.000 A 
ATOM     29  C   UNL     1      27.937  10.093  41.191  0.00  0.00    +0.000 A 
ATOM     30  C   UNL     1      28.361  11.288  40.651  0.00  0.00    +0.000 A 
ATOM     31  O   UNL     1      26.636   9.823  41.539  0.00  0.00    +0.000 OA
ATOM     32  C   UNL     1      26.147   8.565  41.908  0.00  0.00    +0.000 C 
ATOM     33  C   UNL     1      27.183   7.556  42.266  0.00  0.00    +0.000 C 
ATOM     34  O   UNL     1      28.485   7.921  41.927  0.00  0.00    +0.000 OA
ENDBRANCH  24  25
ENDBRANCH  23  24
ENDBRANCH  22  23
ENDBRANCH  21  22
ENDBRANCH   4  21
TORSDOF 8
ENDMDL
MODEL 10
REMARK VINA RESULT:      -7.7      2.671      8.882
REMARK  Name = 
REMARK  8 active torsions:
REMARK  status: ('A' for Active; 'I' for Inactive)
REMARK    1  A    between atoms: C_2  and  C_3
REMARK    2  A    between atoms: C_2  and  C_9
REMARK    3  A    between atoms: C_2  and  C_15
REMARK    4  A    between atoms: N_18  and  C_19
REMARK    5  A    between atoms: C_19  and  C_20
REMARK    6  A    between atoms: C_20  and  C_21
REMARK    7  A    between atoms: C_21  and  O_22
REMARK    8  A    between atoms: O_22  and  C_23
REMARK                            x       y       z     vdW  Elec       q    Type
REMARK                         _______ _______ _______ _____ _____    ______ ____
ROOT
ATOM      1  C   UNL     1      39.557   5.559  17.719  0.00  0.00    +0.000 C 
ATOM      2  C   UNL     1      38.654   4.474  18.073  0.00  0.00    +0.000 C 
ATOM      3  C   UNL     1      37.680   4.197  16.949  0.00  0.00    +0.000 C 
ATOM      4  N   UNL     1      37.864   5.158  15.917  0.00  0.00    +0.000 NA
ATOM      5  C   UNL     1      39.170   5.136  15.288  0.00  0.00    +0.000 C 
ATOM      6  C   UNL     1      40.168   5.543  16.373  0.00  0.00    +0.000 C 
ENDROOT
BRANCH   1   8
ATOM      7  O   UNL     1      40.560   5.713  19.830  0.00  0.00    +0.000 OA
ATOM      8  C   UNL     1      40.123   6.440  18.724  0.00  0.00    +0.000 C 
BRANCH   8   9
ATOM      9  C   UNL     1      41.266   7.206  18.172  0.00  0.00    +0.000 A 
ATOM     10  C   UNL     1      42.575   6.766  18.323  0.00  0.00    +0.000 A 
ATOM     11  C   UNL     1      43.637   7.464  17.813  0.00  0.00    +0.000 A 
ATOM     12  C   UNL     1      43.412   8.628  17.133  0.00  0.00    +0.000 A 
ATOM     13  C   UNL     1      42.109   9.086  16.970  0.00  0.00    +0.000 A 
ATOM     14  C   UNL     1      41.049   8.378  17.488  0.00  0.00    +0.000 A 
ENDBRANCH   8   9
BRANCH   8  15
ATOM     15  C   UNL     1      39.114   7.471  19.142  0.00  0.00    +0.000 A 
ATOM     16  C   UNL     1      38.021   7.800  18.403  0.00  0.00    +0.000 A 
ATOM     17  C   UNL     1      37.145   8.770  18.890  0.00  0.00    +0.000 A 
ATOM     18  C   UNL     1      37.344   9.409  20.092  0.00  0.00    +0.000 A 
ATOM     19  C   UNL     1      38.455   9.061  20.823  0.00  0.00    +0.000 A 
ATOM     20  C   UNL     1      39.323   8.103  20.345  0.00  0.00    +0.000 A 
ENDBRANCH   8  15
ENDBRANCH   1   8
BRANCH   4  21
ATOM     21  C   UNL     1      36.785   5.368  15.022  0.00  0.00    +0.000 C 
BRANCH  21  22
ATOM     22  C   UNL     1      36.337   4.142  14.281  0.00  0.00    +0.000 C 
BRANCH  22  23
ATOM     23  C   UNL     1      34.974   3.650  14.701  0.00  0.00    +0.000 C 
BRANCH  23  24
ATOM     24  O   UNL     1      34.970   2.242  14.472  0.00  0.00    +0.000 OA
BRANCH  24  25
ATOM     25  C   UNL     1      35.464   1.393  15.470  0.00  0.00    +0.000 A 
ATOM     26  C   UNL     1      34.971   1.510  16.754  0.00  0.00    +0.000 A 
ATOM     27  C   UNL     1      35.448   0.677  17.759  0.00  0.00    +0.000 A 
ATOM     28  C   UNL     1      36.419  -0.273  17.481  0.00  0.00    +0.000 A 
ATOM     29  C   UNL     1      36.919  -0.404  16.218  0.00  0.00    +0.000 A 
ATOM     30  C   UNL     1      36.423   0.439  15.247  0.00  0.00    +0.000 A 
ATOM     31  O   UNL     1      37.880  -1.360  15.990  0.00  0.00    +0.000 OA
ATOM     32  C   UNL     1      38.535  -2.094  16.986  0.00  0.00    +0.000 C 
ATOM     33  C   UNL     1      37.894  -2.063  18.330  0.00  0.00    +0.000 C 
ATOM     34  O   UNL     1      36.895  -1.101  18.470  0.00  0.00    +0.000 OA
ENDBRANCH  24  25
ENDBRANCH  23  24
ENDBRANCH  22  23
ENDBRANCH  21  22
ENDBRANCH   4  21
TORSDOF 8
ENDMDL
