MODEL 1
REMARK VINA RESULT:      -7.1      0.000      0.000
REMARK  Name = 
REMARK  2 active torsions:
REMARK  status: ('A' for Active; 'I' for Inactive)
REMARK    1  A    between atoms: C_2  and  C_3
REMARK    2  A    between atoms: C_3  and  N_4
REMARK                            x       y       z     vdW  Elec       q    Type
REMARK                         _______ _______ _______ _____ _____    ______ ____
ROOT
ATOM      1  N   UNL     1      14.897  12.200  33.147  0.00  0.00    +0.000 N 
ATOM      2  C   UNL     1      14.896  12.226  34.543  0.00  0.00    +0.000 C 
ATOM      3  O   UNL     1      14.001  12.417  35.357  0.00  0.00    +0.000 OA
ATOM      4  C   UNL     1      16.394  11.941  35.019  0.00  0.00    +0.000 C 
ATOM      5  C   UNL     1      15.932  10.621  35.966  0.00  0.00    +0.000 C 
ATOM      6  C   UNL     1      17.260  10.188  36.435  0.00  0.00    +0.000 A 
ATOM      7  C   UNL     1      18.190   9.905  35.464  0.00  0.00    +0.000 A 
ATOM      8  N   UNL     1      19.299   9.542  36.122  0.00  0.00    +0.000 NA
ATOM      9  C   UNL     1      19.101   9.584  37.452  0.00  0.00    +0.000 A 
ATOM     10  C   UNL     1      19.872   9.321  38.562  0.00  0.00    +0.000 A 
ATOM     11  C   UNL     1      19.376   9.459  39.842  0.00  0.00    +0.000 A 
ATOM     12  C   UNL     1      18.080   9.870  40.055  0.00  0.00    +0.000 A 
ATOM     13  C   UNL     1      17.300  10.135  38.976  0.00  0.00    +0.000 A 
ATOM     14  C   UNL     1      17.795   9.997  37.669  0.00  0.00    +0.000 A 
ATOM     15  C   UNL     1      17.807  10.047  34.012  0.00  0.00    +0.000 C 
ATOM     16  N   UNL     1      16.806  11.050  33.803  0.00  0.00    +0.000 N 
ATOM     17  C   UNL     1      16.048  11.491  32.716  0.00  0.00    +0.000 C 
ATOM     18  O   UNL     1      16.345  11.289  31.501  0.00  0.00    +0.000 OA
ENDROOT
BRANCH   1  19
ATOM     19  C   UNL     1      13.866  12.812  32.328  0.00  0.00    +0.000 C 
BRANCH  19  21
ATOM     20  C   UNL     1      13.340  15.114  33.027  0.00  0.00    +0.000 C 
ATOM     21  C   UNL     1      14.167  14.276  32.074  0.00  0.00    +0.000 C 
ENDBRANCH  19  21
ENDBRANCH   1  19
TORSDOF 2
ENDMDL
MODEL 2
REMARK VINA RESULT:      -6.4     18.361     20.386
REMARK  Name = 
REMARK  2 active torsions:
REMARK  status: ('A' for Active; 'I' for Inactive)
REMARK    1  A    between atoms: C_2  and  C_3
REMARK    2  A    between atoms: C_3  and  N_4
REMARK                            x       y       z     vdW  Elec       q    Type
REMARK                         _______ _______ _______ _____ _____    ______ ____
ROOT
ATOM      1  N   UNL     1      30.729  22.835  29.780  0.00  0.00    +0.000 N 
ATOM      2  C   UNL     1      31.068  23.184  28.471  0.00  0.00    +0.000 C 
ATOM      3  O   UNL     1      32.133  23.164  27.868  0.00  0.00    +0.000 OA
ATOM      4  C   UNL     1      29.727  23.678  27.756  0.00  0.00    +0.000 C 
ATOM      5  C   UNL     1      29.876  22.548  26.510  0.00  0.00    +0.000 C 
ATOM      6  C   UNL     1      28.632  22.838  25.775  0.00  0.00    +0.000 A 
ATOM      7  C   UNL     1      27.463  22.756  26.493  0.00  0.00    +0.000 A 
ATOM      8  N   UNL     1      26.487  23.059  25.628  0.00  0.00    +0.000 NA
ATOM      9  C   UNL     1      26.992  23.323  24.410  0.00  0.00    +0.000 A 
ATOM     10  C   UNL     1      26.462  23.678  23.189  0.00  0.00    +0.000 A 
ATOM     11  C   UNL     1      27.259  23.888  22.083  0.00  0.00    +0.000 A 
ATOM     12  C   UNL     1      28.626  23.751  22.163  0.00  0.00    +0.000 A 
ATOM     13  C   UNL     1      29.172  23.403  23.356  0.00  0.00    +0.000 A 
ATOM     14  C   UNL     1      28.370  23.185  24.488  0.00  0.00    +0.000 A 
ATOM     15  C   UNL     1      27.520  22.379  27.953  0.00  0.00    +0.000 C 
ATOM     16  N   UNL     1      28.742  22.787  28.579  0.00  0.00    +0.000 N 
ATOM     17  C   UNL     1      29.332  22.600  29.831  0.00  0.00    +0.000 C 
ATOM     18  O   UNL     1      28.705  22.264  30.880  0.00  0.00    +0.000 OA
ENDROOT
BRANCH   1  19
ATOM     19  C   UNL     1      31.691  22.746  30.864  0.00  0.00    +0.000 C 
BRANCH  19  21
ATOM     20  C   UNL     1      33.682  21.297  30.870  0.00  0.00    +0.000 C 
ATOM     21  C   UNL     1      32.178  21.321  31.048  0.00  0.00    +0.000 C 
ENDBRANCH  19  21
ENDBRANCH   1  19
TORSDOF 2
ENDMDL
MODEL 3
REMARK VINA RESULT:      -6.4     19.559     21.150
REMARK  Name = 
REMARK  2 active torsions:
REMARK  status: ('A' for Active; 'I' for Inactive)
REMARK    1  A    between atoms: C_2  and  C_3
REMARK    2  A    between atoms: C_3  and  N_4
REMARK                            x       y       z     vdW  Elec       q    Type
REMARK                         _______ _______ _______ _____ _____    ______ ____
ROOT
ATOM      1  N   UNL     1      28.314  26.261  21.556  0.00  0.00    +0.000 N 
ATOM      2  C   UNL     1      27.634  26.526  22.746  0.00  0.00    +0.000 C 
ATOM      3  O   UNL     1      26.693  27.265  23.004  0.00  0.00    +0.000 OA
ATOM      4  C   UNL     1      28.317  25.636  23.885  0.00  0.00    +0.000 C 
ATOM      5  C   UNL     1      26.856  24.894  24.297  0.00  0.00    +0.000 C 
ATOM      6  C   UNL     1      27.346  23.958  25.325  0.00  0.00    +0.000 A 
ATOM      7  C   UNL     1      28.345  23.096  24.942  0.00  0.00    +0.000 A 
ATOM      8  N   UNL     1      28.621  22.360  26.026  0.00  0.00    +0.000 NA
ATOM      9  C   UNL     1      27.843  22.723  27.061  0.00  0.00    +0.000 A 
ATOM     10  C   UNL     1      27.706  22.315  28.370  0.00  0.00    +0.000 A 
ATOM     11  C   UNL     1      26.789  22.896  29.221  0.00  0.00    +0.000 A 
ATOM     12  C   UNL     1      25.973  23.915  28.788  0.00  0.00    +0.000 A 
ATOM     13  C   UNL     1      26.088  24.334  27.502  0.00  0.00    +0.000 A 
ATOM     14  C   UNL     1      27.017  23.749  26.627  0.00  0.00    +0.000 A 
ATOM     15  C   UNL     1      28.865  23.152  23.527  0.00  0.00    +0.000 C 
ATOM     16  N   UNL     1      28.763  24.462  22.955  0.00  0.00    +0.000 N 
ATOM     17  C   UNL     1      28.987  25.020  21.695  0.00  0.00    +0.000 C 
ATOM     18  O   UNL     1      29.698  24.492  20.788  0.00  0.00    +0.000 OA
ENDROOT
BRANCH   1  19
ATOM     19  C   UNL     1      28.297  27.144  20.404  0.00  0.00    +0.000 C 
BRANCH  19  21
ATOM     20  C   UNL     1      30.322  27.519  19.053  0.00  0.00    +0.000 C 
ATOM     21  C   UNL     1      29.584  27.941  20.307  0.00  0.00    +0.000 C 
ENDBRANCH  19  21
ENDBRANCH   1  19
TORSDOF 2
ENDMDL
MODEL 4
REMARK VINA RESULT:      -6.4      1.752      2.357
REMARK  Name = 
REMARK  2 active torsions:
REMARK  status: ('A' for Active; 'I' for Inactive)
REMARK    1  A    between atoms: C_2  and  C_3
REMARK    2  A    between atoms: C_3  and  N_4
REMARK                            x       y       z     vdW  Elec       q    Type
REMARK                         _______ _______ _______ _____ _____    ______ ____
ROOT
ATOM      1  N   UNL     1      15.239  12.198  35.100  0.00  0.00    +0.000 N 
ATOM      2  C   UNL     1      14.875  12.049  36.440  0.00  0.00    +0.000 C 
ATOM      3  O   UNL     1      13.783  12.035  36.995  0.00  0.00    +0.000 OA
ATOM      4  C   UNL     1      16.225  11.876  37.277  0.00  0.00    +0.000 C 
ATOM      5  C   UNL     1      15.725  10.404  37.939  0.00  0.00    +0.000 C 
ATOM      6  C   UNL     1      16.934  10.066  38.710  0.00  0.00    +0.000 A 
ATOM      7  C   UNL     1      18.113  10.012  38.007  0.00  0.00    +0.000 A 
ATOM      8  N   UNL     1      19.054   9.695  38.905  0.00  0.00    +0.000 NA
ATOM      9  C   UNL     1      18.516   9.549  40.129  0.00  0.00    +0.000 A 
ATOM     10  C   UNL     1      19.004   9.236  41.379  0.00  0.00    +0.000 A 
ATOM     11  C   UNL     1      18.181   9.156  42.483  0.00  0.00    +0.000 A 
ATOM     12  C   UNL     1      16.830   9.390  42.372  0.00  0.00    +0.000 A 
ATOM     13  C   UNL     1      16.325   9.700  41.151  0.00  0.00    +0.000 A 
ATOM     14  C   UNL     1      17.154   9.783  40.020  0.00  0.00    +0.000 A 
ATOM     15  C   UNL     1      18.101  10.292  36.524  0.00  0.00    +0.000 C 
ATOM     16  N   UNL     1      17.057  11.195  36.144  0.00  0.00    +0.000 N 
ATOM     17  C   UNL     1      16.551  11.682  34.936  0.00  0.00    +0.000 C 
ATOM     18  O   UNL     1      17.176  11.668  33.834  0.00  0.00    +0.000 OA
ENDROOT
BRANCH   1  19
ATOM     19  C   UNL     1      14.379  12.789  34.092  0.00  0.00    +0.000 C 
BRANCH  19  21
ATOM     20  C   UNL     1      13.288  14.893  33.422  0.00  0.00    +0.000 C 
ATOM     21  C   UNL     1      13.722  14.055  34.607  0.00  0.00    +0.000 C 
ENDBRANCH  19  21
ENDBRANCH   1  19
TORSDOF 2
ENDMDL
MODEL 5
REMARK VINA RESULT:      -6.3      3.277      7.498
REMARK  Name = 
REMARK  2 active torsions:
REMARK  status: ('A' for Active; 'I' for Inactive)
REMARK    1  A    between atoms: C_2  and  C_3
REMARK    2  A    between atoms: C_3  and  N_4
REMARK                            x       y       z     vdW  Elec       q    Type
REMARK                         _______ _______ _______ _____ _____    ______ ____
ROOT
ATOM      1  N   UNL     1      21.379   9.448  38.849  0.00  0.00    +0.000 N 
ATOM      2  C   UNL     1      21.138   9.813  37.523  0.00  0.00    +0.000 C 
ATOM      3  O   UNL     1      21.748   9.583  36.487  0.00  0.00    +0.000 OA
ATOM      4  C   UNL     1      19.798  10.683  37.512  0.00  0.00    +0.000 C 
ATOM      5  C   UNL     1      19.045   9.662  36.397  0.00  0.00    +0.000 C 
ATOM      6  C   UNL     1      17.724  10.312  36.332  0.00  0.00    +0.000 A 
ATOM      7  C   UNL     1      17.055  10.461  37.523  0.00  0.00    +0.000 A 
ATOM      8  N   UNL     1      15.902  11.069  37.216  0.00  0.00    +0.000 NA
ATOM      9  C   UNL     1      15.823  11.304  35.893  0.00  0.00    +0.000 A 
ATOM     10  C   UNL     1      14.892  11.881  35.059  0.00  0.00    +0.000 A 
ATOM     11  C   UNL     1      15.098  11.983  33.698  0.00  0.00    +0.000 A 
ATOM     12  C   UNL     1      16.254  11.506  33.124  0.00  0.00    +0.000 A 
ATOM     13  C   UNL     1      17.186  10.932  33.926  0.00  0.00    +0.000 A 
ATOM     14  C   UNL     1      16.987  10.823  35.311  0.00  0.00    +0.000 A 
ATOM     15  C   UNL     1      17.693   9.958  38.795  0.00  0.00    +0.000 C 
ATOM     16  N   UNL     1      19.124   9.996  38.743  0.00  0.00    +0.000 N 
ATOM     17  C   UNL     1      20.163   9.562  39.570  0.00  0.00    +0.000 C 
ATOM     18  O   UNL     1      20.041   9.302  40.805  0.00  0.00    +0.000 OA
ENDROOT
BRANCH   1  19
ATOM     19  C   UNL     1      22.677   9.031  39.347  0.00  0.00    +0.000 C 
BRANCH  19  21
ATOM     20  C   UNL     1      24.811   9.801  38.389  0.00  0.00    +0.000 C 
ATOM     21  C   UNL     1      23.671  10.176  39.312  0.00  0.00    +0.000 C 
ENDBRANCH  19  21
ENDBRANCH   1  19
TORSDOF 2
ENDMDL
MODEL 6
REMARK VINA RESULT:      -6.0     20.117     22.467
REMARK  Name = 
REMARK  2 active torsions:
REMARK  status: ('A' for Active; 'I' for Inactive)
REMARK    1  A    between atoms: C_2  and  C_3
REMARK    2  A    between atoms: C_3  and  N_4
REMARK                            x       y       z     vdW  Elec       q    Type
REMARK                         _______ _______ _______ _____ _____    ______ ____
ROOT
ATOM      1  N   UNL     1      26.207  24.450  25.964  0.00  0.00    +0.000 N 
ATOM      2  C   UNL     1      26.314  25.650  25.258  0.00  0.00    +0.000 C 
ATOM      3  O   UNL     1      26.124  26.814  25.587  0.00  0.00    +0.000 OA
ATOM      4  C   UNL     1      26.773  25.280  23.772  0.00  0.00    +0.000 C 
ATOM      5  C   UNL     1      28.132  26.281  23.854  0.00  0.00    +0.000 C 
ATOM      6  C   UNL     1      28.723  25.988  22.536  0.00  0.00    +0.000 A 
ATOM      7  C   UNL     1      28.993  24.667  22.266  0.00  0.00    +0.000 A 
ATOM      8  N   UNL     1      29.513  24.651  21.032  0.00  0.00    +0.000 NA
ATOM      9  C   UNL     1      29.580  25.895  20.525  0.00  0.00    +0.000 A 
ATOM     10  C   UNL     1      30.014  26.443  19.338  0.00  0.00    +0.000 A 
ATOM     11  C   UNL     1      29.956  27.801  19.099  0.00  0.00    +0.000 A 
ATOM     12  C   UNL     1      29.455  28.662  20.048  0.00  0.00    +0.000 A 
ATOM     13  C   UNL     1      29.021  28.146  21.226  0.00  0.00    +0.000 A 
ATOM     14  C   UNL     1      29.076  26.766  21.480  0.00  0.00    +0.000 A 
ATOM     15  C   UNL     1      28.680  23.623  23.309  0.00  0.00    +0.000 C 
ATOM     16  N   UNL     1      27.577  23.994  24.145  0.00  0.00    +0.000 N 
ATOM     17  C   UNL     1      26.970  23.465  25.286  0.00  0.00    +0.000 C 
ATOM     18  O   UNL     1      27.080  22.263  25.671  0.00  0.00    +0.000 OA
ENDROOT
BRANCH   1  19
ATOM     19  C   UNL     1      25.431  24.299  27.182  0.00  0.00    +0.000 C 
BRANCH  19  21
ATOM     20  C   UNL     1      26.445  23.180  29.127  0.00  0.00    +0.000 C 
ATOM     21  C   UNL     1      26.295  24.507  28.411  0.00  0.00    +0.000 C 
ENDBRANCH  19  21
ENDBRANCH   1  19
TORSDOF 2
ENDMDL
MODEL 7
REMARK VINA RESULT:      -5.9     18.330     19.771
REMARK  Name = 
REMARK  2 active torsions:
REMARK  status: ('A' for Active; 'I' for Inactive)
REMARK    1  A    between atoms: C_2  and  C_3
REMARK    2  A    between atoms: C_3  and  N_4
REMARK                            x       y       z     vdW  Elec       q    Type
REMARK                         _______ _______ _______ _____ _____    ______ ____
ROOT
ATOM      1  N   UNL     1      34.983   6.712  37.661  0.00  0.00    +0.000 N 
ATOM      2  C   UNL     1      35.121   5.331  37.819  0.00  0.00    +0.000 C 
ATOM      3  O   UNL     1      35.170   4.622  38.816  0.00  0.00    +0.000 OA
ATOM      4  C   UNL     1      35.222   4.700  36.355  0.00  0.00    +0.000 C 
ATOM      5  C   UNL     1      33.912   3.666  36.619  0.00  0.00    +0.000 C 
ATOM      6  C   UNL     1      33.829   3.041  35.287  0.00  0.00    +0.000 A 
ATOM      7  C   UNL     1      33.687   3.893  34.218  0.00  0.00    +0.000 A 
ATOM      8  N   UNL     1      33.638   3.106  33.135  0.00  0.00    +0.000 NA
ATOM      9  C   UNL     1      33.742   1.810  33.480  0.00  0.00    +0.000 A 
ATOM     10  C   UNL     1      33.750   0.616  32.795  0.00  0.00    +0.000 A 
ATOM     11  C   UNL     1      33.875  -0.595  33.444  0.00  0.00    +0.000 A 
ATOM     12  C   UNL     1      33.997  -0.650  34.813  0.00  0.00    +0.000 A 
ATOM     13  C   UNL     1      33.992   0.514  35.511  0.00  0.00    +0.000 A 
ATOM     14  C   UNL     1      33.865   1.752  34.860  0.00  0.00    +0.000 A 
ATOM     15  C   UNL     1      33.621   5.380  34.464  0.00  0.00    +0.000 C 
ATOM     16  N   UNL     1      34.352   5.777  35.631  0.00  0.00    +0.000 N 
ATOM     17  C   UNL     1      34.521   6.965  36.344  0.00  0.00    +0.000 C 
ATOM     18  O   UNL     1      34.294   8.123  35.881  0.00  0.00    +0.000 OA
ENDROOT
BRANCH   1  19
ATOM     19  C   UNL     1      35.279   7.676  38.706  0.00  0.00    +0.000 C 
BRANCH  19  21
ATOM     20  C   UNL     1      36.948   9.344  38.002  0.00  0.00    +0.000 C 
ATOM     21  C   UNL     1      36.754   8.027  38.725  0.00  0.00    +0.000 C 
ENDBRANCH  19  21
ENDBRANCH   1  19
TORSDOF 2
ENDMDL
MODEL 8
REMARK VINA RESULT:      -5.8     19.454     22.011
REMARK  Name = 
REMARK  2 active torsions:
REMARK  status: ('A' for Active; 'I' for Inactive)
REMARK    1  A    between atoms: C_2  and  C_3
REMARK    2  A    between atoms: C_3  and  N_4
REMARK                            x       y       z     vdW  Elec       q    Type
REMARK                         _______ _______ _______ _____ _____    ______ ____
ROOT
ATOM      1  N   UNL     1      33.894  -4.114  35.353  0.00  0.00    +0.000 N 
ATOM      2  C   UNL     1      33.891  -3.140  34.353  0.00  0.00    +0.000 C 
ATOM      3  O   UNL     1      33.547  -3.173  33.179  0.00  0.00    +0.000 OA
ATOM      4  C   UNL     1      34.466  -1.798  35.005  0.00  0.00    +0.000 C 
ATOM      5  C   UNL     1      33.091  -0.908  34.588  0.00  0.00    +0.000 C 
ATOM      6  C   UNL     1      33.447   0.382  35.203  0.00  0.00    +0.000 A 
ATOM      7  C   UNL     1      33.737   0.361  36.547  0.00  0.00    +0.000 A 
ATOM      8  N   UNL     1      34.029   1.627  36.872  0.00  0.00    +0.000 NA
ATOM      9  C   UNL     1      33.933   2.431  35.798  0.00  0.00    +0.000 A 
ATOM     10  C   UNL     1      34.116   3.777  35.566  0.00  0.00    +0.000 A 
ATOM     11  C   UNL     1      33.937   4.331  34.316  0.00  0.00    +0.000 A 
ATOM     12  C   UNL     1      33.568   3.549  33.245  0.00  0.00    +0.000 A 
ATOM     13  C   UNL     1      33.382   2.220  33.448  0.00  0.00    +0.000 A 
ATOM     14  C   UNL     1      33.560   1.646  34.717  0.00  0.00    +0.000 A 
ATOM     15  C   UNL     1      33.672  -0.947  37.295  0.00  0.00    +0.000 C 
ATOM     16  N   UNL     1      33.966  -2.073  36.459  0.00  0.00    +0.000 N 
ATOM     17  C   UNL     1      33.939  -3.461  36.612  0.00  0.00    +0.000 C 
ATOM     18  O   UNL     1      33.954  -4.065  37.726  0.00  0.00    +0.000 OA
ENDROOT
BRANCH   1  19
ATOM     19  C   UNL     1      33.857  -5.541  35.088  0.00  0.00    +0.000 C 
BRANCH  19  21
ATOM     20  C   UNL     1      35.679  -7.128  35.560  0.00  0.00    +0.000 C 
ATOM     21  C   UNL     1      35.206  -6.045  34.612  0.00  0.00    +0.000 C 
ENDBRANCH  19  21
ENDBRANCH   1  19
TORSDOF 2
ENDMDL
MODEL 9
REMARK VINA RESULT:      -5.7     17.968     19.033
REMARK  Name = 
REMARK  2 active torsions:
REMARK  status: ('A' for Active; 'I' for Inactive)
REMARK    1  A    between atoms: C_2  and  C_3
REMARK    2  A    between atoms: C_3  and  N_4
REMARK                            x       y       z     vdW  Elec       q    Type
REMARK                         _______ _______ _______ _____ _____    ______ ____
ROOT
ATOM      1  N   UNL     1      23.422  26.501  27.249  0.00  0.00    +0.000 N 
ATOM      2  C   UNL     1      24.496  25.908  27.916  0.00  0.00    +0.000 C 
ATOM      3  O   UNL     1      24.633  25.531  29.073  0.00  0.00    +0.000 OA
ATOM      4  C   UNL     1      25.683  25.762  26.856  0.00  0.00    +0.000 C 
ATOM      5  C   UNL     1      25.810  24.096  27.103  0.00  0.00    +0.000 C 
ATOM      6  C   UNL     1      26.854  23.786  26.111  0.00  0.00    +0.000 A 
ATOM      7  C   UNL     1      26.596  24.160  24.814  0.00  0.00    +0.000 A 
ATOM      8  N   UNL     1      27.671  23.783  24.110  0.00  0.00    +0.000 NA
ATOM      9  C   UNL     1      28.581  23.194  24.905  0.00  0.00    +0.000 A 
ATOM     10  C   UNL     1      29.826  22.635  24.717  0.00  0.00    +0.000 A 
ATOM     11  C   UNL     1      30.544  22.089  25.761  0.00  0.00    +0.000 A 
ATOM     12  C   UNL     1      30.035  22.085  27.039  0.00  0.00    +0.000 A 
ATOM     13  C   UNL     1      28.810  22.630  27.250  0.00  0.00    +0.000 A 
ATOM     14  C   UNL     1      28.070  23.187  26.195  0.00  0.00    +0.000 A 
ATOM     15  C   UNL     1      25.291  24.844  24.489  0.00  0.00    +0.000 C 
ATOM     16  N   UNL     1      24.780  25.604  25.591  0.00  0.00    +0.000 N 
ATOM     17  C   UNL     1      23.604  26.311  25.855  0.00  0.00    +0.000 C 
ATOM     18  O   UNL     1      22.802  26.731  24.969  0.00  0.00    +0.000 OA
ENDROOT
BRANCH   1  19
ATOM     19  C   UNL     1      22.331  27.182  27.922  0.00  0.00    +0.000 C 
BRANCH  19  21
ATOM     20  C   UNL     1      19.966  26.884  27.303  0.00  0.00    +0.000 C 
ATOM     21  C   UNL     1      21.125  26.275  28.066  0.00  0.00    +0.000 C 
ENDBRANCH  19  21
ENDBRANCH   1  19
TORSDOF 2
ENDMDL
MODEL 10
REMARK VINA RESULT:      -5.6     21.037     22.494
REMARK  Name = 
REMARK  2 active torsions:
REMARK  status: ('A' for Active; 'I' for Inactive)
REMARK    1  A    between atoms: C_2  and  C_3
REMARK    2  A    between atoms: C_3  and  N_4
REMARK                            x       y       z     vdW  Elec       q    Type
REMARK                         _______ _______ _______ _____ _____    ______ ____
ROOT
ATOM      1  N   UNL     1      13.074 -10.019  25.374  0.00  0.00    +0.000 N 
ATOM      2  C   UNL     1      13.594  -8.731  25.518  0.00  0.00    +0.000 C 
ATOM      3  O   UNL     1      13.114  -7.701  25.972  0.00  0.00    +0.000 OA
ATOM      4  C   UNL     1      15.085  -8.761  24.944  0.00  0.00    +0.000 C 
ATOM      5  C   UNL     1      15.743  -8.188  26.390  0.00  0.00    +0.000 C 
ATOM      6  C   UNL     1      17.172  -8.227  26.035  0.00  0.00    +0.000 A 
ATOM      7  C   UNL     1      17.666  -9.439  25.615  0.00  0.00    +0.000 A 
ATOM      8  N   UNL     1      18.962  -9.228  25.350  0.00  0.00    +0.000 NA
ATOM      9  C   UNL     1      19.295  -7.946  25.586  0.00  0.00    +0.000 A 
ATOM     10  C   UNL     1      20.452  -7.205  25.488  0.00  0.00    +0.000 A 
ATOM     11  C   UNL     1      20.487  -5.864  25.812  0.00  0.00    +0.000 A 
ATOM     12  C   UNL     1      19.354  -5.216  26.248  0.00  0.00    +0.000 A 
ATOM     13  C   UNL     1      18.202  -5.925  26.353  0.00  0.00    +0.000 A 
ATOM     14  C   UNL     1      18.155  -7.290  26.027  0.00  0.00    +0.000 A 
ATOM     15  C   UNL     1      16.741 -10.629  25.549  0.00  0.00    +0.000 C 
ATOM     16  N   UNL     1      15.383 -10.256  25.286  0.00  0.00    +0.000 N 
ATOM     17  C   UNL     1      14.157 -10.924  25.236  0.00  0.00    +0.000 C 
ATOM     18  O   UNL     1      14.024 -12.176  25.086  0.00  0.00    +0.000 OA
ENDROOT
BRANCH   1  19
ATOM     19  C   UNL     1      11.653 -10.319  25.373  0.00  0.00    +0.000 C 
BRANCH  19  21
ATOM     20  C   UNL     1      10.588  -9.594  27.471  0.00  0.00    +0.000 C 
ATOM     21  C   UNL     1      11.190 -10.777  26.742  0.00  0.00    +0.000 C 
ENDBRANCH  19  21
ENDBRANCH   1  19
TORSDOF 2
ENDMDL
