MODEL 1
REMARK VINA RESULT:      -8.4      0.000      0.000
REMARK  Name = 
REMARK  6 active torsions:
REMARK  status: ('A' for Active; 'I' for Inactive)
REMARK    1  A    between atoms: O_2  and  C_3
REMARK    2  A    between atoms: C_6  and  C_7
REMARK    3  A    between atoms: C_9  and  C_10
REMARK    4  A    between atoms: N_13  and  C_14
REMARK    5  A    between atoms: C_14  and  C_15
REMARK    6  A    between atoms: C_15  and  C_16
REMARK                            x       y       z     vdW  Elec       q    Type
REMARK                         _______ _______ _______ _____ _____    ______ ____
ROOT
ATOM      1  C   UNL     1      38.698   3.442  14.198  0.00  0.00    +0.000 C 
ATOM      2  C   UNL     1      37.481   2.820  13.588  0.00  0.00    +0.000 C 
ATOM      3  C   UNL     1      37.528   1.358  13.405  0.00  0.00    +0.000 C 
ATOM      4  N   UNL     1      38.750   0.699  13.548  0.00  0.00    +0.000 NA
ATOM      5  C   UNL     1      39.774   1.267  14.329  0.00  0.00    +0.000 C 
ATOM      6  C   UNL     1      39.961   2.704  13.946  0.00  0.00    +0.000 C 
ENDROOT
BRANCH   1   9
ATOM      7  C   UNL     1      38.498   5.077  17.471  0.00  0.00    +0.000 A 
ATOM      8  C   UNL     1      38.868   5.041  16.145  0.00  0.00    +0.000 A 
ATOM      9  C   UNL     1      38.460   3.815  15.601  0.00  0.00    +0.000 A 
ATOM     10  N   UNL     1      37.869   3.169  16.602  0.00  0.00    +0.000 NA
ATOM     11  N   UNL     1      37.886   3.904  17.707  0.00  0.00    +0.000 NA
BRANCH   7  15
ATOM     12  C   UNL     1      39.179   8.269  20.226  0.00  0.00    +0.000 A 
ATOM     13  C   UNL     1      39.962   7.136  20.244  0.00  0.00    +0.000 A 
ATOM     14  C   UNL     1      39.738   6.105  19.350  0.00  0.00    +0.000 A 
ATOM     15  C   UNL     1      38.730   6.168  18.411  0.00  0.00    +0.000 A 
ATOM     16  C   UNL     1      37.960   7.309  18.411  0.00  0.00    +0.000 A 
ATOM     17  C   UNL     1      38.165   8.350  19.293  0.00  0.00    +0.000 A 
BRANCH  12  19
ATOM     18  C   UNL     1      38.609  10.494  20.990  0.00  0.00    +0.000 C 
ATOM     19  O   UNL     1      39.377   9.320  21.109  0.00  0.00    +0.000 OA
ENDBRANCH  12  19
ENDBRANCH   7  15
ENDBRANCH   1   9
BRANCH   4  20
ATOM     20  C   UNL     1      39.110  -0.286  12.587  0.00  0.00    +0.000 C 
BRANCH  20  21
ATOM     21  C   UNL     1      38.261  -1.526  12.809  0.00  0.00    +0.000 C 
BRANCH  21  22
ATOM     22  C   UNL     1      38.688  -2.153  14.077  0.00  0.00    +0.000 A 
ATOM     23  C   UNL     1      39.992  -2.509  14.341  0.00  0.00    +0.000 A 
ATOM     24  C   UNL     1      40.291  -3.096  15.565  0.00  0.00    +0.000 A 
ATOM     25  C   UNL     1      39.329  -3.329  16.512  0.00  0.00    +0.000 A 
ATOM     26  C   UNL     1      38.023  -2.973  16.251  0.00  0.00    +0.000 A 
ATOM     27  C   UNL     1      37.036  -3.203  17.203  0.00  0.00    +0.000 A 
ATOM     28  C   UNL     1      35.733  -2.849  16.941  0.00  0.00    +0.000 A 
ATOM     29  C   UNL     1      35.453  -2.271  15.730  0.00  0.00    +0.000 A 
ATOM     30  C   UNL     1      36.414  -2.033  14.774  0.00  0.00    +0.000 A 
ATOM     31  C   UNL     1      37.719  -2.394  15.046  0.00  0.00    +0.000 A 
ENDBRANCH  21  22
ENDBRANCH  20  21
ENDBRANCH   4  20
TORSDOF 6
ENDMDL
MODEL 2
REMARK VINA RESULT:      -8.4      1.774      2.448
REMARK  Name = 
REMARK  6 active torsions:
REMARK  status: ('A' for Active; 'I' for Inactive)
REMARK    1  A    between atoms: O_2  and  C_3
REMARK    2  A    between atoms: C_6  and  C_7
REMARK    3  A    between atoms: C_9  and  C_10
REMARK    4  A    between atoms: N_13  and  C_14
REMARK    5  A    between atoms: C_14  and  C_15
REMARK    6  A    between atoms: C_15  and  C_16
REMARK                            x       y       z     vdW  Elec       q    Type
REMARK                         _______ _______ _______ _____ _____    ______ ____
ROOT
ATOM      1  C   UNL     1      38.405   2.510  13.387  0.00  0.00    +0.000 C 
ATOM      2  C   UNL     1      37.061   2.060  12.907  0.00  0.00    +0.000 C 
ATOM      3  C   UNL     1      36.614   0.740  13.388  0.00  0.00    +0.000 C 
ATOM      4  N   UNL     1      37.539  -0.100  14.012  0.00  0.00    +0.000 NA
ATOM      5  C   UNL     1      38.681   0.441  14.633  0.00  0.00    +0.000 C 
ATOM      6  C   UNL     1      39.349   1.408  13.702  0.00  0.00    +0.000 C 
ENDROOT
BRANCH   1   9
ATOM      7  C   UNL     1      38.885   4.866  16.152  0.00  0.00    +0.000 A 
ATOM      8  C   UNL     1      39.319   3.864  15.313  0.00  0.00    +0.000 A 
ATOM      9  C   UNL     1      38.282   3.545  14.425  0.00  0.00    +0.000 A 
ATOM     10  N   UNL     1      37.279   4.353  14.756  0.00  0.00    +0.000 NA
ATOM     11  N   UNL     1      37.625   5.135  15.772  0.00  0.00    +0.000 NA
BRANCH   7  15
ATOM     12  C   UNL     1      41.113   6.706  19.297  0.00  0.00    +0.000 A 
ATOM     13  C   UNL     1      39.865   6.173  19.530  0.00  0.00    +0.000 A 
ATOM     14  C   UNL     1      39.148   5.578  18.508  0.00  0.00    +0.000 A 
ATOM     15  C   UNL     1      39.647   5.494  17.225  0.00  0.00    +0.000 A 
ATOM     16  C   UNL     1      40.897   6.033  17.016  0.00  0.00    +0.000 A 
ATOM     17  C   UNL     1      41.631   6.632  18.020  0.00  0.00    +0.000 A 
BRANCH  12  19
ATOM     18  C   UNL     1      42.788   6.553  21.038  0.00  0.00    +0.000 C 
ATOM     19  O   UNL     1      41.859   7.309  20.299  0.00  0.00    +0.000 OA
ENDBRANCH  12  19
ENDBRANCH   7  15
ENDBRANCH   1   9
BRANCH   4  20
ATOM     20  C   UNL     1      37.562  -1.475  13.652  0.00  0.00    +0.000 C 
BRANCH  20  21
ATOM     21  C   UNL     1      36.632  -2.244  14.575  0.00  0.00    +0.000 C 
BRANCH  21  22
ATOM     22  C   UNL     1      37.328  -2.446  15.861  0.00  0.00    +0.000 A 
ATOM     23  C   UNL     1      38.461  -3.218  15.993  0.00  0.00    +0.000 A 
ATOM     24  C   UNL     1      39.040  -3.347  17.250  0.00  0.00    +0.000 A 
ATOM     25  C   UNL     1      38.518  -2.731  18.357  0.00  0.00    +0.000 A 
ATOM     26  C   UNL     1      37.385  -1.958  18.228  0.00  0.00    +0.000 A 
ATOM     27  C   UNL     1      36.844  -1.326  19.342  0.00  0.00    +0.000 A 
ATOM     28  C   UNL     1      35.711  -0.555  19.213  0.00  0.00    +0.000 A 
ATOM     29  C   UNL     1      35.151  -0.436  17.968  0.00  0.00    +0.000 A 
ATOM     30  C   UNL     1      35.670  -1.051  16.852  0.00  0.00    +0.000 A 
ATOM     31  C   UNL     1      36.806  -1.824  16.992  0.00  0.00    +0.000 A 
ENDBRANCH  21  22
ENDBRANCH  20  21
ENDBRANCH   4  20
TORSDOF 6
ENDMDL
MODEL 3
REMARK VINA RESULT:      -8.3      3.552      8.794
REMARK  Name = 
REMARK  6 active torsions:
REMARK  status: ('A' for Active; 'I' for Inactive)
REMARK    1  A    between atoms: O_2  and  C_3
REMARK    2  A    between atoms: C_6  and  C_7
REMARK    3  A    between atoms: C_9  and  C_10
REMARK    4  A    between atoms: N_13  and  C_14
REMARK    5  A    between atoms: C_14  and  C_15
REMARK    6  A    between atoms: C_15  and  C_16
REMARK                            x       y       z     vdW  Elec       q    Type
REMARK                         _______ _______ _______ _____ _____    ______ ____
ROOT
ATOM      1  C   UNL     1      35.734   1.768  14.963  0.00  0.00    +0.000 C 
ATOM      2  C   UNL     1      36.970   1.612  14.134  0.00  0.00    +0.000 C 
ATOM      3  C   UNL     1      37.989   2.666  14.290  0.00  0.00    +0.000 C 
ATOM      4  N   UNL     1      37.646   3.841  14.962  0.00  0.00    +0.000 NA
ATOM      5  C   UNL     1      36.594   3.841  15.897  0.00  0.00    +0.000 C 
ATOM      6  C   UNL     1      35.391   3.173  15.301  0.00  0.00    +0.000 C 
ENDROOT
BRANCH   1   9
ATOM      7  C   UNL     1      36.439  -0.831  17.448  0.00  0.00    +0.000 A 
ATOM      8  C   UNL     1      36.739  -0.118  16.308  0.00  0.00    +0.000 A 
ATOM      9  C   UNL     1      35.730   0.833  16.098  0.00  0.00    +0.000 A 
ATOM     10  N   UNL     1      34.874   0.660  17.100  0.00  0.00    +0.000 NA
ATOM     11  N   UNL     1      35.283  -0.318  17.900  0.00  0.00    +0.000 NA
BRANCH   7  15
ATOM     12  C   UNL     1      38.732  -4.011  19.143  0.00  0.00    +0.000 A 
ATOM     13  C   UNL     1      38.520  -3.934  17.785  0.00  0.00    +0.000 A 
ATOM     14  C   UNL     1      37.778  -2.903  17.240  0.00  0.00    +0.000 A 
ATOM     15  C   UNL     1      37.222  -1.916  18.028  0.00  0.00    +0.000 A 
ATOM     16  C   UNL     1      37.447  -2.012  19.383  0.00  0.00    +0.000 A 
ATOM     17  C   UNL     1      38.185  -3.032  19.948  0.00  0.00    +0.000 A 
BRANCH  12  19
ATOM     18  C   UNL     1      38.832  -6.008  20.507  0.00  0.00    +0.000 C 
ATOM     19  O   UNL     1      39.472  -5.031  19.721  0.00  0.00    +0.000 OA
ENDBRANCH  12  19
ENDBRANCH   7  15
ENDBRANCH   1   9
BRANCH   4  20
ATOM     20  C   UNL     1      38.046   5.086  14.404  0.00  0.00    +0.000 C 
BRANCH  20  21
ATOM     21  C   UNL     1      38.212   6.099  15.523  0.00  0.00    +0.000 C 
BRANCH  21  22
ATOM     22  C   UNL     1      39.652   6.211  15.830  0.00  0.00    +0.000 A 
ATOM     23  C   UNL     1      40.630   6.245  14.860  0.00  0.00    +0.000 A 
ATOM     24  C   UNL     1      41.959   6.350  15.254  0.00  0.00    +0.000 A 
ATOM     25  C   UNL     1      42.322   6.421  16.572  0.00  0.00    +0.000 A 
ATOM     26  C   UNL     1      41.347   6.389  17.545  0.00  0.00    +0.000 A 
ATOM     27  C   UNL     1      41.700   6.462  18.888  0.00  0.00    +0.000 A 
ATOM     28  C   UNL     1      40.725   6.429  19.858  0.00  0.00    +0.000 A 
ATOM     29  C   UNL     1      39.419   6.324  19.456  0.00  0.00    +0.000 A 
ATOM     30  C   UNL     1      39.046   6.252  18.133  0.00  0.00    +0.000 A 
ATOM     31  C   UNL     1      40.033   6.285  17.167  0.00  0.00    +0.000 A 
ENDBRANCH  21  22
ENDBRANCH  20  21
ENDBRANCH   4  20
TORSDOF 6
ENDMDL
MODEL 4
REMARK VINA RESULT:      -8.2     25.712     29.534
REMARK  Name = 
REMARK  6 active torsions:
REMARK  status: ('A' for Active; 'I' for Inactive)
REMARK    1  A    between atoms: O_2  and  C_3
REMARK    2  A    between atoms: C_6  and  C_7
REMARK    3  A    between atoms: C_9  and  C_10
REMARK    4  A    between atoms: N_13  and  C_14
REMARK    5  A    between atoms: C_14  and  C_15
REMARK    6  A    between atoms: C_15  and  C_16
REMARK                            x       y       z     vdW  Elec       q    Type
REMARK                         _______ _______ _______ _____ _____    ______ ____
ROOT
ATOM      1  C   UNL     1      26.678  14.661  39.711  0.00  0.00    +0.000 C 
ATOM      2  C   UNL     1      26.633  16.035  40.302  0.00  0.00    +0.000 C 
ATOM      3  C   UNL     1      25.518  16.890  39.857  0.00  0.00    +0.000 C 
ATOM      4  N   UNL     1      24.759  16.492  38.755  0.00  0.00    +0.000 NA
ATOM      5  C   UNL     1      24.687  15.131  38.399  0.00  0.00    +0.000 C 
ATOM      6  C   UNL     1      26.067  14.547  38.363  0.00  0.00    +0.000 C 
ENDROOT
BRANCH   1   9
ATOM      7  C   UNL     1      26.274  11.728  41.870  0.00  0.00    +0.000 A 
ATOM      8  C   UNL     1      26.941  12.452  40.907  0.00  0.00    +0.000 A 
ATOM      9  C   UNL     1      26.242  13.647  40.683  0.00  0.00    +0.000 A 
ATOM     10  N   UNL     1      25.198  13.599  41.505  0.00  0.00    +0.000 NA
ATOM     11  N   UNL     1      25.208  12.473  42.208  0.00  0.00    +0.000 NA
BRANCH   7  15
ATOM     12  C   UNL     1      27.395   7.909  43.419  0.00  0.00    +0.000 A 
ATOM     13  C   UNL     1      27.430   8.164  42.067  0.00  0.00    +0.000 A 
ATOM     14  C   UNL     1      27.067   9.402  41.570  0.00  0.00    +0.000 A 
ATOM     15  C   UNL     1      26.657  10.424  42.400  0.00  0.00    +0.000 A 
ATOM     16  C   UNL     1      26.629  10.147  43.748  0.00  0.00    +0.000 A 
ATOM     17  C   UNL     1      26.987   8.919  44.267  0.00  0.00    +0.000 A 
BRANCH  12  19
ATOM     18  C   UNL     1      28.506   6.616  45.138  0.00  0.00    +0.000 C 
ATOM     19  O   UNL     1      27.752   6.679  43.951  0.00  0.00    +0.000 OA
ENDBRANCH  12  19
ENDBRANCH   7  15
ENDBRANCH   1   9
BRANCH   4  20
ATOM     20  C   UNL     1      24.432  17.460  37.767  0.00  0.00    +0.000 C 
BRANCH  20  21
ATOM     21  C   UNL     1      25.633  17.667  36.861  0.00  0.00    +0.000 C 
BRANCH  21  22
ATOM     22  C   UNL     1      25.139  17.880  35.485  0.00  0.00    +0.000 A 
ATOM     23  C   UNL     1      24.591  19.069  35.057  0.00  0.00    +0.000 A 
ATOM     24  C   UNL     1      24.153  19.168  33.741  0.00  0.00    +0.000 A 
ATOM     25  C   UNL     1      24.250  18.121  32.863  0.00  0.00    +0.000 A 
ATOM     26  C   UNL     1      24.799  16.931  33.289  0.00  0.00    +0.000 A 
ATOM     27  C   UNL     1      24.904  15.859  32.409  0.00  0.00    +0.000 A 
ATOM     28  C   UNL     1      25.452  14.671  32.835  0.00  0.00    +0.000 A 
ATOM     29  C   UNL     1      25.879  14.588  34.135  0.00  0.00    +0.000 A 
ATOM     30  C   UNL     1      25.785  15.635  35.022  0.00  0.00    +0.000 A 
ATOM     31  C   UNL     1      25.234  16.823  34.585  0.00  0.00    +0.000 A 
ENDBRANCH  21  22
ENDBRANCH  20  21
ENDBRANCH   4  20
TORSDOF 6
ENDMDL
MODEL 5
REMARK VINA RESULT:      -8.2     26.061     31.281
REMARK  Name = 
REMARK  6 active torsions:
REMARK  status: ('A' for Active; 'I' for Inactive)
REMARK    1  A    between atoms: O_2  and  C_3
REMARK    2  A    between atoms: C_6  and  C_7
REMARK    3  A    between atoms: C_9  and  C_10
REMARK    4  A    between atoms: N_13  and  C_14
REMARK    5  A    between atoms: C_14  and  C_15
REMARK    6  A    between atoms: C_15  and  C_16
REMARK                            x       y       z     vdW  Elec       q    Type
REMARK                         _______ _______ _______ _____ _____    ______ ____
ROOT
ATOM      1  C   UNL     1      24.350  15.958  40.990  0.00  0.00    +0.000 C 
ATOM      2  C   UNL     1      23.710  16.524  39.761  0.00  0.00    +0.000 C 
ATOM      3  C   UNL     1      24.103  15.899  38.485  0.00  0.00    +0.000 C 
ATOM      4  N   UNL     1      25.204  15.040  38.464  0.00  0.00    +0.000 NA
ATOM      5  C   UNL     1      25.606  14.376  39.638  0.00  0.00    +0.000 C 
ATOM      6  C   UNL     1      25.689  15.358  40.768  0.00  0.00    +0.000 C 
ENDROOT
BRANCH   1   9
ATOM      7  C   UNL     1      21.425  14.271  42.413  0.00  0.00    +0.000 A 
ATOM      8  C   UNL     1      22.018  15.171  41.556  0.00  0.00    +0.000 A 
ATOM      9  C   UNL     1      23.406  15.121  41.746  0.00  0.00    +0.000 A 
ATOM     10  N   UNL     1      23.595  14.208  42.695  0.00  0.00    +0.000 NA
ATOM     11  N   UNL     1      22.434  13.702  43.094  0.00  0.00    +0.000 NA
BRANCH   7  15
ATOM     12  C   UNL     1      17.244  13.490  42.800  0.00  0.00    +0.000 A 
ATOM     13  C   UNL     1      17.801  14.642  43.310  0.00  0.00    +0.000 A 
ATOM     14  C   UNL     1      19.155  14.890  43.182  0.00  0.00    +0.000 A 
ATOM     15  C   UNL     1      19.997  14.004  42.544  0.00  0.00    +0.000 A 
ATOM     16  C   UNL     1      19.419  12.860  42.042  0.00  0.00    +0.000 A 
ATOM     17  C   UNL     1      18.070  12.591  42.158  0.00  0.00    +0.000 A 
BRANCH  12  19
ATOM     18  C   UNL     1      15.336  12.122  42.212  0.00  0.00    +0.000 C 
ATOM     19  O   UNL     1      15.890  13.211  42.912  0.00  0.00    +0.000 OA
ENDBRANCH  12  19
ENDBRANCH   7  15
ENDBRANCH   1   9
BRANCH   4  20
ATOM     20  C   UNL     1      26.151  15.172  37.412  0.00  0.00    +0.000 C 
BRANCH  20  21
ATOM     21  C   UNL     1      25.860  16.448  36.642  0.00  0.00    +0.000 C 
BRANCH  21  22
ATOM     22  C   UNL     1      25.601  16.085  35.234  0.00  0.00    +0.000 A 
ATOM     23  C   UNL     1      25.828  14.825  34.726  0.00  0.00    +0.000 A 
ATOM     24  C   UNL     1      25.553  14.585  33.384  0.00  0.00    +0.000 A 
ATOM     25  C   UNL     1      25.064  15.562  32.558  0.00  0.00    +0.000 A 
ATOM     26  C   UNL     1      24.834  16.823  33.063  0.00  0.00    +0.000 A 
ATOM     27  C   UNL     1      24.338  17.824  32.236  0.00  0.00    +0.000 A 
ATOM     28  C   UNL     1      24.109  19.083  32.742  0.00  0.00    +0.000 A 
ATOM     29  C   UNL     1      24.385  19.306  34.066  0.00  0.00    +0.000 A 
ATOM     30  C   UNL     1      24.876  18.330  34.903  0.00  0.00    +0.000 A 
ATOM     31  C   UNL     1      25.103  17.070  34.385  0.00  0.00    +0.000 A 
ENDBRANCH  21  22
ENDBRANCH  20  21
ENDBRANCH   4  20
TORSDOF 6
ENDMDL
MODEL 6
REMARK VINA RESULT:      -8.2      2.334      3.213
REMARK  Name = 
REMARK  6 active torsions:
REMARK  status: ('A' for Active; 'I' for Inactive)
REMARK    1  A    between atoms: O_2  and  C_3
REMARK    2  A    between atoms: C_6  and  C_7
REMARK    3  A    between atoms: C_9  and  C_10
REMARK    4  A    between atoms: N_13  and  C_14
REMARK    5  A    between atoms: C_14  and  C_15
REMARK    6  A    between atoms: C_15  and  C_16
REMARK                            x       y       z     vdW  Elec       q    Type
REMARK                         _______ _______ _______ _____ _____    ______ ____
ROOT
ATOM      1  C   UNL     1      35.893   3.015  14.791  0.00  0.00    +0.000 C 
ATOM      2  C   UNL     1      35.017   2.831  15.990  0.00  0.00    +0.000 C 
ATOM      3  C   UNL     1      35.216   1.583  16.749  0.00  0.00    +0.000 C 
ATOM      4  N   UNL     1      35.982   0.563  16.181  0.00  0.00    +0.000 NA
ATOM      5  C   UNL     1      36.947   0.863  15.201  0.00  0.00    +0.000 C 
ATOM      6  C   UNL     1      36.342   1.751  14.155  0.00  0.00    +0.000 C 
ENDROOT
BRANCH   1   9
ATOM      7  C   UNL     1      38.496   5.160  16.223  0.00  0.00    +0.000 A 
ATOM      8  C   UNL     1      37.542   4.172  16.316  0.00  0.00    +0.000 A 
ATOM      9  C   UNL     1      36.957   3.996  15.053  0.00  0.00    +0.000 A 
ATOM     10  N   UNL     1      37.571   4.870  14.261  0.00  0.00    +0.000 NA
ATOM     11  N   UNL     1      38.478   5.560  14.941  0.00  0.00    +0.000 NA
BRANCH   7  15
ATOM     12  C   UNL     1      40.967   6.620  19.387  0.00  0.00    +0.000 A 
ATOM     13  C   UNL     1      39.633   6.351  19.595  0.00  0.00    +0.000 A 
ATOM     14  C   UNL     1      38.837   5.877  18.568  0.00  0.00    +0.000 A 
ATOM     15  C   UNL     1      39.341   5.658  17.303  0.00  0.00    +0.000 A 
ATOM     16  C   UNL     1      40.677   5.934  17.117  0.00  0.00    +0.000 A 
ATOM     17  C   UNL     1      41.490   6.407  18.127  0.00  0.00    +0.000 A 
BRANCH  12  19
ATOM     18  C   UNL     1      42.960   6.390  20.740  0.00  0.00    +0.000 C 
ATOM     19  O   UNL     1      41.792   7.095  20.394  0.00  0.00    +0.000 OA
ENDBRANCH  12  19
ENDBRANCH   7  15
ENDBRANCH   1   9
BRANCH   4  20
ATOM     20  C   UNL     1      35.502  -0.773  16.261  0.00  0.00    +0.000 C 
BRANCH  20  21
ATOM     21  C   UNL     1      36.150  -1.598  15.163  0.00  0.00    +0.000 C 
BRANCH  21  22
ATOM     22  C   UNL     1      36.591  -2.879  15.750  0.00  0.00    +0.000 A 
ATOM     23  C   UNL     1      37.782  -3.029  16.426  0.00  0.00    +0.000 A 
ATOM     24  C   UNL     1      38.107  -4.279  16.940  0.00  0.00    +0.000 A 
ATOM     25  C   UNL     1      37.280  -5.361  16.795  0.00  0.00    +0.000 A 
ATOM     26  C   UNL     1      36.088  -5.214  16.120  0.00  0.00    +0.000 A 
ATOM     27  C   UNL     1      35.237  -6.303  15.964  0.00  0.00    +0.000 A 
ATOM     28  C   UNL     1      34.047  -6.155  15.289  0.00  0.00    +0.000 A 
ATOM     29  C   UNL     1      33.740  -4.918  14.788  0.00  0.00    +0.000 A 
ATOM     30  C   UNL     1      34.566  -3.826  14.930  0.00  0.00    +0.000 A 
ATOM     31  C   UNL     1      35.758  -3.985  15.608  0.00  0.00    +0.000 A 
ENDBRANCH  21  22
ENDBRANCH  20  21
ENDBRANCH   4  20
TORSDOF 6
ENDMDL
MODEL 7
REMARK VINA RESULT:      -8.2     24.531     27.484
REMARK  Name = 
REMARK  6 active torsions:
REMARK  status: ('A' for Active; 'I' for Inactive)
REMARK    1  A    between atoms: O_2  and  C_3
REMARK    2  A    between atoms: C_6  and  C_7
REMARK    3  A    between atoms: C_9  and  C_10
REMARK    4  A    between atoms: N_13  and  C_14
REMARK    5  A    between atoms: C_14  and  C_15
REMARK    6  A    between atoms: C_15  and  C_16
REMARK                            x       y       z     vdW  Elec       q    Type
REMARK                         _______ _______ _______ _____ _____    ______ ____
ROOT
ATOM      1  C   UNL     1      13.543   0.048  27.167  0.00  0.00    +0.000 C 
ATOM      2  C   UNL     1      13.049  -0.117  28.569  0.00  0.00    +0.000 C 
ATOM      3  C   UNL     1      12.524  -1.451  28.914  0.00  0.00    +0.000 C 
ATOM      4  N   UNL     1      12.272  -2.364  27.887  0.00  0.00    +0.000 NA
ATOM      5  C   UNL     1      12.953  -2.255  26.660  0.00  0.00    +0.000 C 
ATOM      6  C   UNL     1      12.888  -0.839  26.172  0.00  0.00    +0.000 C 
ENDROOT
BRANCH   1   9
ATOM      7  C   UNL     1      17.083  -0.034  26.225  0.00  0.00    +0.000 A 
ATOM      8  C   UNL     1      15.740  -0.102  25.930  0.00  0.00    +0.000 A 
ATOM      9  C   UNL     1      15.013   0.067  27.117  0.00  0.00    +0.000 A 
ATOM     10  N   UNL     1      15.929   0.227  28.067  0.00  0.00    +0.000 NA
ATOM     11  N   UNL     1      17.152   0.169  27.552  0.00  0.00    +0.000 NA
BRANCH   7  15
ATOM     12  C   UNL     1      20.322  -0.398  23.465  0.00  0.00    +0.000 A 
ATOM     13  C   UNL     1      19.931   0.833  23.943  0.00  0.00    +0.000 A 
ATOM     14  C   UNL     1      18.883   0.946  24.837  0.00  0.00    +0.000 A 
ATOM     15  C   UNL     1      18.189  -0.160  25.283  0.00  0.00    +0.000 A 
ATOM     16  C   UNL     1      18.597  -1.380  24.793  0.00  0.00    +0.000 A 
ATOM     17  C   UNL     1      19.640  -1.516  23.900  0.00  0.00    +0.000 A 
BRANCH  12  19
ATOM     18  C   UNL     1      21.162  -1.215  21.347  0.00  0.00    +0.000 C 
ATOM     19  O   UNL     1      21.369  -0.546  22.568  0.00  0.00    +0.000 OA
ENDBRANCH  12  19
ENDBRANCH   7  15
ENDBRANCH   1   9
BRANCH   4  20
ATOM     20  C   UNL     1      11.057  -3.102  27.915  0.00  0.00    +0.000 C 
BRANCH  20  21
ATOM     21  C   UNL     1       9.892  -2.134  28.014  0.00  0.00    +0.000 C 
BRANCH  21  22
ATOM     22  C   UNL     1       9.551  -1.684  26.649  0.00  0.00    +0.000 A 
ATOM     23  C   UNL     1       9.317  -2.552  25.605  0.00  0.00    +0.000 A 
ATOM     24  C   UNL     1       9.005  -2.028  24.356  0.00  0.00    +0.000 A 
ATOM     25  C   UNL     1       8.925  -0.679  24.134  0.00  0.00    +0.000 A 
ATOM     26  C   UNL     1       9.159   0.192  25.176  0.00  0.00    +0.000 A 
ATOM     27  C   UNL     1       9.081   1.564  24.966  0.00  0.00    +0.000 A 
ATOM     28  C   UNL     1       9.315   2.433  26.008  0.00  0.00    +0.000 A 
ATOM     29  C   UNL     1       9.621   1.903  27.234  0.00  0.00    +0.000 A 
ATOM     30  C   UNL     1       9.703   0.548  27.464  0.00  0.00    +0.000 A 
ATOM     31  C   UNL     1       9.467  -0.315  26.412  0.00  0.00    +0.000 A 
ENDBRANCH  21  22
ENDBRANCH  20  21
ENDBRANCH   4  20
TORSDOF 6
ENDMDL
MODEL 8
REMARK VINA RESULT:      -8.2      1.955      2.384
REMARK  Name = 
REMARK  6 active torsions:
REMARK  status: ('A' for Active; 'I' for Inactive)
REMARK    1  A    between atoms: O_2  and  C_3
REMARK    2  A    between atoms: C_6  and  C_7
REMARK    3  A    between atoms: C_9  and  C_10
REMARK    4  A    between atoms: N_13  and  C_14
REMARK    5  A    between atoms: C_14  and  C_15
REMARK    6  A    between atoms: C_15  and  C_16
REMARK                            x       y       z     vdW  Elec       q    Type
REMARK                         _______ _______ _______ _____ _____    ______ ____
ROOT
ATOM      1  C   UNL     1      37.860   3.707  14.949  0.00  0.00    +0.000 C 
ATOM      2  C   UNL     1      36.442   3.234  15.007  0.00  0.00    +0.000 C 
ATOM      3  C   UNL     1      36.248   1.773  14.970  0.00  0.00    +0.000 C 
ATOM      4  N   UNL     1      37.326   0.958  14.621  0.00  0.00    +0.000 NA
ATOM      5  C   UNL     1      38.646   1.411  14.806  0.00  0.00    +0.000 C 
ATOM      6  C   UNL     1      38.788   2.792  14.239  0.00  0.00    +0.000 C 
ENDROOT
BRANCH   1   9
ATOM      7  C   UNL     1      39.597   5.254  17.781  0.00  0.00    +0.000 A 
ATOM      8  C   UNL     1      39.430   5.013  16.436  0.00  0.00    +0.000 A 
ATOM      9  C   UNL     1      38.323   4.169  16.267  0.00  0.00    +0.000 A 
ATOM     10  N   UNL     1      37.872   3.935  17.496  0.00  0.00    +0.000 NA
ATOM     11  N   UNL     1      38.616   4.570  18.394  0.00  0.00    +0.000 NA
BRANCH   7  15
ATOM     12  C   UNL     1      42.623   7.671  19.581  0.00  0.00    +0.000 A 
ATOM     13  C   UNL     1      42.697   7.312  18.254  0.00  0.00    +0.000 A 
ATOM     14  C   UNL     1      41.715   6.530  17.675  0.00  0.00    +0.000 A 
ATOM     15  C   UNL     1      40.629   6.080  18.397  0.00  0.00    +0.000 A 
ATOM     16  C   UNL     1      40.575   6.451  19.722  0.00  0.00    +0.000 A 
ATOM     17  C   UNL     1      41.543   7.231  20.320  0.00  0.00    +0.000 A 
BRANCH  12  19
ATOM     18  C   UNL     1      43.616   9.845  19.969  0.00  0.00    +0.000 C 
ATOM     19  O   UNL     1      43.591   8.455  20.192  0.00  0.00    +0.000 OA
ENDBRANCH  12  19
ENDBRANCH   7  15
ENDBRANCH   1   9
BRANCH   4  20
ATOM     20  C   UNL     1      37.107  -0.107  13.705  0.00  0.00    +0.000 C 
BRANCH  20  21
ATOM     21  C   UNL     1      36.458  -1.266  14.440  0.00  0.00    +0.000 C 
BRANCH  21  22
ATOM     22  C   UNL     1      37.489  -1.916  15.274  0.00  0.00    +0.000 A 
ATOM     23  C   UNL     1      38.572  -2.585  14.749  0.00  0.00    +0.000 A 
ATOM     24  C   UNL     1      39.487  -3.166  15.621  0.00  0.00    +0.000 A 
ATOM     25  C   UNL     1      39.341  -3.091  16.980  0.00  0.00    +0.000 A 
ATOM     26  C   UNL     1      38.259  -2.422  17.509  0.00  0.00    +0.000 A 
ATOM     27  C   UNL     1      38.098  -2.338  18.887  0.00  0.00    +0.000 A 
ATOM     28  C   UNL     1      37.016  -1.669  19.413  0.00  0.00    +0.000 A 
ATOM     29  C   UNL     1      36.123  -1.102  18.543  0.00  0.00    +0.000 A 
ATOM     30  C   UNL     1      36.262  -1.173  17.176  0.00  0.00    +0.000 A 
ATOM     31  C   UNL     1      37.351  -1.846  16.657  0.00  0.00    +0.000 A 
ENDBRANCH  21  22
ENDBRANCH  20  21
ENDBRANCH   4  20
TORSDOF 6
ENDMDL
MODEL 9
REMARK VINA RESULT:      -8.1     23.709     26.703
REMARK  Name = 
REMARK  6 active torsions:
REMARK  status: ('A' for Active; 'I' for Inactive)
REMARK    1  A    between atoms: O_2  and  C_3
REMARK    2  A    between atoms: C_6  and  C_7
REMARK    3  A    between atoms: C_9  and  C_10
REMARK    4  A    between atoms: N_13  and  C_14
REMARK    5  A    between atoms: C_14  and  C_15
REMARK    6  A    between atoms: C_15  and  C_16
REMARK                            x       y       z     vdW  Elec       q    Type
REMARK                         _______ _______ _______ _____ _____    ______ ____
ROOT
ATOM      1  C   UNL     1      13.702   0.180  27.459  0.00  0.00    +0.000 C 
ATOM      2  C   UNL     1      13.276  -0.091  28.867  0.00  0.00    +0.000 C 
ATOM      3  C   UNL     1      12.741  -1.440  29.130  0.00  0.00    +0.000 C 
ATOM      4  N   UNL     1      12.419  -2.261  28.047  0.00  0.00    +0.000 NA
ATOM      5  C   UNL     1      13.040  -2.063  26.799  0.00  0.00    +0.000 C 
ATOM      6  C   UNL     1      12.980  -0.611  26.432  0.00  0.00    +0.000 C 
ENDROOT
BRANCH   1   9
ATOM      7  C   UNL     1      17.189   0.050  26.339  0.00  0.00    +0.000 A 
ATOM      8  C   UNL     1      15.831   0.002  26.112  0.00  0.00    +0.000 A 
ATOM      9  C   UNL     1      15.168   0.178  27.335  0.00  0.00    +0.000 A 
ATOM     10  N   UNL     1      16.134   0.324  28.238  0.00  0.00    +0.000 NA
ATOM     11  N   UNL     1      17.327   0.249  27.660  0.00  0.00    +0.000 NA
BRANCH   7  15
ATOM     12  C   UNL     1      20.279  -0.364  23.420  0.00  0.00    +0.000 A 
ATOM     13  C   UNL     1      19.619  -1.466  23.916  0.00  0.00    +0.000 A 
ATOM     14  C   UNL     1      18.619  -1.327  24.860  0.00  0.00    +0.000 A 
ATOM     15  C   UNL     1      18.244  -0.090  25.342  0.00  0.00    +0.000 A 
ATOM     16  C   UNL     1      18.916   0.998  24.832  0.00  0.00    +0.000 A 
ATOM     17  C   UNL     1      19.917   0.883  23.889  0.00  0.00    +0.000 A 
BRANCH  12  19
ATOM     18  C   UNL     1      21.064  -1.191  21.285  0.00  0.00    +0.000 C 
ATOM     19  O   UNL     1      21.286  -0.468  22.472  0.00  0.00    +0.000 OA
ENDBRANCH  12  19
ENDBRANCH   7  15
ENDBRANCH   1   9
BRANCH   4  20
ATOM     20  C   UNL     1      11.192  -2.978  28.078  0.00  0.00    +0.000 C 
BRANCH  20  21
ATOM     21  C   UNL     1      11.278  -4.060  29.141  0.00  0.00    +0.000 C 
BRANCH  21  22
ATOM     22  C   UNL     1      11.981  -5.220  28.558  0.00  0.00    +0.000 A 
ATOM     23  C   UNL     1      11.783  -5.652  27.265  0.00  0.00    +0.000 A 
ATOM     24  C   UNL     1      12.493  -6.758  26.813  0.00  0.00    +0.000 A 
ATOM     25  C   UNL     1      13.381  -7.427  27.612  0.00  0.00    +0.000 A 
ATOM     26  C   UNL     1      13.582  -6.998  28.906  0.00  0.00    +0.000 A 
ATOM     27  C   UNL     1      14.480  -7.667  29.729  0.00  0.00    +0.000 A 
ATOM     28  C   UNL     1      14.680  -7.238  31.021  0.00  0.00    +0.000 A 
ATOM     29  C   UNL     1      13.973  -6.146  31.454  0.00  0.00    +0.000 A 
ATOM     30  C   UNL     1      13.080  -5.468  30.657  0.00  0.00    +0.000 A 
ATOM     31  C   UNL     1      12.886  -5.908  29.362  0.00  0.00    +0.000 A 
ENDBRANCH  21  22
ENDBRANCH  20  21
ENDBRANCH   4  20
TORSDOF 6
ENDMDL
MODEL 10
REMARK VINA RESULT:      -8.0     26.283     29.112
REMARK  Name = 
REMARK  6 active torsions:
REMARK  status: ('A' for Active; 'I' for Inactive)
REMARK    1  A    between atoms: O_2  and  C_3
REMARK    2  A    between atoms: C_6  and  C_7
REMARK    3  A    between atoms: C_9  and  C_10
REMARK    4  A    between atoms: N_13  and  C_14
REMARK    5  A    between atoms: C_14  and  C_15
REMARK    6  A    between atoms: C_15  and  C_16
REMARK                            x       y       z     vdW  Elec       q    Type
REMARK                         _______ _______ _______ _____ _____    ______ ____
ROOT
ATOM      1  C   UNL     1      12.814  -0.482  27.541  0.00  0.00    +0.000 C 
ATOM      2  C   UNL     1      12.161  -0.230  26.219  0.00  0.00    +0.000 C 
ATOM      3  C   UNL     1      11.373   1.012  26.117  0.00  0.00    +0.000 C 
ATOM      4  N   UNL     1      11.065   1.714  27.284  0.00  0.00    +0.000 NA
ATOM      5  C   UNL     1      11.875   1.577  28.428  0.00  0.00    +0.000 C 
ATOM      6  C   UNL     1      12.114   0.122  28.702  0.00  0.00    +0.000 C 
ENDROOT
BRANCH   1   9
ATOM      7  C   UNL     1      16.346  -0.163  26.619  0.00  0.00    +0.000 A 
ATOM      8  C   UNL     1      15.043  -0.521  26.354  0.00  0.00    +0.000 A 
ATOM      9  C   UNL     1      14.261  -0.225  27.480  0.00  0.00    +0.000 A 
ATOM     10  N   UNL     1      15.108   0.293  28.365  0.00  0.00    +0.000 NA
ATOM     11  N   UNL     1      16.338   0.333  27.867  0.00  0.00    +0.000 NA
BRANCH   7  15
ATOM     12  C   UNL     1      19.688  -0.569  23.990  0.00  0.00    +0.000 A 
ATOM     13  C   UNL     1      19.152  -1.663  24.632  0.00  0.00    +0.000 A 
ATOM     14  C   UNL     1      18.070  -1.527  25.482  0.00  0.00    +0.000 A 
ATOM     15  C   UNL     1      17.487  -0.300  25.720  0.00  0.00    +0.000 A 
ATOM     16  C   UNL     1      18.038   0.780  25.068  0.00  0.00    +0.000 A 
ATOM     17  C   UNL     1      19.117   0.667  24.215  0.00  0.00    +0.000 A 
BRANCH  12  19
ATOM     18  C   UNL     1      20.574  -0.633  21.738  0.00  0.00    +0.000 C 
ATOM     19  O   UNL     1      20.772  -0.671  23.131  0.00  0.00    +0.000 OA
ENDBRANCH  12  19
ENDBRANCH   7  15
ENDBRANCH   1   9
BRANCH   4  20
ATOM     20  C   UNL     1       9.741   2.203  27.456  0.00  0.00    +0.000 C 
BRANCH  20  21
ATOM     21  C   UNL     1       9.026   2.176  26.117  0.00  0.00    +0.000 C 
BRANCH  21  22
ATOM     22  C   UNL     1       7.673   2.737  26.308  0.00  0.00    +0.000 A 
ATOM     23  C   UNL     1       7.347   3.583  27.344  0.00  0.00    +0.000 A 
ATOM     24  C   UNL     1       6.043   4.055  27.437  0.00  0.00    +0.000 A 
ATOM     25  C   UNL     1       5.078   3.705  26.531  0.00  0.00    +0.000 A 
ATOM     26  C   UNL     1       5.401   2.859  25.492  0.00  0.00    +0.000 A 
ATOM     27  C   UNL     1       4.432   2.495  24.564  0.00  0.00    +0.000 A 
ATOM     28  C   UNL     1       4.757   1.650  23.527  0.00  0.00    +0.000 A 
ATOM     29  C   UNL     1       6.046   1.192  23.448  0.00  0.00    +0.000 A 
ATOM     30  C   UNL     1       7.021   1.540  24.355  0.00  0.00    +0.000 A 
ATOM     31  C   UNL     1       6.685   2.387  25.392  0.00  0.00    +0.000 A 
ENDBRANCH  21  22
ENDBRANCH  20  21
ENDBRANCH   4  20
TORSDOF 6
ENDMDL
