MODEL 1
REMARK VINA RESULT:      -5.7      0.000      0.000
REMARK  Name = 
REMARK  4 active torsions:
REMARK  status: ('A' for Active; 'I' for Inactive)
REMARK    1  A    between atoms: C_2  and  O_3
REMARK    2  A    between atoms: O_3  and  C_4
REMARK    3  A    between atoms: C_9  and  C_10
REMARK    4  A    between atoms: C_17  and  C_18
REMARK                            x       y       z     vdW  Elec       q    Type
REMARK                         _______ _______ _______ _____ _____    ______ ____
ROOT
ATOM      1  C   UNL     1      26.333  23.571  25.878  0.00  0.00    +0.000 C 
ATOM      2  N   UNL     1      25.900  22.861  24.655  0.00  0.00    +0.000 NA
ATOM      3  C   UNL     1      25.814  23.417  23.386  0.00  0.00    +0.000 C 
ATOM      4  O   UNL     1      25.423  22.699  22.398  0.00  0.00    +0.000 OA
ATOM      5  N   UNL     1      26.161  24.780  23.196  0.00  0.00    +0.000 NA
ATOM      6  C   UNL     1      26.583  25.517  24.325  0.00  0.00    +0.000 C 
ATOM      7  C   UNL     1      26.958  27.005  24.096  0.00  0.00    +0.000 C 
ATOM      8  C   UNL     1      26.668  25.021  25.495  0.00  0.00    +0.000 C 
ENDROOT
BRANCH   1  14
ATOM      9  C   UNL     1      27.999  22.697  27.476  0.00  0.00    +0.000 A 
ATOM     10  C   UNL     1      29.259  22.187  27.841  0.00  0.00    +0.000 A 
ATOM     11  C   UNL     1      30.223  22.014  26.898  0.00  0.00    +0.000 A 
ATOM     12  C   UNL     1      29.976  22.333  25.594  0.00  0.00    +0.000 A 
ATOM     13  C   UNL     1      28.740  22.830  25.256  0.00  0.00    +0.000 A 
ATOM     14  C   UNL     1      27.813  22.999  26.151  0.00  0.00    +0.000 A 
BRANCH   9  15
ATOM     15  O   UNL     1      27.051  22.859  28.454  0.00  0.00    +0.000 OA
BRANCH  15  17
ATOM     16  C   UNL     1      26.385  21.598  30.428  0.00  0.00    +0.000 C 
ATOM     17  C   UNL     1      27.323  22.617  29.820  0.00  0.00    +0.000 C 
ENDBRANCH  15  17
ENDBRANCH   9  15
ENDBRANCH   1  14
BRANCH   8  18
ATOM     18  C   UNL     1      27.123  25.885  26.602  0.00  0.00    +0.000 C 
ATOM     19  N   UNL     1      26.149  26.338  27.501  0.00  0.00    +0.000 NA
ATOM     20  O   UNL     1      28.317  26.213  26.756  0.00  0.00    +0.000 OA
ENDBRANCH   8  18
TORSDOF 4
ENDMDL
MODEL 2
REMARK VINA RESULT:      -5.5      1.969      2.281
REMARK  Name = 
REMARK  4 active torsions:
REMARK  status: ('A' for Active; 'I' for Inactive)
REMARK    1  A    between atoms: C_2  and  O_3
REMARK    2  A    between atoms: O_3  and  C_4
REMARK    3  A    between atoms: C_9  and  C_10
REMARK    4  A    between atoms: C_17  and  C_18
REMARK                            x       y       z     vdW  Elec       q    Type
REMARK                         _______ _______ _______ _____ _____    ______ ____
ROOT
ATOM      1  C   UNL     1      27.337  24.684  24.620  0.00  0.00    +0.000 C 
ATOM      2  N   UNL     1      26.399  23.717  24.008  0.00  0.00    +0.000 NA
ATOM      3  C   UNL     1      26.181  23.552  22.647  0.00  0.00    +0.000 C 
ATOM      4  O   UNL     1      25.340  22.677  22.235  0.00  0.00    +0.000 OA
ATOM      5  N   UNL     1      26.898  24.359  21.723  0.00  0.00    +0.000 NA
ATOM      6  C   UNL     1      27.810  25.304  22.242  0.00  0.00    +0.000 C 
ATOM      7  C   UNL     1      28.582  26.175  21.216  0.00  0.00    +0.000 C 
ATOM      8  C   UNL     1      28.020  25.466  23.487  0.00  0.00    +0.000 C 
ENDROOT
BRANCH   1  14
ATOM      9  C   UNL     1      28.731  23.845  26.475  0.00  0.00    +0.000 A 
ATOM     10  C   UNL     1      29.778  23.085  27.031  0.00  0.00    +0.000 A 
ATOM     11  C   UNL     1      30.566  22.323  26.228  0.00  0.00    +0.000 A 
ATOM     12  C   UNL     1      30.348  22.288  24.881  0.00  0.00    +0.000 A 
ATOM     13  C   UNL     1      29.322  23.036  24.356  0.00  0.00    +0.000 A 
ATOM     14  C   UNL     1      28.564  23.769  25.116  0.00  0.00    +0.000 A 
BRANCH   9  15
ATOM     15  O   UNL     1      27.957  24.604  27.315  0.00  0.00    +0.000 OA
BRANCH  15  17
ATOM     16  C   UNL     1      25.682  24.284  28.125  0.00  0.00    +0.000 C 
ATOM     17  C   UNL     1      27.159  24.032  28.333  0.00  0.00    +0.000 C 
ENDBRANCH  15  17
ENDBRANCH   9  15
ENDBRANCH   1  14
BRANCH   8  18
ATOM     18  C   UNL     1      28.999  26.486  23.917  0.00  0.00    +0.000 C 
ATOM     19  N   UNL     1      28.490  27.672  24.457  0.00  0.00    +0.000 NA
ATOM     20  O   UNL     1      30.232  26.323  23.815  0.00  0.00    +0.000 OA
ENDBRANCH   8  18
TORSDOF 4
ENDMDL
MODEL 3
REMARK VINA RESULT:      -5.4     18.043     19.999
REMARK  Name = 
REMARK  4 active torsions:
REMARK  status: ('A' for Active; 'I' for Inactive)
REMARK    1  A    between atoms: C_2  and  O_3
REMARK    2  A    between atoms: O_3  and  C_4
REMARK    3  A    between atoms: C_9  and  C_10
REMARK    4  A    between atoms: C_17  and  C_18
REMARK                            x       y       z     vdW  Elec       q    Type
REMARK                         _______ _______ _______ _____ _____    ______ ____
ROOT
ATOM      1  C   UNL     1      18.949  10.060  37.514  0.00  0.00    +0.000 C 
ATOM      2  N   UNL     1      17.971  10.615  36.553  0.00  0.00    +0.000 NA
ATOM      3  C   UNL     1      16.626  10.842  36.809  0.00  0.00    +0.000 C 
ATOM      4  O   UNL     1      15.873  11.329  35.893  0.00  0.00    +0.000 OA
ATOM      5  N   UNL     1      16.097  10.531  38.090  0.00  0.00    +0.000 NA
ATOM      6  C   UNL     1      16.979   9.997  39.056  0.00  0.00    +0.000 C 
ATOM      7  C   UNL     1      16.382   9.665  40.448  0.00  0.00    +0.000 C 
ATOM      8  C   UNL     1      18.215   9.784  38.836  0.00  0.00    +0.000 C 
ENDROOT
BRANCH   1  14
ATOM      9  C   UNL     1      21.175  11.048  37.915  0.00  0.00    +0.000 A 
ATOM     10  C   UNL     1      22.055  12.087  38.271  0.00  0.00    +0.000 A 
ATOM     11  C   UNL     1      21.564  13.306  38.618  0.00  0.00    +0.000 A 
ATOM     12  C   UNL     1      20.217  13.530  38.623  0.00  0.00    +0.000 A 
ATOM     13  C   UNL     1      19.374  12.505  38.273  0.00  0.00    +0.000 A 
ATOM     14  C   UNL     1      19.834  11.335  37.940  0.00  0.00    +0.000 A 
BRANCH   9  15
ATOM     15  O   UNL     1      21.706   9.831  37.572  0.00  0.00    +0.000 OA
BRANCH  15  17
ATOM     16  C   UNL     1      23.831   9.082  36.648  0.00  0.00    +0.000 C 
ATOM     17  C   UNL     1      22.449   9.635  36.385  0.00  0.00    +0.000 C 
ENDBRANCH  15  17
ENDBRANCH   9  15
ENDBRANCH   1  14
BRANCH   8  18
ATOM     18  C   UNL     1      19.044   9.222  39.921  0.00  0.00    +0.000 C 
ATOM     19  N   UNL     1      19.341   7.855  39.857  0.00  0.00    +0.000 NA
ATOM     20  O   UNL     1      19.477   9.913  40.866  0.00  0.00    +0.000 OA
ENDBRANCH   8  18
TORSDOF 4
ENDMDL
MODEL 4
REMARK VINA RESULT:      -5.4     31.512     33.378
REMARK  Name = 
REMARK  4 active torsions:
REMARK  status: ('A' for Active; 'I' for Inactive)
REMARK    1  A    between atoms: C_2  and  O_3
REMARK    2  A    between atoms: O_3  and  C_4
REMARK    3  A    between atoms: C_9  and  C_10
REMARK    4  A    between atoms: C_17  and  C_18
REMARK                            x       y       z     vdW  Elec       q    Type
REMARK                         _______ _______ _______ _____ _____    ______ ____
ROOT
ATOM      1  C   UNL     1      20.913  -9.043  25.839  0.00  0.00    +0.000 C 
ATOM      2  N   UNL     1      22.288  -8.531  25.649  0.00  0.00    +0.000 NA
ATOM      3  C   UNL     1      22.944  -8.409  24.432  0.00  0.00    +0.000 C 
ATOM      4  O   UNL     1      24.140  -7.950  24.393  0.00  0.00    +0.000 OA
ATOM      5  N   UNL     1      22.278  -8.796  23.239  0.00  0.00    +0.000 NA
ATOM      6  C   UNL     1      20.961  -9.294  23.350  0.00  0.00    +0.000 C 
ATOM      7  C   UNL     1      20.251  -9.710  22.034  0.00  0.00    +0.000 C 
ATOM      8  C   UNL     1      20.347  -9.411  24.459  0.00  0.00    +0.000 C 
ENDROOT
BRANCH   1  14
ATOM      9  C   UNL     1      19.094  -7.963  27.109  0.00  0.00    +0.000 A 
ATOM     10  C   UNL     1      18.272  -6.880  27.475  0.00  0.00    +0.000 A 
ATOM     11  C   UNL     1      18.448  -5.665  26.891  0.00  0.00    +0.000 A 
ATOM     12  C   UNL     1      19.422  -5.488  25.950  0.00  0.00    +0.000 A 
ATOM     13  C   UNL     1      20.214  -6.556  25.606  0.00  0.00    +0.000 A 
ATOM     14  C   UNL     1      20.052  -7.722  26.158  0.00  0.00    +0.000 A 
BRANCH   9  15
ATOM     15  O   UNL     1      18.886  -9.175  27.718  0.00  0.00    +0.000 OA
BRANCH  15  17
ATOM     16  C   UNL     1      17.556  -9.805  29.659  0.00  0.00    +0.000 C 
ATOM     17  C   UNL     1      17.610  -9.591  28.163  0.00  0.00    +0.000 C 
ENDBRANCH  15  17
ENDBRANCH   9  15
ENDBRANCH   1  14
BRANCH   8  18
ATOM     18  C   UNL     1      18.969  -9.944  24.456  0.00  0.00    +0.000 C 
ATOM     19  N   UNL     1      18.798 -11.275  24.856  0.00  0.00    +0.000 NA
ATOM     20  O   UNL     1      17.981  -9.261  24.118  0.00  0.00    +0.000 OA
ENDBRANCH   8  18
TORSDOF 4
ENDMDL
MODEL 5
REMARK VINA RESULT:      -5.3     31.804     33.754
REMARK  Name = 
REMARK  4 active torsions:
REMARK  status: ('A' for Active; 'I' for Inactive)
REMARK    1  A    between atoms: C_2  and  O_3
REMARK    2  A    between atoms: O_3  and  C_4
REMARK    3  A    between atoms: C_9  and  C_10
REMARK    4  A    between atoms: C_17  and  C_18
REMARK                            x       y       z     vdW  Elec       q    Type
REMARK                         _______ _______ _______ _____ _____    ______ ____
ROOT
ATOM      1  C   UNL     1      18.428  -7.716  27.503  0.00  0.00    +0.000 C 
ATOM      2  N   UNL     1      18.119  -6.278  27.347  0.00  0.00    +0.000 NA
ATOM      3  C   UNL     1      18.765  -5.402  26.486  0.00  0.00    +0.000 C 
ATOM      4  O   UNL     1      18.408  -4.171  26.438  0.00  0.00    +0.000 OA
ATOM      5  N   UNL     1      19.819  -5.882  25.663  0.00  0.00    +0.000 NA
ATOM      6  C   UNL     1      20.164  -7.248  25.763  0.00  0.00    +0.000 C 
ATOM      7  C   UNL     1      21.317  -7.751  24.856  0.00  0.00    +0.000 C 
ATOM      8  C   UNL     1      19.581  -8.063  26.548  0.00  0.00    +0.000 C 
ENDROOT
BRANCH   1  14
ATOM      9  C   UNL     1      16.760  -9.535  27.473  0.00  0.00    +0.000 A 
ATOM     10  C   UNL     1      15.691 -10.266  26.921  0.00  0.00    +0.000 A 
ATOM     11  C   UNL     1      15.151  -9.889  25.732  0.00  0.00    +0.000 A 
ATOM     12  C   UNL     1      15.641  -8.801  25.067  0.00  0.00    +0.000 A 
ATOM     13  C   UNL     1      16.685  -8.101  25.621  0.00  0.00    +0.000 A 
ATOM     14  C   UNL     1      17.208  -8.454  26.757  0.00  0.00    +0.000 A 
BRANCH   9  15
ATOM     15  O   UNL     1      17.280  -9.945  28.674  0.00  0.00    +0.000 OA
BRANCH  15  17
ATOM     16  C   UNL     1      18.592 -11.557  29.944  0.00  0.00    +0.000 C 
ATOM     17  C   UNL     1      17.429 -11.311  29.010  0.00  0.00    +0.000 C 
ENDBRANCH  15  17
ENDBRANCH   9  15
ENDBRANCH   1  14
BRANCH   8  18
ATOM     18  C   UNL     1      20.026  -9.471  26.569  0.00  0.00    +0.000 C 
ATOM     19  N   UNL     1      20.830  -9.872  27.643  0.00  0.00    +0.000 NA
ATOM     20  O   UNL     1      19.712 -10.292  25.682  0.00  0.00    +0.000 OA
ENDBRANCH   8  18
TORSDOF 4
ENDMDL
MODEL 6
REMARK VINA RESULT:      -5.3     20.394     22.138
REMARK  Name = 
REMARK  4 active torsions:
REMARK  status: ('A' for Active; 'I' for Inactive)
REMARK    1  A    between atoms: C_2  and  O_3
REMARK    2  A    between atoms: O_3  and  C_4
REMARK    3  A    between atoms: C_9  and  C_10
REMARK    4  A    between atoms: C_17  and  C_18
REMARK                            x       y       z     vdW  Elec       q    Type
REMARK                         _______ _______ _______ _____ _____    ______ ____
ROOT
ATOM      1  C   UNL     1      27.027   4.333  17.173  0.00  0.00    +0.000 C 
ATOM      2  N   UNL     1      27.440   5.284  18.228  0.00  0.00    +0.000 NA
ATOM      3  C   UNL     1      27.481   6.666  18.099  0.00  0.00    +0.000 C 
ATOM      4  O   UNL     1      27.858   7.390  19.088  0.00  0.00    +0.000 OA
ATOM      5  N   UNL     1      27.101   7.264  16.868  0.00  0.00    +0.000 NA
ATOM      6  C   UNL     1      26.696   6.410  15.818  0.00  0.00    +0.000 C 
ATOM      7  C   UNL     1      26.286   7.084  14.482  0.00  0.00    +0.000 C 
ATOM      8  C   UNL     1      26.654   5.142  15.921  0.00  0.00    +0.000 C 
ENDROOT
BRANCH   1  14
ATOM      9  C   UNL     1      25.453   2.481  17.598  0.00  0.00    +0.000 A 
ATOM     10  C   UNL     1      24.216   1.932  17.988  0.00  0.00    +0.000 A 
ATOM     11  C   UNL     1      23.205   2.748  18.386  0.00  0.00    +0.000 A 
ATOM     12  C   UNL     1      23.382   4.102  18.412  0.00  0.00    +0.000 A 
ATOM     13  C   UNL     1      24.594   4.619  18.028  0.00  0.00    +0.000 A 
ATOM     14  C   UNL     1      25.567   3.847  17.644  0.00  0.00    +0.000 A 
BRANCH   9  15
ATOM     15  O   UNL     1      26.450   1.627  17.201  0.00  0.00    +0.000 OA
BRANCH  15  17
ATOM     16  C   UNL     1      26.764  -0.784  17.348  0.00  0.00    +0.000 C 
ATOM     17  C   UNL     1      26.183   0.384  16.582  0.00  0.00    +0.000 C 
ENDBRANCH  15  17
ENDBRANCH   9  15
ENDBRANCH   1  14
BRANCH   8  18
ATOM     18  C   UNL     1      26.212   4.349  14.756  0.00  0.00    +0.000 C 
ATOM     19  N   UNL     1      27.200   3.664  14.038  0.00  0.00    +0.000 NA
ATOM     20  O   UNL     1      25.017   4.272  14.405  0.00  0.00    +0.000 OA
ENDBRANCH   8  18
TORSDOF 4
ENDMDL
MODEL 7
REMARK VINA RESULT:      -5.1     12.609     14.518
REMARK  Name = 
REMARK  4 active torsions:
REMARK  status: ('A' for Active; 'I' for Inactive)
REMARK    1  A    between atoms: C_2  and  O_3
REMARK    2  A    between atoms: O_3  and  C_4
REMARK    3  A    between atoms: C_9  and  C_10
REMARK    4  A    between atoms: C_17  and  C_18
REMARK                            x       y       z     vdW  Elec       q    Type
REMARK                         _______ _______ _______ _____ _____    ______ ____
ROOT
ATOM      1  C   UNL     1      16.502  23.565  35.814  0.00  0.00    +0.000 C 
ATOM      2  N   UNL     1      15.557  22.978  36.790  0.00  0.00    +0.000 NA
ATOM      3  C   UNL     1      14.221  23.327  36.932  0.00  0.00    +0.000 C 
ATOM      4  O   UNL     1      13.499  22.746  37.817  0.00  0.00    +0.000 OA
ATOM      5  N   UNL     1      13.668  24.328  36.090  0.00  0.00    +0.000 NA
ATOM      6  C   UNL     1      14.517  24.930  35.135  0.00  0.00    +0.000 C 
ATOM      7  C   UNL     1      13.893  26.021  34.225  0.00  0.00    +0.000 C 
ATOM      8  C   UNL     1      15.744  24.621  34.993  0.00  0.00    +0.000 C 
ENDROOT
BRANCH   1  14
ATOM      9  C   UNL     1      17.975  21.980  34.629  0.00  0.00    +0.000 A 
ATOM     10  C   UNL     1      18.255  20.968  33.691  0.00  0.00    +0.000 A 
ATOM     11  C   UNL     1      17.259  20.466  32.914  0.00  0.00    +0.000 A 
ATOM     12  C   UNL     1      15.984  20.938  33.038  0.00  0.00    +0.000 A 
ATOM     13  C   UNL     1      15.730  21.925  33.959  0.00  0.00    +0.000 A 
ATOM     14  C   UNL     1      16.676  22.412  34.706  0.00  0.00    +0.000 A 
BRANCH   9  15
ATOM     15  O   UNL     1      19.005  22.463  35.396  0.00  0.00    +0.000 OA
BRANCH  15  17
ATOM     16  C   UNL     1      18.813  20.877  37.234  0.00  0.00    +0.000 C 
ATOM     17  C   UNL     1      19.721  21.649  36.304  0.00  0.00    +0.000 C 
ENDBRANCH  15  17
ENDBRANCH   9  15
ENDBRANCH   1  14
BRANCH   8  18
ATOM     18  C   UNL     1      16.538  25.316  33.960  0.00  0.00    +0.000 C 
ATOM     19  N   UNL     1      17.500  26.232  34.402  0.00  0.00    +0.000 NA
ATOM     20  O   UNL     1      16.380  25.115  32.738  0.00  0.00    +0.000 OA
ENDBRANCH   8  18
TORSDOF 4
ENDMDL
MODEL 8
REMARK VINA RESULT:      -5.1     20.065     21.989
REMARK  Name = 
REMARK  4 active torsions:
REMARK  status: ('A' for Active; 'I' for Inactive)
REMARK    1  A    between atoms: C_2  and  O_3
REMARK    2  A    between atoms: O_3  and  C_4
REMARK    3  A    between atoms: C_9  and  C_10
REMARK    4  A    between atoms: C_17  and  C_18
REMARK                            x       y       z     vdW  Elec       q    Type
REMARK                         _______ _______ _______ _____ _____    ______ ____
ROOT
ATOM      1  C   UNL     1      25.429   4.478  16.435  0.00  0.00    +0.000 C 
ATOM      2  N   UNL     1      24.196   4.296  17.232  0.00  0.00    +0.000 NA
ATOM      3  C   UNL     1      23.808   3.123  17.865  0.00  0.00    +0.000 C 
ATOM      4  O   UNL     1      22.713   3.087  18.530  0.00  0.00    +0.000 OA
ATOM      5  N   UNL     1      24.635   1.972  17.769  0.00  0.00    +0.000 NA
ATOM      6  C   UNL     1      25.829   2.078  17.021  0.00  0.00    +0.000 C 
ATOM      7  C   UNL     1      26.717   0.809  16.929  0.00  0.00    +0.000 C 
ATOM      8  C   UNL     1      26.197   3.146  16.435  0.00  0.00    +0.000 C 
ENDROOT
BRANCH   1  14
ATOM      9  C   UNL     1      26.815   6.493  16.761  0.00  0.00    +0.000 A 
ATOM     10  C   UNL     1      27.657   7.347  17.500  0.00  0.00    +0.000 A 
ATOM     11  C   UNL     1      28.002   7.027  18.774  0.00  0.00    +0.000 A 
ATOM     12  C   UNL     1      27.534   5.879  19.347  0.00  0.00    +0.000 A 
ATOM     13  C   UNL     1      26.714   5.059  18.613  0.00  0.00    +0.000 A 
ATOM     14  C   UNL     1      26.379   5.356  17.392  0.00  0.00    +0.000 A 
BRANCH   9  15
ATOM     15  O   UNL     1      26.489   6.847  15.477  0.00  0.00    +0.000 OA
BRANCH  15  17
ATOM     16  C   UNL     1      26.888   6.473  13.104  0.00  0.00    +0.000 C 
ATOM     17  C   UNL     1      27.448   6.905  14.440  0.00  0.00    +0.000 C 
ENDBRANCH  15  17
ENDBRANCH   9  15
ENDBRANCH   1  14
BRANCH   8  18
ATOM     18  C   UNL     1      27.467   3.142  15.681  0.00  0.00    +0.000 C 
ATOM     19  N   UNL     1      27.383   3.011  14.290  0.00  0.00    +0.000 NA
ATOM     20  O   UNL     1      28.581   3.251  16.233  0.00  0.00    +0.000 OA
ENDBRANCH   8  18
TORSDOF 4
ENDMDL
MODEL 9
REMARK VINA RESULT:      -4.9      2.225      4.363
REMARK  Name = 
REMARK  4 active torsions:
REMARK  status: ('A' for Active; 'I' for Inactive)
REMARK    1  A    between atoms: C_2  and  O_3
REMARK    2  A    between atoms: O_3  and  C_4
REMARK    3  A    between atoms: C_9  and  C_10
REMARK    4  A    between atoms: C_17  and  C_18
REMARK                            x       y       z     vdW  Elec       q    Type
REMARK                         _______ _______ _______ _____ _____    ______ ____
ROOT
ATOM      1  C   UNL     1      28.013  25.104  25.110  0.00  0.00    +0.000 C 
ATOM      2  N   UNL     1      27.502  24.686  26.433  0.00  0.00    +0.000 NA
ATOM      3  C   UNL     1      26.424  23.839  26.653  0.00  0.00    +0.000 C 
ATOM      4  O   UNL     1      26.073  23.547  27.851  0.00  0.00    +0.000 OA
ATOM      5  N   UNL     1      25.721  23.302  25.541  0.00  0.00    +0.000 NA
ATOM      6  C   UNL     1      26.159  23.663  24.247  0.00  0.00    +0.000 C 
ATOM      7  C   UNL     1      25.377  23.066  23.048  0.00  0.00    +0.000 C 
ATOM      8  C   UNL     1      27.145  24.438  24.031  0.00  0.00    +0.000 C 
ENDROOT
BRANCH   1  14
ATOM      9  C   UNL     1      30.442  25.083  24.677  0.00  0.00    +0.000 A 
ATOM     10  C   UNL     1      31.695  24.462  24.507  0.00  0.00    +0.000 A 
ATOM     11  C   UNL     1      31.803  23.111  24.606  0.00  0.00    +0.000 A 
ATOM     12  C   UNL     1      30.701  22.349  24.871  0.00  0.00    +0.000 A 
ATOM     13  C   UNL     1      29.488  22.972  25.033  0.00  0.00    +0.000 A 
ATOM     14  C   UNL     1      29.374  24.264  24.940  0.00  0.00    +0.000 A 
BRANCH   9  15
ATOM     15  O   UNL     1      30.370  26.448  24.569  0.00  0.00    +0.000 OA
BRANCH  15  17
ATOM     16  C   UNL     1      30.655  27.179  26.875  0.00  0.00    +0.000 C 
ATOM     17  C   UNL     1      31.082  27.316  25.431  0.00  0.00    +0.000 C 
ENDBRANCH  15  17
ENDBRANCH   9  15
ENDBRANCH   1  14
BRANCH   8  18
ATOM     18  C   UNL     1      27.514  24.746  22.634  0.00  0.00    +0.000 C 
ATOM     19  N   UNL     1      27.287  26.053  22.187  0.00  0.00    +0.000 NA
ATOM     20  O   UNL     1      28.010  23.898  21.865  0.00  0.00    +0.000 OA
ENDBRANCH   8  18
TORSDOF 4
ENDMDL
MODEL 10
REMARK VINA RESULT:      -4.8     37.590     39.526
REMARK  Name = 
REMARK  4 active torsions:
REMARK  status: ('A' for Active; 'I' for Inactive)
REMARK    1  A    between atoms: C_2  and  O_3
REMARK    2  A    between atoms: O_3  and  C_4
REMARK    3  A    between atoms: C_9  and  C_10
REMARK    4  A    between atoms: C_17  and  C_18
REMARK                            x       y       z     vdW  Elec       q    Type
REMARK                         _______ _______ _______ _____ _____    ______ ____
ROOT
ATOM      1  C   UNL     1      -1.572  -2.977  21.159  0.00  0.00    +0.000 C 
ATOM      2  N   UNL     1      -2.159  -1.884  21.964  0.00  0.00    +0.000 NA
ATOM      3  C   UNL     1      -2.758  -2.028  23.208  0.00  0.00    +0.000 C 
ATOM      4  O   UNL     1      -3.233  -1.002  23.813  0.00  0.00    +0.000 OA
ATOM      5  N   UNL     1      -2.837  -3.317  23.800  0.00  0.00    +0.000 NA
ATOM      6  C   UNL     1      -2.295  -4.406  23.082  0.00  0.00    +0.000 C 
ATOM      7  C   UNL     1      -2.391  -5.805  23.746  0.00  0.00    +0.000 C 
ATOM      8  C   UNL     1      -1.743  -4.289  21.941  0.00  0.00    +0.000 C 
ENDROOT
BRANCH   1  14
ATOM      9  C   UNL     1       0.638  -2.727  20.090  0.00  0.00    +0.000 A 
ATOM     10  C   UNL     1       2.033  -2.540  20.093  0.00  0.00    +0.000 A 
ATOM     11  C   UNL     1       2.699  -2.400  21.269  0.00  0.00    +0.000 A 
ATOM     12  C   UNL     1       2.021  -2.439  22.454  0.00  0.00    +0.000 A 
ATOM     13  C   UNL     1       0.660  -2.622  22.432  0.00  0.00    +0.000 A 
ATOM     14  C   UNL     1       0.014  -2.758  21.312  0.00  0.00    +0.000 A 
BRANCH   9  15
ATOM     15  O   UNL     1      -0.001  -2.865  18.885  0.00  0.00    +0.000 OA
BRANCH  15  17
ATOM     16  C   UNL     1      -0.974  -0.716  18.278  0.00  0.00    +0.000 C 
ATOM     17  C   UNL     1      -0.024  -1.835  17.916  0.00  0.00    +0.000 C 
ENDBRANCH  15  17
ENDBRANCH   9  15
ENDBRANCH   1  14
BRANCH   8  18
ATOM     18  C   UNL     1      -1.209  -5.498  21.282  0.00  0.00    +0.000 C 
ATOM     19  N   UNL     1      -1.962  -6.041  20.234  0.00  0.00    +0.000 NA
ATOM     20  O   UNL     1      -0.135  -6.034  21.623  0.00  0.00    +0.000 OA
ENDBRANCH   8  18
TORSDOF 4
ENDMDL
