MODEL 1
REMARK VINA RESULT:      -7.2      0.000      0.000
REMARK  Name = 
REMARK  2 active torsions:
REMARK  status: ('A' for Active; 'I' for Inactive)
REMARK    1  A    between atoms: C_5  and  N_6
REMARK    2  A    between atoms: C_7  and  C_9
REMARK                            x       y       z     vdW  Elec       q    Type
REMARK                         _______ _______ _______ _____ _____    ______ ____
ROOT
ATOM      1  N   UNL     1      16.152  10.624  36.496  0.00  0.00    +0.000 NA
ATOM      2  C   UNL     1      17.204  11.020  37.338  0.00  0.00    +0.000 C 
ATOM      3  O   UNL     1      17.589  12.210  37.219  0.00  0.00    +0.000 OA
ENDROOT
BRANCH   2   4
ATOM      4  C   UNL     1      17.843  10.097  38.326  0.00  0.00    +0.000 A 
ATOM      5  C   UNL     1      19.127   9.659  38.115  0.00  0.00    +0.000 A 
ATOM      6  N   UNL     1      20.002   9.984  37.004  0.00  0.00    +0.000 NA
ATOM      7  S   UNL     1      19.422   8.659  39.460  0.00  0.00    +0.000 S 
ATOM      8  C   UNL     1      17.934   8.814  40.256  0.00  0.00    +0.000 A 
ATOM      9  C   UNL     1      17.225   9.653  39.447  0.00  0.00    +0.000 A 
ATOM     10  C   UNL     1      15.861   9.829  40.115  0.00  0.00    +0.000 C 
ATOM     11  C   UNL     1      16.128   9.547  41.569  0.00  0.00    +0.000 C 
ATOM     12  C   UNL     1      17.128   8.398  41.464  0.00  0.00    +0.000 C 
ENDBRANCH   2   4
BRANCH   1  17
ATOM     13  C   UNL     1      13.669  14.145  32.723  0.00  0.00    +0.000 C 
ATOM     14  C   UNL     1      14.302  13.241  33.718  0.00  0.00    +0.000 A 
ATOM     15  C   UNL     1      14.019  13.300  35.066  0.00  0.00    +0.000 A 
ATOM     16  C   UNL     1      14.627  12.443  35.965  0.00  0.00    +0.000 A 
ATOM     17  C   UNL     1      15.539  11.495  35.555  0.00  0.00    +0.000 A 
ATOM     18  C   UNL     1      15.823  11.432  34.210  0.00  0.00    +0.000 A 
ATOM     19  C   UNL     1      16.802  10.419  33.743  0.00  0.00    +0.000 C 
ATOM     20  C   UNL     1      15.212  12.296  33.297  0.00  0.00    +0.000 A 
ENDBRANCH   1  17
TORSDOF 2
ENDMDL
MODEL 2
REMARK VINA RESULT:      -6.8      2.090      3.801
REMARK  Name = 
REMARK  2 active torsions:
REMARK  status: ('A' for Active; 'I' for Inactive)
REMARK    1  A    between atoms: C_5  and  N_6
REMARK    2  A    between atoms: C_7  and  C_9
REMARK                            x       y       z     vdW  Elec       q    Type
REMARK                         _______ _______ _______ _____ _____    ______ ____
ROOT
ATOM      1  N   UNL     1      17.811  11.053  35.791  0.00  0.00    +0.000 NA
ATOM      2  C   UNL     1      18.239   9.860  36.397  0.00  0.00    +0.000 C 
ATOM      3  O   UNL     1      17.849   8.795  35.855  0.00  0.00    +0.000 OA
ENDROOT
BRANCH   2   4
ATOM      4  C   UNL     1      19.108   9.834  37.613  0.00  0.00    +0.000 A 
ATOM      5  C   UNL     1      18.531   9.798  38.859  0.00  0.00    +0.000 A 
ATOM      6  N   UNL     1      17.117   9.780  39.180  0.00  0.00    +0.000 NA
ATOM      7  S   UNL     1      19.873   9.781  39.906  0.00  0.00    +0.000 S 
ATOM      8  C   UNL     1      21.123   9.818  38.762  0.00  0.00    +0.000 A 
ATOM      9  C   UNL     1      20.462   9.844  37.569  0.00  0.00    +0.000 A 
ATOM     10  C   UNL     1      21.544   9.882  36.489  0.00  0.00    +0.000 C 
ATOM     11  C   UNL     1      22.744   9.264  37.155  0.00  0.00    +0.000 C 
ATOM     12  C   UNL     1      22.619   9.832  38.567  0.00  0.00    +0.000 C 
ENDBRANCH   2   4
BRANCH   1  17
ATOM     13  C   UNL     1      14.503  11.170  31.117  0.00  0.00    +0.000 C 
ATOM     14  C   UNL     1      15.376  11.127  32.319  0.00  0.00    +0.000 A 
ATOM     15  C   UNL     1      16.588  10.470  32.338  0.00  0.00    +0.000 A 
ATOM     16  C   UNL     1      17.376  10.451  33.475  0.00  0.00    +0.000 A 
ATOM     17  C   UNL     1      16.985  11.085  34.634  0.00  0.00    +0.000 A 
ATOM     18  C   UNL     1      15.777  11.743  34.618  0.00  0.00    +0.000 A 
ATOM     19  C   UNL     1      15.335  12.436  35.855  0.00  0.00    +0.000 C 
ATOM     20  C   UNL     1      14.977  11.766  33.472  0.00  0.00    +0.000 A 
ENDBRANCH   1  17
TORSDOF 2
ENDMDL
MODEL 3
REMARK VINA RESULT:      -6.8     30.367     33.064
REMARK  Name = 
REMARK  2 active torsions:
REMARK  status: ('A' for Active; 'I' for Inactive)
REMARK    1  A    between atoms: C_5  and  N_6
REMARK    2  A    between atoms: C_7  and  C_9
REMARK                            x       y       z     vdW  Elec       q    Type
REMARK                         _______ _______ _______ _____ _____    ______ ____
ROOT
ATOM      1  N   UNL     1      30.585  20.593  10.176  0.00  0.00    +0.000 NA
ATOM      2  C   UNL     1      31.215  21.044   9.004  0.00  0.00    +0.000 C 
ATOM      3  O   UNL     1      31.235  22.288   8.832  0.00  0.00    +0.000 OA
ENDROOT
BRANCH   2   4
ATOM      4  C   UNL     1      31.834  20.117   8.008  0.00  0.00    +0.000 A 
ATOM      5  C   UNL     1      33.137  19.715   8.171  0.00  0.00    +0.000 A 
ATOM      6  N   UNL     1      34.051  20.084   9.235  0.00  0.00    +0.000 NA
ATOM      7  S   UNL     1      33.399  18.696   6.833  0.00  0.00    +0.000 S 
ATOM      8  C   UNL     1      31.873  18.795   6.102  0.00  0.00    +0.000 A 
ATOM      9  C   UNL     1      31.179  19.633   6.925  0.00  0.00    +0.000 A 
ATOM     10  C   UNL     1      29.784  19.765   6.312  0.00  0.00    +0.000 C 
ATOM     11  C   UNL     1      29.619  18.504   5.508  0.00  0.00    +0.000 C 
ATOM     12  C   UNL     1      31.026  18.332   4.941  0.00  0.00    +0.000 C 
ENDBRANCH   2   4
BRANCH   1  17
ATOM     13  C   UNL     1      28.184  24.122  13.994  0.00  0.00    +0.000 C 
ATOM     14  C   UNL     1      28.789  23.208  12.991  0.00  0.00    +0.000 A 
ATOM     15  C   UNL     1      28.134  22.823  11.841  0.00  0.00    +0.000 A 
ATOM     16  C   UNL     1      28.727  21.970  10.928  0.00  0.00    +0.000 A 
ATOM     17  C   UNL     1      29.995  21.469  11.127  0.00  0.00    +0.000 A 
ATOM     18  C   UNL     1      30.653  21.852  12.274  0.00  0.00    +0.000 A 
ATOM     19  C   UNL     1      32.020  21.326  12.510  0.00  0.00    +0.000 C 
ATOM     20  C   UNL     1      30.058  22.714  13.200  0.00  0.00    +0.000 A 
ENDBRANCH   1  17
TORSDOF 2
ENDMDL
MODEL 4
REMARK VINA RESULT:      -6.7     18.908     20.211
REMARK  Name = 
REMARK  2 active torsions:
REMARK  status: ('A' for Active; 'I' for Inactive)
REMARK    1  A    between atoms: C_5  and  N_6
REMARK    2  A    between atoms: C_7  and  C_9
REMARK                            x       y       z     vdW  Elec       q    Type
REMARK                         _______ _______ _______ _____ _____    ______ ____
ROOT
ATOM      1  N   UNL     1      28.909  22.306  27.004  0.00  0.00    +0.000 NA
ATOM      2  C   UNL     1      29.214  23.222  28.024  0.00  0.00    +0.000 C 
ATOM      3  O   UNL     1      29.009  24.433  27.758  0.00  0.00    +0.000 OA
ENDROOT
BRANCH   2   4
ATOM      4  C   UNL     1      29.750  22.805  29.356  0.00  0.00    +0.000 A 
ATOM      5  C   UNL     1      28.902  22.720  30.433  0.00  0.00    +0.000 A 
ATOM      6  N   UNL     1      27.478  22.993  30.463  0.00  0.00    +0.000 NA
ATOM      7  S   UNL     1      29.929  22.223  31.696  0.00  0.00    +0.000 S 
ATOM      8  C   UNL     1      31.394  22.133  30.848  0.00  0.00    +0.000 A 
ATOM      9  C   UNL     1      31.050  22.496  29.579  0.00  0.00    +0.000 A 
ATOM     10  C   UNL     1      32.340  22.437  28.761  0.00  0.00    +0.000 C 
ATOM     11  C   UNL     1      33.201  21.456  29.509  0.00  0.00    +0.000 C 
ATOM     12  C   UNL     1      32.866  21.817  30.954  0.00  0.00    +0.000 C 
ENDBRANCH   2   4
BRANCH   1  17
ATOM     13  C   UNL     1      26.831  23.872  21.903  0.00  0.00    +0.000 C 
ATOM     14  C   UNL     1      27.350  23.467  23.235  0.00  0.00    +0.000 A 
ATOM     15  C   UNL     1      26.537  23.309  24.336  0.00  0.00    +0.000 A 
ATOM     16  C   UNL     1      27.053  22.930  25.562  0.00  0.00    +0.000 A 
ATOM     17  C   UNL     1      28.400  22.695  25.736  0.00  0.00    +0.000 A 
ATOM     18  C   UNL     1      29.215  22.850  24.638  0.00  0.00    +0.000 A 
ATOM     19  C   UNL     1      30.670  22.601  24.799  0.00  0.00    +0.000 C 
ATOM     20  C   UNL     1      28.698  23.232  23.397  0.00  0.00    +0.000 A 
ENDBRANCH   1  17
TORSDOF 2
ENDMDL
MODEL 5
REMARK VINA RESULT:      -6.7      1.576      2.356
REMARK  Name = 
REMARK  2 active torsions:
REMARK  status: ('A' for Active; 'I' for Inactive)
REMARK    1  A    between atoms: C_5  and  N_6
REMARK    2  A    between atoms: C_7  and  C_9
REMARK                            x       y       z     vdW  Elec       q    Type
REMARK                         _______ _______ _______ _____ _____    ______ ____
ROOT
ATOM      1  N   UNL     1      17.486   9.655  37.243  0.00  0.00    +0.000 NA
ATOM      2  C   UNL     1      18.377  10.294  38.121  0.00  0.00    +0.000 C 
ATOM      3  O   UNL     1      18.821  11.407  37.743  0.00  0.00    +0.000 OA
ENDROOT
BRANCH   2   4
ATOM      4  C   UNL     1      18.785   9.705  39.433  0.00  0.00    +0.000 A 
ATOM      5  C   UNL     1      20.107   9.411  39.664  0.00  0.00    +0.000 A 
ATOM      6  N   UNL     1      21.227   9.603  38.762  0.00  0.00    +0.000 NA
ATOM      7  S   UNL     1      20.093   8.778  41.243  0.00  0.00    +0.000 S 
ATOM      8  C   UNL     1      18.436   8.896  41.579  0.00  0.00    +0.000 A 
ATOM      9  C   UNL     1      17.917   9.434  40.437  0.00  0.00    +0.000 A 
ATOM     10  C   UNL     1      16.413   9.563  40.679  0.00  0.00    +0.000 C 
ATOM     11  C   UNL     1      16.290   9.642  42.176  0.00  0.00    +0.000 C 
ATOM     12  C   UNL     1      17.362   8.646  42.610  0.00  0.00    +0.000 C 
ENDBRANCH   2   4
BRANCH   1  17
ATOM     13  C   UNL     1      15.923  11.872  32.200  0.00  0.00    +0.000 C 
ATOM     14  C   UNL     1      16.344  11.286  33.498  0.00  0.00    +0.000 A 
ATOM     15  C   UNL     1      17.390  10.395  33.610  0.00  0.00    +0.000 A 
ATOM     16  C   UNL     1      17.756   9.868  34.835  0.00  0.00    +0.000 A 
ATOM     17  C   UNL     1      17.093  10.208  35.994  0.00  0.00    +0.000 A 
ATOM     18  C   UNL     1      16.049  11.098  35.887  0.00  0.00    +0.000 A 
ATOM     19  C   UNL     1      15.319  11.482  37.121  0.00  0.00    +0.000 C 
ATOM     20  C   UNL     1      15.675  11.635  34.651  0.00  0.00    +0.000 A 
ENDBRANCH   1  17
TORSDOF 2
ENDMDL
MODEL 6
REMARK VINA RESULT:      -6.5     29.750     32.401
REMARK  Name = 
REMARK  2 active torsions:
REMARK  status: ('A' for Active; 'I' for Inactive)
REMARK    1  A    between atoms: C_5  and  N_6
REMARK    2  A    between atoms: C_7  and  C_9
REMARK                            x       y       z     vdW  Elec       q    Type
REMARK                         _______ _______ _______ _____ _____    ______ ____
ROOT
ATOM      1  N   UNL     1      30.571  21.556   9.290  0.00  0.00    +0.000 NA
ATOM      2  C   UNL     1      29.890  21.142  10.446  0.00  0.00    +0.000 C 
ATOM      3  O   UNL     1      29.662  19.910  10.541  0.00  0.00    +0.000 OA
ENDROOT
BRANCH   2   4
ATOM      4  C   UNL     1      29.453  22.092  11.515  0.00  0.00    +0.000 A 
ATOM      5  C   UNL     1      30.384  22.627  12.371  0.00  0.00    +0.000 A 
ATOM      6  N   UNL     1      31.814  22.387  12.386  0.00  0.00    +0.000 NA
ATOM      7  S   UNL     1      29.449  23.621  13.388  0.00  0.00    +0.000 S 
ATOM      8  C   UNL     1      27.917  23.346  12.718  0.00  0.00    +0.000 A 
ATOM      9  C   UNL     1      28.166  22.472  11.701  0.00  0.00    +0.000 A 
ATOM     10  C   UNL     1      26.811  22.180  11.055  0.00  0.00    +0.000 C 
ATOM     11  C   UNL     1      25.982  23.391  11.388  0.00  0.00    +0.000 C 
ATOM     12  C   UNL     1      26.448  23.683  12.812  0.00  0.00    +0.000 C 
ENDBRANCH   2   4
BRANCH   1  17
ATOM     13  C   UNL     1      32.231  17.938   5.173  0.00  0.00    +0.000 C 
ATOM     14  C   UNL     1      31.780  18.875   6.234  0.00  0.00    +0.000 A 
ATOM     15  C   UNL     1      30.459  19.233   6.401  0.00  0.00    +0.000 A 
ATOM     16  C   UNL     1      30.074  20.108   7.401  0.00  0.00    +0.000 A 
ATOM     17  C   UNL     1      30.990  20.659   8.270  0.00  0.00    +0.000 A 
ATOM     18  C   UNL     1      32.309  20.303   8.107  0.00  0.00    +0.000 A 
ATOM     19  C   UNL     1      33.315  20.883   9.032  0.00  0.00    +0.000 C 
ATOM     20  C   UNL     1      32.704  19.419   7.099  0.00  0.00    +0.000 A 
ENDBRANCH   1  17
TORSDOF 2
ENDMDL
MODEL 7
REMARK VINA RESULT:      -6.5     21.574     23.588
REMARK  Name = 
REMARK  2 active torsions:
REMARK  status: ('A' for Active; 'I' for Inactive)
REMARK    1  A    between atoms: C_5  and  N_6
REMARK    2  A    between atoms: C_7  and  C_9
REMARK                            x       y       z     vdW  Elec       q    Type
REMARK                         _______ _______ _______ _____ _____    ______ ____
ROOT
ATOM      1  N   UNL     1      22.641  -8.221  25.343  0.00  0.00    +0.000 NA
ATOM      2  C   UNL     1      21.353  -8.455  24.834  0.00  0.00    +0.000 C 
ATOM      3  O   UNL     1      21.286  -8.744  23.613  0.00  0.00    +0.000 OA
ENDROOT
BRANCH   2   4
ATOM      4  C   UNL     1      20.121  -8.372  25.676  0.00  0.00    +0.000 A 
ATOM      5  C   UNL     1      19.548  -9.523  26.158  0.00  0.00    +0.000 A 
ATOM      6  N   UNL     1      19.996 -10.887  25.954  0.00  0.00    +0.000 NA
ATOM      7  S   UNL     1      18.207  -8.950  27.036  0.00  0.00    +0.000 S 
ATOM      8  C   UNL     1      18.395  -7.286  26.781  0.00  0.00    +0.000 A 
ATOM      9  C   UNL     1      19.514  -7.206  26.006  0.00  0.00    +0.000 A 
ATOM     10  C   UNL     1      19.735  -5.717  25.737  0.00  0.00    +0.000 C 
ATOM     11  C   UNL     1      19.056  -5.034  26.893  0.00  0.00    +0.000 C 
ATOM     12  C   UNL     1      17.824  -5.918  27.072  0.00  0.00    +0.000 C 
ENDBRANCH   2   4
BRANCH   1  17
ATOM     13  C   UNL     1      27.382  -8.558  22.149  0.00  0.00    +0.000 C 
ATOM     14  C   UNL     1      26.154  -8.493  22.981  0.00  0.00    +0.000 A 
ATOM     15  C   UNL     1      25.600  -9.601  23.584  0.00  0.00    +0.000 A 
ATOM     16  C   UNL     1      24.455  -9.504  24.353  0.00  0.00    +0.000 A 
ATOM     17  C   UNL     1      23.817  -8.298  24.549  0.00  0.00    +0.000 A 
ATOM     18  C   UNL     1      24.367  -7.188  23.949  0.00  0.00    +0.000 A 
ATOM     19  C   UNL     1      23.700  -5.877  24.146  0.00  0.00    +0.000 C 
ATOM     20  C   UNL     1      25.525  -7.281  23.171  0.00  0.00    +0.000 A 
ENDBRANCH   1  17
TORSDOF 2
ENDMDL
MODEL 8
REMARK VINA RESULT:      -6.4     30.438     32.338
REMARK  Name = 
REMARK  2 active torsions:
REMARK  status: ('A' for Active; 'I' for Inactive)
REMARK    1  A    between atoms: C_5  and  N_6
REMARK    2  A    between atoms: C_7  and  C_9
REMARK                            x       y       z     vdW  Elec       q    Type
REMARK                         _______ _______ _______ _____ _____    ______ ____
ROOT
ATOM      1  N   UNL     1      32.155  20.615  11.348  0.00  0.00    +0.000 NA
ATOM      2  C   UNL     1      33.319  21.210  10.833  0.00  0.00    +0.000 C 
ATOM      3  O   UNL     1      33.268  22.451  10.646  0.00  0.00    +0.000 OA
ENDROOT
BRANCH   2   4
ATOM      4  C   UNL     1      34.557  20.432  10.519  0.00  0.00    +0.000 A 
ATOM      5  C   UNL     1      34.905  20.208   9.210  0.00  0.00    +0.000 A 
ATOM      6  N   UNL     1      34.201  20.645   8.019  0.00  0.00    +0.000 NA
ATOM      7  S   UNL     1      36.342  19.306   9.340  0.00  0.00    +0.000 S 
ATOM      8  C   UNL     1      36.475  19.231  11.028  0.00  0.00    +0.000 A 
ATOM      9  C   UNL     1      35.381  19.920  11.464  0.00  0.00    +0.000 A 
ATOM     10  C   UNL     1      35.444  19.884  12.992  0.00  0.00    +0.000 C 
ATOM     11  C   UNL     1      36.905  19.687  13.292  0.00  0.00    +0.000 C 
ATOM     12  C   UNL     1      37.303  18.718  12.181  0.00  0.00    +0.000 C 
ENDBRANCH   2   4
BRANCH   1  17
ATOM     13  C   UNL     1      27.411  23.575  12.584  0.00  0.00    +0.000 C 
ATOM     14  C   UNL     1      28.650  22.814  12.282  0.00  0.00    +0.000 A 
ATOM     15  C   UNL     1      29.737  22.792  13.129  0.00  0.00    +0.000 A 
ATOM     16  C   UNL     1      30.877  22.072  12.817  0.00  0.00    +0.000 A 
ATOM     17  C   UNL     1      30.975  21.348  11.649  0.00  0.00    +0.000 A 
ATOM     18  C   UNL     1      29.891  21.367  10.801  0.00  0.00    +0.000 A 
ATOM     19  C   UNL     1      29.972  20.593   9.536  0.00  0.00    +0.000 C 
ATOM     20  C   UNL     1      28.737  22.092  11.111  0.00  0.00    +0.000 A 
ENDBRANCH   1  17
TORSDOF 2
ENDMDL
MODEL 9
REMARK VINA RESULT:      -6.4     19.289     20.287
REMARK  Name = 
REMARK  2 active torsions:
REMARK  status: ('A' for Active; 'I' for Inactive)
REMARK    1  A    between atoms: C_5  and  N_6
REMARK    2  A    between atoms: C_7  and  C_9
REMARK                            x       y       z     vdW  Elec       q    Type
REMARK                         _______ _______ _______ _____ _____    ______ ____
ROOT
ATOM      1  N   UNL     1      26.478  24.995  26.018  0.00  0.00    +0.000 NA
ATOM      2  C   UNL     1      26.776  23.685  25.608  0.00  0.00    +0.000 C 
ATOM      3  O   UNL     1      25.790  22.949  25.350  0.00  0.00    +0.000 OA
ENDROOT
BRANCH   2   4
ATOM      4  C   UNL     1      28.175  23.173  25.477  0.00  0.00    +0.000 A 
ATOM      5  C   UNL     1      28.721  22.999  24.229  0.00  0.00    +0.000 A 
ATOM      6  N   UNL     1      28.097  23.257  22.946  0.00  0.00    +0.000 NA
ATOM      7  S   UNL     1      30.284  22.416  24.569  0.00  0.00    +0.000 S 
ATOM      8  C   UNL     1      30.218  22.404  26.262  0.00  0.00    +0.000 A 
ATOM      9  C   UNL     1      28.962  22.861  26.535  0.00  0.00    +0.000 A 
ATOM     10  C   UNL     1      28.840  22.870  28.059  0.00  0.00    +0.000 C 
ATOM     11  C   UNL     1      30.261  22.985  28.538  0.00  0.00    +0.000 C 
ATOM     12  C   UNL     1      30.983  22.097  27.527  0.00  0.00    +0.000 C 
ENDBRANCH   2   4
BRANCH   1  17
ATOM     13  C   UNL     1      21.132  26.988  26.502  0.00  0.00    +0.000 C 
ATOM     14  C   UNL     1      22.518  26.476  26.355  0.00  0.00    +0.000 A 
ATOM     15  C   UNL     1      23.183  26.455  25.147  0.00  0.00    +0.000 A 
ATOM     16  C   UNL     1      24.474  25.971  25.046  0.00  0.00    +0.000 A 
ATOM     17  C   UNL     1      25.152  25.488  26.145  0.00  0.00    +0.000 A 
ATOM     18  C   UNL     1      24.492  25.507  27.352  0.00  0.00    +0.000 A 
ATOM     19  C   UNL     1      25.201  24.993  28.551  0.00  0.00    +0.000 C 
ATOM     20  C   UNL     1      23.187  25.996  27.460  0.00  0.00    +0.000 A 
ENDBRANCH   1  17
TORSDOF 2
ENDMDL
MODEL 10
REMARK VINA RESULT:      -6.4      2.918      5.087
REMARK  Name = 
REMARK  2 active torsions:
REMARK  status: ('A' for Active; 'I' for Inactive)
REMARK    1  A    between atoms: C_5  and  N_6
REMARK    2  A    between atoms: C_7  and  C_9
REMARK                            x       y       z     vdW  Elec       q    Type
REMARK                         _______ _______ _______ _____ _____    ______ ____
ROOT
ATOM      1  N   UNL     1      18.869   9.671  37.912  0.00  0.00    +0.000 NA
ATOM      2  C   UNL     1      19.986  10.360  38.414  0.00  0.00    +0.000 C 
ATOM      3  O   UNL     1      19.828  11.589  38.622  0.00  0.00    +0.000 OA
ENDROOT
BRANCH   2   4
ATOM      4  C   UNL     1      21.294   9.692  38.692  0.00  0.00    +0.000 A 
ATOM      5  C   UNL     1      21.449   8.954  39.840  0.00  0.00    +0.000 A 
ATOM      6  N   UNL     1      20.467   8.718  40.880  0.00  0.00    +0.000 NA
ATOM      7  S   UNL     1      23.056   8.402  39.731  0.00  0.00    +0.000 S 
ATOM      8  C   UNL     1      23.494   9.105  38.252  0.00  0.00    +0.000 A 
ATOM      9  C   UNL     1      22.366   9.767  37.867  0.00  0.00    +0.000 A 
ATOM     10  C   UNL     1      22.702  10.429  36.530  0.00  0.00    +0.000 C 
ATOM     11  C   UNL     1      23.816   9.584  35.975  0.00  0.00    +0.000 C 
ATOM     12  C   UNL     1      24.606   9.271  37.244  0.00  0.00    +0.000 C 
ENDBRANCH   2   4
BRANCH   1  17
ATOM     13  C   UNL     1      13.856  12.211  36.811  0.00  0.00    +0.000 C 
ATOM     14  C   UNL     1      15.164  11.558  37.077  0.00  0.00    +0.000 A 
ATOM     15  C   UNL     1      16.189  11.537  36.155  0.00  0.00    +0.000 A 
ATOM     16  C   UNL     1      17.394  10.920  36.436  0.00  0.00    +0.000 A 
ATOM     17  C   UNL     1      17.623  10.299  37.645  0.00  0.00    +0.000 A 
ATOM     18  C   UNL     1      16.603  10.319  38.568  0.00  0.00    +0.000 A 
ATOM     19  C   UNL     1      16.825   9.659  39.879  0.00  0.00    +0.000 C 
ATOM     20  C   UNL     1      15.382  10.942  38.290  0.00  0.00    +0.000 A 
ENDBRANCH   1  17
TORSDOF 2
ENDMDL
