MODEL 1
REMARK VINA RESULT:      -7.6      0.000      0.000
REMARK  Name = 
REMARK  2 active torsions:
REMARK  status: ('A' for Active; 'I' for Inactive)
REMARK    1  A    between atoms: C_5  and  C_6
REMARK    2  A    between atoms: C_6  and  C_8
REMARK                            x       y       z     vdW  Elec       q    Type
REMARK                         _______ _______ _______ _____ _____    ______ ____
ROOT
ATOM      1  C   UNL     1      15.738  11.460  35.114  0.00  0.00    +0.000 A 
ATOM      2  C   UNL     1      14.970  12.464  34.573  0.00  0.00    +0.000 A 
ATOM      3  C   UNL     1      14.858  12.679  33.228  0.00  0.00    +0.000 A 
ATOM      4  C   UNL     1      15.556  11.841  32.371  0.00  0.00    +0.000 A 
ATOM      5  C   UNL     1      16.322  10.839  32.893  0.00  0.00    +0.000 A 
ATOM      6  C   UNL     1      16.424  10.636  34.254  0.00  0.00    +0.000 A 
ATOM      7  N   UNL     1      17.224   9.591  34.802  0.00  0.00    +0.000 NA
ATOM      8  O   UNL     1      15.417  12.090  31.022  0.00  0.00    +0.000 OA
ATOM      9  C   UNL     1      14.449  12.895  30.423  0.00  0.00    +0.000 C 
ATOM     10  C   UNL     1      13.544  13.590  31.391  0.00  0.00    +0.000 C 
ATOM     11  O   UNL     1      14.081  13.695  32.677  0.00  0.00    +0.000 OA
ENDROOT
BRANCH   1  12
ATOM     12  C   UNL     1      15.817  11.284  36.556  0.00  0.00    +0.000 C 
ATOM     13  O   UNL     1      14.802  10.997  37.219  0.00  0.00    +0.000 OA
BRANCH  12  18
ATOM     14  C   UNL     1      20.789  11.799  39.456  0.00  0.00    +0.000 C 
ATOM     15  C   UNL     1      19.499  11.665  38.704  0.00  0.00    +0.000 A 
ATOM     16  C   UNL     1      19.070  12.653  37.842  0.00  0.00    +0.000 A 
ATOM     17  C   UNL     1      17.887  12.526  37.155  0.00  0.00    +0.000 A 
ATOM     18  C   UNL     1      17.078  11.436  37.279  0.00  0.00    +0.000 A 
ATOM     19  C   UNL     1      17.513  10.435  38.154  0.00  0.00    +0.000 A 
ATOM     20  C   UNL     1      18.699  10.553  38.847  0.00  0.00    +0.000 A 
ENDBRANCH  12  18
ENDBRANCH   1  12
TORSDOF 2
ENDMDL
MODEL 2
REMARK VINA RESULT:      -7.1      2.329      3.321
REMARK  Name = 
REMARK  2 active torsions:
REMARK  status: ('A' for Active; 'I' for Inactive)
REMARK    1  A    between atoms: C_5  and  C_6
REMARK    2  A    between atoms: C_6  and  C_8
REMARK                            x       y       z     vdW  Elec       q    Type
REMARK                         _______ _______ _______ _____ _____    ______ ____
ROOT
ATOM      1  C   UNL     1      17.586  10.272  36.190  0.00  0.00    +0.000 A 
ATOM      2  C   UNL     1      17.625  10.056  34.832  0.00  0.00    +0.000 A 
ATOM      3  C   UNL     1      16.732  10.611  33.959  0.00  0.00    +0.000 A 
ATOM      4  C   UNL     1      15.738  11.431  34.473  0.00  0.00    +0.000 A 
ATOM      5  C   UNL     1      15.686  11.656  35.818  0.00  0.00    +0.000 A 
ATOM      6  C   UNL     1      16.597  11.087  36.686  0.00  0.00    +0.000 A 
ATOM      7  N   UNL     1      16.544  11.319  38.092  0.00  0.00    +0.000 NA
ATOM      8  O   UNL     1      14.857  11.972  33.561  0.00  0.00    +0.000 OA
ATOM      9  C   UNL     1      15.019  12.015  32.176  0.00  0.00    +0.000 C 
ATOM     10  C   UNL     1      16.253  11.328  31.682  0.00  0.00    +0.000 C 
ATOM     11  O   UNL     1      16.770  10.394  32.584  0.00  0.00    +0.000 OA
ENDROOT
BRANCH   1  12
ATOM     12  C   UNL     1      18.566   9.650  37.066  0.00  0.00    +0.000 C 
ATOM     13  O   UNL     1      18.263   8.661  37.760  0.00  0.00    +0.000 OA
BRANCH  12  18
ATOM     14  C   UNL     1      23.942  11.716  37.537  0.00  0.00    +0.000 C 
ATOM     15  C   UNL     1      22.547  11.182  37.415  0.00  0.00    +0.000 A 
ATOM     16  C   UNL     1      22.257  10.137  36.562  0.00  0.00    +0.000 A 
ATOM     17  C   UNL     1      20.977   9.650  36.453  0.00  0.00    +0.000 A 
ATOM     18  C   UNL     1      19.933  10.157  37.169  0.00  0.00    +0.000 A 
ATOM     19  C   UNL     1      20.229  11.216  38.034  0.00  0.00    +0.000 A 
ATOM     20  C   UNL     1      21.510  11.711  38.150  0.00  0.00    +0.000 A 
ENDBRANCH  12  18
ENDBRANCH   1  12
TORSDOF 2
ENDMDL
MODEL 3
REMARK VINA RESULT:      -7.1      2.805      4.234
REMARK  Name = 
REMARK  2 active torsions:
REMARK  status: ('A' for Active; 'I' for Inactive)
REMARK    1  A    between atoms: C_5  and  C_6
REMARK    2  A    between atoms: C_6  and  C_8
REMARK                            x       y       z     vdW  Elec       q    Type
REMARK                         _______ _______ _______ _____ _____    ______ ____
ROOT
ATOM      1  C   UNL     1      16.582  11.040  36.932  0.00  0.00    +0.000 A 
ATOM      2  C   UNL     1      15.670  10.815  37.936  0.00  0.00    +0.000 A 
ATOM      3  C   UNL     1      14.342  11.118  37.823  0.00  0.00    +0.000 A 
ATOM      4  C   UNL     1      13.898  11.680  36.635  0.00  0.00    +0.000 A 
ATOM      5  C   UNL     1      14.791  11.909  35.629  0.00  0.00    +0.000 A 
ATOM      6  C   UNL     1      16.129  11.597  35.760  0.00  0.00    +0.000 A 
ATOM      7  N   UNL     1      17.065  11.835  34.711  0.00  0.00    +0.000 NA
ATOM      8  O   UNL     1      12.552  11.971  36.560  0.00  0.00    +0.000 OA
ATOM      9  C   UNL     1      11.555  11.511  37.420  0.00  0.00    +0.000 C 
ATOM     10  C   UNL     1      12.062  10.686  38.560  0.00  0.00    +0.000 C 
ATOM     11  O   UNL     1      13.416  10.891  38.838  0.00  0.00    +0.000 OA
ENDROOT
BRANCH   1  12
ATOM     12  C   UNL     1      17.984  10.696  37.116  0.00  0.00    +0.000 C 
ATOM     13  O   UNL     1      18.450   9.644  36.638  0.00  0.00    +0.000 OA
BRANCH  12  18
ATOM     14  C   UNL     1      21.543  14.196  40.027  0.00  0.00    +0.000 C 
ATOM     15  C   UNL     1      20.620  13.289  39.271  0.00  0.00    +0.000 A 
ATOM     16  C   UNL     1      20.651  11.923  39.460  0.00  0.00    +0.000 A 
ATOM     17  C   UNL     1      19.803  11.095  38.765  0.00  0.00    +0.000 A 
ATOM     18  C   UNL     1      18.894  11.562  37.863  0.00  0.00    +0.000 A 
ATOM     19  C   UNL     1      18.863  12.947  37.672  0.00  0.00    +0.000 A 
ATOM     20  C   UNL     1      19.710  13.786  38.365  0.00  0.00    +0.000 A 
ENDBRANCH  12  18
ENDBRANCH   1  12
TORSDOF 2
ENDMDL
MODEL 4
REMARK VINA RESULT:      -6.9     21.055     22.487
REMARK  Name = 
REMARK  2 active torsions:
REMARK  status: ('A' for Active; 'I' for Inactive)
REMARK    1  A    between atoms: C_5  and  C_6
REMARK    2  A    between atoms: C_6  and  C_8
REMARK                            x       y       z     vdW  Elec       q    Type
REMARK                         _______ _______ _______ _____ _____    ______ ____
ROOT
ATOM      1  C   UNL     1      28.400  25.120  22.160  0.00  0.00    +0.000 A 
ATOM      2  C   UNL     1      29.138  25.189  21.001  0.00  0.00    +0.000 A 
ATOM      3  C   UNL     1      29.421  26.364  20.363  0.00  0.00    +0.000 A 
ATOM      4  C   UNL     1      28.936  27.541  20.915  0.00  0.00    +0.000 A 
ATOM      5  C   UNL     1      28.203  27.489  22.064  0.00  0.00    +0.000 A 
ATOM      6  C   UNL     1      27.927  26.293  22.696  0.00  0.00    +0.000 A 
ATOM      7  N   UNL     1      27.160  26.234  23.897  0.00  0.00    +0.000 NA
ATOM      8  O   UNL     1      29.243  28.705  20.242  0.00  0.00    +0.000 OA
ATOM      9  C   UNL     1      30.206  28.857  19.244  0.00  0.00    +0.000 C 
ATOM     10  C   UNL     1      30.891  27.586  18.854  0.00  0.00    +0.000 C 
ATOM     11  O   UNL     1      30.168  26.438  19.190  0.00  0.00    +0.000 OA
ENDROOT
BRANCH   1  12
ATOM     12  C   UNL     1      28.132  23.836  22.790  0.00  0.00    +0.000 C 
ATOM     13  O   UNL     1      27.250  23.079  22.343  0.00  0.00    +0.000 OA
BRANCH  12  18
ATOM     14  C   UNL     1      31.005  22.051  27.476  0.00  0.00    +0.000 C 
ATOM     15  C   UNL     1      30.259  22.514  26.261  0.00  0.00    +0.000 A 
ATOM     16  C   UNL     1      30.927  22.865  25.106  0.00  0.00    +0.000 A 
ATOM     17  C   UNL     1      30.239  23.289  23.995  0.00  0.00    +0.000 A 
ATOM     18  C   UNL     1      28.880  23.388  23.963  0.00  0.00    +0.000 A 
ATOM     19  C   UNL     1      28.204  23.032  25.135  0.00  0.00    +0.000 A 
ATOM     20  C   UNL     1      28.885  22.605  26.255  0.00  0.00    +0.000 A 
ENDBRANCH  12  18
ENDBRANCH   1  12
TORSDOF 2
ENDMDL
MODEL 5
REMARK VINA RESULT:      -6.8      3.996      7.510
REMARK  Name = 
REMARK  2 active torsions:
REMARK  status: ('A' for Active; 'I' for Inactive)
REMARK    1  A    between atoms: C_5  and  C_6
REMARK    2  A    between atoms: C_6  and  C_8
REMARK                            x       y       z     vdW  Elec       q    Type
REMARK                         _______ _______ _______ _____ _____    ______ ____
ROOT
ATOM      1  C   UNL     1      20.183  10.289  37.263  0.00  0.00    +0.000 A 
ATOM      2  C   UNL     1      21.258   9.767  36.581  0.00  0.00    +0.000 A 
ATOM      3  C   UNL     1      22.533  10.235  36.721  0.00  0.00    +0.000 A 
ATOM      4  C   UNL     1      22.750  11.291  37.595  0.00  0.00    +0.000 A 
ATOM      5  C   UNL     1      21.694  11.820  38.279  0.00  0.00    +0.000 A 
ATOM      6  C   UNL     1      20.412  11.334  38.125  0.00  0.00    +0.000 A 
ATOM      7  N   UNL     1      19.307  11.885  38.838  0.00  0.00    +0.000 NA
ATOM      8  O   UNL     1      24.051  11.736  37.709  0.00  0.00    +0.000 OA
ATOM      9  C   UNL     1      25.195  11.072  37.268  0.00  0.00    +0.000 C 
ATOM     10  C   UNL     1      24.921   9.792  36.543  0.00  0.00    +0.000 C 
ATOM     11  O   UNL     1      23.623   9.708  36.032  0.00  0.00    +0.000 OA
ENDROOT
BRANCH   1  12
ATOM     12  C   UNL     1      18.849   9.745  37.068  0.00  0.00    +0.000 C 
ATOM     13  O   UNL     1      18.406   8.858  37.822  0.00  0.00    +0.000 OA
BRANCH  12  18
ATOM     14  C   UNL     1      15.375  11.652  32.862  0.00  0.00    +0.000 C 
ATOM     15  C   UNL     1      16.275  11.158  33.954  0.00  0.00    +0.000 A 
ATOM     16  C   UNL     1      17.229  10.192  33.708  0.00  0.00    +0.000 A 
ATOM     17  C   UNL     1      18.052   9.742  34.711  0.00  0.00    +0.000 A 
ATOM     18  C   UNL     1      17.980  10.212  35.989  0.00  0.00    +0.000 A 
ATOM     19  C   UNL     1      17.013  11.191  36.237  0.00  0.00    +0.000 A 
ATOM     20  C   UNL     1      16.182  11.649  35.237  0.00  0.00    +0.000 A 
ENDBRANCH  12  18
ENDBRANCH   1  12
TORSDOF 2
ENDMDL
MODEL 6
REMARK VINA RESULT:      -6.7     20.576     21.963
REMARK  Name = 
REMARK  2 active torsions:
REMARK  status: ('A' for Active; 'I' for Inactive)
REMARK    1  A    between atoms: C_5  and  C_6
REMARK    2  A    between atoms: C_6  and  C_8
REMARK                            x       y       z     vdW  Elec       q    Type
REMARK                         _______ _______ _______ _____ _____    ______ ____
ROOT
ATOM      1  C   UNL     1      28.063  25.250  22.408  0.00  0.00    +0.000 A 
ATOM      2  C   UNL     1      27.353  26.272  22.993  0.00  0.00    +0.000 A 
ATOM      3  C   UNL     1      27.443  27.574  22.589  0.00  0.00    +0.000 A 
ATOM      4  C   UNL     1      28.296  27.875  21.537  0.00  0.00    +0.000 A 
ATOM      5  C   UNL     1      29.008  26.871  20.946  0.00  0.00    +0.000 A 
ATOM      6  C   UNL     1      28.904  25.561  21.367  0.00  0.00    +0.000 A 
ATOM      7  N   UNL     1      29.646  24.510  20.751  0.00  0.00    +0.000 NA
ATOM      8  O   UNL     1      28.360  29.199  21.158  0.00  0.00    +0.000 OA
ATOM      9  C   UNL     1      27.468  30.208  21.520  0.00  0.00    +0.000 C 
ATOM     10  C   UNL     1      26.399  29.771  22.471  0.00  0.00    +0.000 C 
ATOM     11  O   UNL     1      26.725  28.611  23.180  0.00  0.00    +0.000 OA
ENDROOT
BRANCH   1  12
ATOM     12  C   UNL     1      27.922  23.883  22.886  0.00  0.00    +0.000 C 
ATOM     13  O   UNL     1      27.140  23.090  22.328  0.00  0.00    +0.000 OA
BRANCH  12  18
ATOM     14  C   UNL     1      30.857  21.922  27.461  0.00  0.00    +0.000 C 
ATOM     15  C   UNL     1      30.095  22.431  26.276  0.00  0.00    +0.000 A 
ATOM     16  C   UNL     1      30.739  22.749  25.098  0.00  0.00    +0.000 A 
ATOM     17  C   UNL     1      30.037  23.215  24.013  0.00  0.00    +0.000 A 
ATOM     18  C   UNL     1      28.686  23.389  24.031  0.00  0.00    +0.000 A 
ATOM     19  C   UNL     1      28.033  23.067  25.225  0.00  0.00    +0.000 A 
ATOM     20  C   UNL     1      28.729  22.598  26.319  0.00  0.00    +0.000 A 
ENDBRANCH  12  18
ENDBRANCH   1  12
TORSDOF 2
ENDMDL
MODEL 7
REMARK VINA RESULT:      -6.6      1.643      2.262
REMARK  Name = 
REMARK  2 active torsions:
REMARK  status: ('A' for Active; 'I' for Inactive)
REMARK    1  A    between atoms: C_5  and  C_6
REMARK    2  A    between atoms: C_6  and  C_8
REMARK                            x       y       z     vdW  Elec       q    Type
REMARK                         _______ _______ _______ _____ _____    ______ ____
ROOT
ATOM      1  C   UNL     1      17.019  10.951  36.282  0.00  0.00    +0.000 A 
ATOM      2  C   UNL     1      16.263  12.100  36.308  0.00  0.00    +0.000 A 
ATOM      3  C   UNL     1      15.548  12.551  35.235  0.00  0.00    +0.000 A 
ATOM      4  C   UNL     1      15.590  11.810  34.063  0.00  0.00    +0.000 A 
ATOM      5  C   UNL     1      16.335  10.667  34.021  0.00  0.00    +0.000 A 
ATOM      6  C   UNL     1      17.052  10.226  35.115  0.00  0.00    +0.000 A 
ATOM      7  N   UNL     1      17.832   9.033  35.074  0.00  0.00    +0.000 NA
ATOM      8  O   UNL     1      14.855  12.297  33.003  0.00  0.00    +0.000 OA
ATOM      9  C   UNL     1      13.866  13.279  33.061  0.00  0.00    +0.000 C 
ATOM     10  C   UNL     1      13.677  13.879  34.418  0.00  0.00    +0.000 C 
ATOM     11  O   UNL     1      14.781  13.714  35.259  0.00  0.00    +0.000 OA
ENDROOT
BRANCH   1  12
ATOM     12  C   UNL     1      17.759  10.525  37.459  0.00  0.00    +0.000 C 
ATOM     13  O   UNL     1      17.238   9.769  38.300  0.00  0.00    +0.000 OA
BRANCH  12  18
ATOM     14  C   UNL     1      23.218  12.181  38.385  0.00  0.00    +0.000 C 
ATOM     15  C   UNL     1      21.803  11.750  38.145  0.00  0.00    +0.000 A 
ATOM     16  C   UNL     1      20.744  12.584  38.442  0.00  0.00    +0.000 A 
ATOM     17  C   UNL     1      19.448  12.186  38.220  0.00  0.00    +0.000 A 
ATOM     18  C   UNL     1      19.132  10.965  37.702  0.00  0.00    +0.000 A 
ATOM     19  C   UNL     1      20.205  10.121  37.401  0.00  0.00    +0.000 A 
ATOM     20  C   UNL     1      21.509  10.512  37.620  0.00  0.00    +0.000 A 
ENDBRANCH  12  18
ENDBRANCH   1  12
TORSDOF 2
ENDMDL
MODEL 8
REMARK VINA RESULT:      -6.6     19.530     21.687
REMARK  Name = 
REMARK  2 active torsions:
REMARK  status: ('A' for Active; 'I' for Inactive)
REMARK    1  A    between atoms: C_5  and  C_6
REMARK    2  A    between atoms: C_6  and  C_8
REMARK                            x       y       z     vdW  Elec       q    Type
REMARK                         _______ _______ _______ _____ _____    ______ ____
ROOT
ATOM      1  C   UNL     1      27.496  23.877  23.380  0.00  0.00    +0.000 A 
ATOM      2  C   UNL     1      28.107  24.280  24.545  0.00  0.00    +0.000 A 
ATOM      3  C   UNL     1      27.518  24.178  25.773  0.00  0.00    +0.000 A 
ATOM      4  C   UNL     1      26.241  23.641  25.844  0.00  0.00    +0.000 A 
ATOM      5  C   UNL     1      25.621  23.237  24.697  0.00  0.00    +0.000 A 
ATOM      6  C   UNL     1      26.231  23.347  23.464  0.00  0.00    +0.000 A 
ATOM      7  N   UNL     1      25.586  22.926  22.264  0.00  0.00    +0.000 NA
ATOM      8  O   UNL     1      25.681  23.554  27.101  0.00  0.00    +0.000 OA
ATOM      9  C   UNL     1      26.351  23.680  28.318  0.00  0.00    +0.000 C 
ATOM     10  C   UNL     1      27.803  24.014  28.186  0.00  0.00    +0.000 C 
ATOM     11  O   UNL     1      28.134  24.585  26.954  0.00  0.00    +0.000 OA
ENDROOT
BRANCH   1  12
ATOM     12  C   UNL     1      28.177  24.014  22.102  0.00  0.00    +0.000 C 
ATOM     13  O   UNL     1      28.660  23.020  21.528  0.00  0.00    +0.000 OA
BRANCH  12  18
ATOM     14  C   UNL     1      28.839  29.119  19.476  0.00  0.00    +0.000 C 
ATOM     15  C   UNL     1      28.669  27.795  20.157  0.00  0.00    +0.000 A 
ATOM     16  C   UNL     1      27.525  27.503  20.871  0.00  0.00    +0.000 A 
ATOM     17  C   UNL     1      27.372  26.288  21.493  0.00  0.00    +0.000 A 
ATOM     18  C   UNL     1      28.323  25.313  21.446  0.00  0.00    +0.000 A 
ATOM     19  C   UNL     1      29.483  25.610  20.723  0.00  0.00    +0.000 A 
ATOM     20  C   UNL     1      29.645  26.826  20.094  0.00  0.00    +0.000 A 
ENDBRANCH  12  18
ENDBRANCH   1  12
TORSDOF 2
ENDMDL
MODEL 9
REMARK VINA RESULT:      -6.5     21.976     23.660
REMARK  Name = 
REMARK  2 active torsions:
REMARK  status: ('A' for Active; 'I' for Inactive)
REMARK    1  A    between atoms: C_5  and  C_6
REMARK    2  A    between atoms: C_6  and  C_8
REMARK                            x       y       z     vdW  Elec       q    Type
REMARK                         _______ _______ _______ _____ _____    ______ ____
ROOT
ATOM      1  C   UNL     1      33.648  -4.472  33.246  0.00  0.00    +0.000 A 
ATOM      2  C   UNL     1      33.112  -4.613  31.987  0.00  0.00    +0.000 A 
ATOM      3  C   UNL     1      33.632  -5.451  31.041  0.00  0.00    +0.000 A 
ATOM      4  C   UNL     1      34.757  -6.192  31.372  0.00  0.00    +0.000 A 
ATOM      5  C   UNL     1      35.301  -6.063  32.617  0.00  0.00    +0.000 A 
ATOM      6  C   UNL     1      34.762  -5.212  33.560  0.00  0.00    +0.000 A 
ATOM      7  N   UNL     1      35.328  -5.075  34.862  0.00  0.00    +0.000 NA
ATOM      8  O   UNL     1      35.252  -7.026  30.391  0.00  0.00    +0.000 OA
ATOM      9  C   UNL     1      34.595  -7.413  29.223  0.00  0.00    +0.000 C 
ATOM     10  C   UNL     1      33.256  -6.774  29.032  0.00  0.00    +0.000 C 
ATOM     11  O   UNL     1      33.090  -5.597  29.766  0.00  0.00    +0.000 OA
ENDROOT
BRANCH   1  12
ATOM     12  C   UNL     1      33.047  -3.562  34.208  0.00  0.00    +0.000 C 
ATOM     13  O   UNL     1      32.415  -3.997  35.189  0.00  0.00    +0.000 OA
BRANCH  12  18
ATOM     14  C   UNL     1      33.412   2.183  33.701  0.00  0.00    +0.000 C 
ATOM     15  C   UNL     1      33.316   0.694  33.833  0.00  0.00    +0.000 A 
ATOM     16  C   UNL     1      34.133  -0.141  33.098  0.00  0.00    +0.000 A 
ATOM     17  C   UNL     1      34.042  -1.506  33.222  0.00  0.00    +0.000 A 
ATOM     18  C   UNL     1      33.156  -2.111  34.063  0.00  0.00    +0.000 A 
ATOM     19  C   UNL     1      32.328  -1.265  34.807  0.00  0.00    +0.000 A 
ATOM     20  C   UNL     1      32.412   0.106  34.690  0.00  0.00    +0.000 A 
ENDBRANCH  12  18
ENDBRANCH   1  12
TORSDOF 2
ENDMDL
MODEL 10
REMARK VINA RESULT:      -6.5     20.968     22.765
REMARK  Name = 
REMARK  2 active torsions:
REMARK  status: ('A' for Active; 'I' for Inactive)
REMARK    1  A    between atoms: C_5  and  C_6
REMARK    2  A    between atoms: C_6  and  C_8
REMARK                            x       y       z     vdW  Elec       q    Type
REMARK                         _______ _______ _______ _____ _____    ______ ____
ROOT
ATOM      1  C   UNL     1      33.517  -3.701  33.992  0.00  0.00    +0.000 A 
ATOM      2  C   UNL     1      33.827  -4.092  32.711  0.00  0.00    +0.000 A 
ATOM      3  C   UNL     1      33.154  -5.077  32.045  0.00  0.00    +0.000 A 
ATOM      4  C   UNL     1      32.107  -5.711  32.698  0.00  0.00    +0.000 A 
ATOM      5  C   UNL     1      31.787  -5.333  33.970  0.00  0.00    +0.000 A 
ATOM      6  C   UNL     1      32.478  -4.336  34.628  0.00  0.00    +0.000 A 
ATOM      7  N   UNL     1      32.146  -3.940  35.957  0.00  0.00    +0.000 NA
ATOM      8  O   UNL     1      31.452  -6.698  31.993  0.00  0.00    +0.000 OA
ATOM      9  C   UNL     1      31.538  -6.933  30.621  0.00  0.00    +0.000 C 
ATOM     10  C   UNL     1      32.505  -6.043  29.906  0.00  0.00    +0.000 C 
ATOM     11  O   UNL     1      33.466  -5.475  30.747  0.00  0.00    +0.000 OA
ENDROOT
BRANCH   1  12
ATOM     12  C   UNL     1      34.274  -2.645  34.647  0.00  0.00    +0.000 C 
ATOM     13  O   UNL     1      35.159  -2.919  35.480  0.00  0.00    +0.000 OA
BRANCH  12  18
ATOM     14  C   UNL     1      33.325   2.920  33.413  0.00  0.00    +0.000 C 
ATOM     15  C   UNL     1      33.572   1.476  33.732  0.00  0.00    +0.000 A 
ATOM     16  C   UNL     1      33.409   0.992  35.013  0.00  0.00    +0.000 A 
ATOM     17  C   UNL     1      33.636  -0.332  35.302  0.00  0.00    +0.000 A 
ATOM     18  C   UNL     1      34.029  -1.233  34.358  0.00  0.00    +0.000 A 
ATOM     19  C   UNL     1      34.194  -0.742  33.059  0.00  0.00    +0.000 A 
ATOM     20  C   UNL     1      33.968   0.585  32.760  0.00  0.00    +0.000 A 
ENDBRANCH  12  18
ENDBRANCH   1  12
TORSDOF 2
ENDMDL
