MODEL 1
REMARK VINA RESULT:      -7.5      0.000      0.000
REMARK  Name = 
REMARK  0 active torsions:
REMARK  status: ('A' for Active; 'I' for Inactive)
REMARK                            x       y       z     vdW  Elec       q    Type
REMARK                         _______ _______ _______ _____ _____    ______ ____
ROOT
ATOM      1  C   UNL     1      33.594   2.981  32.667  0.00  0.00    +0.000 C 
ATOM      2  C   UNL     1      33.528   2.105  33.868  0.00  0.00    +0.000 A 
ATOM      3  C   UNL     1      32.960   0.858  33.803  0.00  0.00    +0.000 A 
ATOM      4  C   UNL     1      32.889   0.028  34.903  0.00  0.00    +0.000 A 
ATOM      5  O   UNL     1      32.290  -1.232  34.754  0.00  0.00    +0.000 OA
ATOM      6  C   UNL     1      33.404   0.472  36.080  0.00  0.00    +0.000 A 
ATOM      7  C   UNL     1      33.983   1.747  36.132  0.00  0.00    +0.000 A 
ATOM      8  C   UNL     1      34.066   2.560  35.120  0.00  0.00    +0.000 A 
ATOM      9  C   UNL     1      34.543   4.041  35.005  0.00  0.00    +0.000 C 
ATOM     10  C   UNL     1      33.162   4.828  35.438  0.00  0.00    +0.000 C 
ATOM     11  C   UNL     1      33.661   6.175  34.969  0.00  0.00    +0.000 C 
ATOM     12  C   UNL     1      34.650   6.679  35.963  0.00  0.00    +0.000 C 
ATOM     13  C   UNL     1      34.167   7.915  36.674  0.00  0.00    +0.000 C 
ATOM     14  C   UNL     1      36.032   6.739  35.588  0.00  0.00    +0.000 C 
ATOM     15  O   UNL     1      36.533   6.984  34.517  0.00  0.00    +0.000 OA
ATOM     16  C   UNL     1      36.834   6.430  36.800  0.00  0.00    +0.000 C 
ATOM     17  C   UNL     1      35.874   6.131  37.896  0.00  0.00    +0.000 C 
ATOM     18  C   UNL     1      34.596   5.535  37.110  0.00  0.00    +0.000 C 
ATOM     19  C   UNL     1      35.482   4.346  36.287  0.00  0.00    +0.000 C 
ATOM     20  C   UNL     1      35.239   3.275  37.328  0.00  0.00    +0.000 C 
ATOM     21  C   UNL     1      34.652   2.204  37.343  0.00  0.00    +0.000 C 
ENDROOT
TORSDOF 0
ENDMDL
MODEL 2
REMARK VINA RESULT:      -7.3      1.536      3.120
REMARK  Name = 
REMARK  0 active torsions:
REMARK  status: ('A' for Active; 'I' for Inactive)
REMARK                            x       y       z     vdW  Elec       q    Type
REMARK                         _______ _______ _______ _____ _____    ______ ____
ROOT
ATOM      1  C   UNL     1      34.623   1.995  37.574  0.00  0.00    +0.000 C 
ATOM      2  C   UNL     1      34.163   2.208  36.174  0.00  0.00    +0.000 A 
ATOM      3  C   UNL     1      33.866   1.146  35.358  0.00  0.00    +0.000 A 
ATOM      4  C   UNL     1      33.437   1.320  34.058  0.00  0.00    +0.000 A 
ATOM      5  O   UNL     1      33.156   0.181  33.287  0.00  0.00    +0.000 OA
ATOM      6  C   UNL     1      33.306   2.588  33.586  0.00  0.00    +0.000 A 
ATOM      7  C   UNL     1      33.611   3.663  34.432  0.00  0.00    +0.000 A 
ATOM      8  C   UNL     1      34.022   3.541  35.659  0.00  0.00    +0.000 A 
ATOM      9  C   UNL     1      34.530   4.587  36.700  0.00  0.00    +0.000 C 
ATOM     10  C   UNL     1      36.112   4.700  36.254  0.00  0.00    +0.000 C 
ATOM     11  C   UNL     1      36.518   5.446  37.503  0.00  0.00    +0.000 C 
ATOM     12  C   UNL     1      36.042   6.854  37.383  0.00  0.00    +0.000 C 
ATOM     13  C   UNL     1      37.180   7.836  37.300  0.00  0.00    +0.000 C 
ATOM     14  C   UNL     1      34.970   7.291  38.227  0.00  0.00    +0.000 C 
ATOM     15  O   UNL     1      34.704   6.982  39.363  0.00  0.00    +0.000 OA
ATOM     16  C   UNL     1      34.157   8.260  37.446  0.00  0.00    +0.000 C 
ATOM     17  C   UNL     1      34.758   8.338  36.087  0.00  0.00    +0.000 C 
ATOM     18  C   UNL     1      35.411   6.875  35.890  0.00  0.00    +0.000 C 
ATOM     19  C   UNL     1      33.978   6.035  36.237  0.00  0.00    +0.000 C 
ATOM     20  C   UNL     1      33.541   5.945  34.791  0.00  0.00    +0.000 C 
ATOM     21  C   UNL     1      33.365   5.032  33.999  0.00  0.00    +0.000 C 
ENDROOT
TORSDOF 0
ENDMDL
MODEL 3
REMARK VINA RESULT:      -7.2     19.240     20.402
REMARK  Name = 
REMARK  0 active torsions:
REMARK  status: ('A' for Active; 'I' for Inactive)
REMARK                            x       y       z     vdW  Elec       q    Type
REMARK                         _______ _______ _______ _____ _____    ______ ____
ROOT
ATOM      1  C   UNL     1      27.564   1.000  16.050  0.00  0.00    +0.000 C 
ATOM      2  C   UNL     1      26.246   1.114  16.732  0.00  0.00    +0.000 A 
ATOM      3  C   UNL     1      25.419   0.027  16.856  0.00  0.00    +0.000 A 
ATOM      4  C   UNL     1      24.193   0.108  17.486  0.00  0.00    +0.000 A 
ATOM      5  O   UNL     1      23.405  -1.050  17.569  0.00  0.00    +0.000 OA
ATOM      6  C   UNL     1      23.809   1.308  17.995  0.00  0.00    +0.000 A 
ATOM      7  C   UNL     1      24.665   2.409  17.863  0.00  0.00    +0.000 A 
ATOM      8  C   UNL     1      25.824   2.375  17.275  0.00  0.00    +0.000 A 
ATOM      9  C   UNL     1      26.847   3.496  16.914  0.00  0.00    +0.000 C 
ATOM     10  C   UNL     1      26.213   4.023  15.488  0.00  0.00    +0.000 C 
ATOM     11  C   UNL     1      27.440   4.825  15.121  0.00  0.00    +0.000 C 
ATOM     12  C   UNL     1      27.455   6.064  15.950  0.00  0.00    +0.000 C 
ATOM     13  C   UNL     1      27.282   7.308  15.121  0.00  0.00    +0.000 C 
ATOM     14  C   UNL     1      28.447   6.193  16.976  0.00  0.00    +0.000 C 
ATOM     15  O   UNL     1      29.590   5.804  17.000  0.00  0.00    +0.000 OA
ATOM     16  C   UNL     1      27.825   6.933  18.105  0.00  0.00    +0.000 C 
ATOM     17  C   UNL     1      26.408   7.189  17.731  0.00  0.00    +0.000 C 
ATOM     18  C   UNL     1      26.055   5.949  16.760  0.00  0.00    +0.000 C 
ATOM     19  C   UNL     1      26.533   4.761  17.873  0.00  0.00    +0.000 C 
ATOM     20  C   UNL     1      25.150   4.588  18.462  0.00  0.00    +0.000 C 
ATOM     21  C   UNL     1      24.339   3.676  18.504  0.00  0.00    +0.000 C 
ENDROOT
TORSDOF 0
ENDMDL
MODEL 4
REMARK VINA RESULT:      -7.1     20.280     23.292
REMARK  Name = 
REMARK  0 active torsions:
REMARK  status: ('A' for Active; 'I' for Inactive)
REMARK                            x       y       z     vdW  Elec       q    Type
REMARK                         _______ _______ _______ _____ _____    ______ ____
ROOT
ATOM      1  C   UNL     1      27.387  22.726  28.068  0.00  0.00    +0.000 C 
ATOM      2  C   UNL     1      28.872  22.748  27.977  0.00  0.00    +0.000 A 
ATOM      3  C   UNL     1      29.652  22.516  29.081  0.00  0.00    +0.000 A 
ATOM      4  C   UNL     1      31.031  22.531  29.020  0.00  0.00    +0.000 A 
ATOM      5  O   UNL     1      31.756  22.286  30.196  0.00  0.00    +0.000 OA
ATOM      6  C   UNL     1      31.620  22.781  27.821  0.00  0.00    +0.000 A 
ATOM      7  C   UNL     1      30.812  23.014  26.701  0.00  0.00    +0.000 A 
ATOM      8  C   UNL     1      29.512  23.013  26.718  0.00  0.00    +0.000 A 
ATOM      9  C   UNL     1      28.452  23.374  25.631  0.00  0.00    +0.000 C 
ATOM     10  C   UNL     1      28.386  25.009  25.816  0.00  0.00    +0.000 C 
ATOM     11  C   UNL     1      27.137  25.157  24.979  0.00  0.00    +0.000 C 
ATOM     12  C   UNL     1      27.514  25.005  23.545  0.00  0.00    +0.000 C 
ATOM     13  C   UNL     1      27.314  26.277  22.765  0.00  0.00    +0.000 C 
ATOM     14  C   UNL     1      27.088  23.831  22.844  0.00  0.00    +0.000 C 
ATOM     15  O   UNL     1      26.072  23.189  22.955  0.00  0.00    +0.000 OA
ATOM     16  C   UNL     1      28.161  23.478  21.877  0.00  0.00    +0.000 C 
ATOM     17  C   UNL     1      29.264  24.458  22.072  0.00  0.00    +0.000 C 
ATOM     18  C   UNL     1      29.126  24.859  23.629  0.00  0.00    +0.000 C 
ATOM     19  C   UNL     1      29.180  23.259  24.191  0.00  0.00    +0.000 C 
ATOM     20  C   UNL     1      30.679  23.261  24.407  0.00  0.00    +0.000 C 
ATOM     21  C   UNL     1      31.409  23.163  25.380  0.00  0.00    +0.000 C 
ENDROOT
TORSDOF 0
ENDMDL
MODEL 5
REMARK VINA RESULT:      -7.1     18.985     21.676
REMARK  Name = 
REMARK  0 active torsions:
REMARK  status: ('A' for Active; 'I' for Inactive)
REMARK                            x       y       z     vdW  Elec       q    Type
REMARK                         _______ _______ _______ _____ _____    ______ ____
ROOT
ATOM      1  C   UNL     1      21.896 -10.361  24.219  0.00  0.00    +0.000 C 
ATOM      2  C   UNL     1      22.275  -8.933  24.392  0.00  0.00    +0.000 A 
ATOM      3  C   UNL     1      23.509  -8.477  24.002  0.00  0.00    +0.000 A 
ATOM      4  C   UNL     1      23.881  -7.156  24.152  0.00  0.00    +0.000 A 
ATOM      5  O   UNL     1      25.163  -6.770  23.729  0.00  0.00    +0.000 OA
ATOM      6  C   UNL     1      22.988  -6.293  24.703  0.00  0.00    +0.000 A 
ATOM      7  C   UNL     1      21.731  -6.772  25.095  0.00  0.00    +0.000 A 
ATOM      8  C   UNL     1      21.344  -8.007  24.974  0.00  0.00    +0.000 A 
ATOM      9  C   UNL     1      20.063  -8.753  25.461  0.00  0.00    +0.000 C 
ATOM     10  C   UNL     1      20.502  -9.113  27.007  0.00  0.00    +0.000 C 
ATOM     11  C   UNL     1      19.358 -10.078  27.217  0.00  0.00    +0.000 C 
ATOM     12  C   UNL     1      18.109  -9.288  27.407  0.00  0.00    +0.000 C 
ATOM     13  C   UNL     1      17.541  -9.443  28.793  0.00  0.00    +0.000 C 
ATOM     14  C   UNL     1      17.116  -9.314  26.375  0.00  0.00    +0.000 C 
ATOM     15  O   UNL     1      16.792 -10.212  25.636  0.00  0.00    +0.000 OA
ATOM     16  C   UNL     1      16.483  -7.970  26.333  0.00  0.00    +0.000 C 
ATOM     17  C   UNL     1      17.179  -7.128  27.344  0.00  0.00    +0.000 C 
ATOM     18  C   UNL     1      18.662  -7.764  27.391  0.00  0.00    +0.000 C 
ATOM     19  C   UNL     1      18.923  -7.634  25.720  0.00  0.00    +0.000 C 
ATOM     20  C   UNL     1      19.590  -6.278  25.810  0.00  0.00    +0.000 C 
ATOM     21  C   UNL     1      20.709  -5.851  25.574  0.00  0.00    +0.000 C 
ENDROOT
TORSDOF 0
ENDMDL
MODEL 6
REMARK VINA RESULT:      -6.8     20.904     22.862
REMARK  Name = 
REMARK  0 active torsions:
REMARK  status: ('A' for Active; 'I' for Inactive)
REMARK                            x       y       z     vdW  Elec       q    Type
REMARK                         _______ _______ _______ _____ _____    ______ ____
ROOT
ATOM      1  C   UNL     1      31.328  23.306  25.826  0.00  0.00    +0.000 C 
ATOM      2  C   UNL     1      30.105  23.460  24.990  0.00  0.00    +0.000 A 
ATOM      3  C   UNL     1      30.193  23.611  23.630  0.00  0.00    +0.000 A 
ATOM      4  C   UNL     1      29.073  23.753  22.836  0.00  0.00    +0.000 A 
ATOM      5  O   UNL     1      29.249  23.906  21.452  0.00  0.00    +0.000 OA
ATOM      6  C   UNL     1      27.853  23.739  23.434  0.00  0.00    +0.000 A 
ATOM      7  C   UNL     1      27.778  23.582  24.824  0.00  0.00    +0.000 A 
ATOM      8  C   UNL     1      28.808  23.449  25.606  0.00  0.00    +0.000 A 
ATOM      9  C   UNL     1      28.940  23.396  27.160  0.00  0.00    +0.000 C 
ATOM     10  C   UNL     1      28.969  25.007  27.507  0.00  0.00    +0.000 C 
ATOM     11  C   UNL     1      29.422  24.796  28.933  0.00  0.00    +0.000 C 
ATOM     12  C   UNL     1      28.257  24.311  29.727  0.00  0.00    +0.000 C 
ATOM     13  C   UNL     1      27.827  25.304  30.774  0.00  0.00    +0.000 C 
ATOM     14  C   UNL     1      28.256  22.956  30.189  0.00  0.00    +0.000 C 
ATOM     15  O   UNL     1      29.175  22.262  30.554  0.00  0.00    +0.000 OA
ATOM     16  C   UNL     1      26.850  22.476  30.155  0.00  0.00    +0.000 C 
ATOM     17  C   UNL     1      26.024  23.582  29.602  0.00  0.00    +0.000 C 
ATOM     18  C   UNL     1      27.057  24.363  28.638  0.00  0.00    +0.000 C 
ATOM     19  C   UNL     1      27.492  22.983  27.754  0.00  0.00    +0.000 C 
ATOM     20  C   UNL     1      26.450  23.200  26.677  0.00  0.00    +0.000 C 
ATOM     21  C   UNL     1      26.485  23.440  25.480  0.00  0.00    +0.000 C 
ENDROOT
TORSDOF 0
ENDMDL
MODEL 7
REMARK VINA RESULT:      -6.6     19.981     22.133
REMARK  Name = 
REMARK  0 active torsions:
REMARK  status: ('A' for Active; 'I' for Inactive)
REMARK                            x       y       z     vdW  Elec       q    Type
REMARK                         _______ _______ _______ _____ _____    ______ ____
ROOT
ATOM      1  C   UNL     1      25.549   5.222  13.032  0.00  0.00    +0.000 C 
ATOM      2  C   UNL     1      26.295   5.930  14.107  0.00  0.00    +0.000 A 
ATOM      3  C   UNL     1      27.199   6.918  13.808  0.00  0.00    +0.000 A 
ATOM      4  C   UNL     1      27.902   7.589  14.789  0.00  0.00    +0.000 A 
ATOM      5  O   UNL     1      28.810   8.585  14.399  0.00  0.00    +0.000 OA
ATOM      6  C   UNL     1      27.679   7.251  16.087  0.00  0.00    +0.000 A 
ATOM      7  C   UNL     1      26.751   6.242  16.378  0.00  0.00    +0.000 A 
ATOM      8  C   UNL     1      26.073   5.585  15.484  0.00  0.00    +0.000 A 
ATOM      9  C   UNL     1      25.112   4.361  15.593  0.00  0.00    +0.000 C 
ATOM     10  C   UNL     1      26.204   3.128  15.574  0.00  0.00    +0.000 C 
ATOM     11  C   UNL     1      25.153   2.065  15.352  0.00  0.00    +0.000 C 
ATOM     12  C   UNL     1      24.431   1.844  16.637  0.00  0.00    +0.000 C 
ATOM     13  C   UNL     1      24.669   0.466  17.196  0.00  0.00    +0.000 C 
ATOM     14  C   UNL     1      23.070   2.277  16.744  0.00  0.00    +0.000 C 
ATOM     15  O   UNL     1      22.197   2.297  15.911  0.00  0.00    +0.000 OA
ATOM     16  C   UNL     1      22.861   2.741  18.141  0.00  0.00    +0.000 C 
ATOM     17  C   UNL     1      24.167   2.616  18.843  0.00  0.00    +0.000 C 
ATOM     18  C   UNL     1      25.241   2.812  17.654  0.00  0.00    +0.000 C 
ATOM     19  C   UNL     1      24.596   4.288  17.125  0.00  0.00    +0.000 C 
ATOM     20  C   UNL     1      25.513   5.133  17.983  0.00  0.00    +0.000 C 
ATOM     21  C   UNL     1      26.400   5.942  17.760  0.00  0.00    +0.000 C 
ENDROOT
TORSDOF 0
ENDMDL
MODEL 8
REMARK VINA RESULT:      -6.5     20.294     23.415
REMARK  Name = 
REMARK  0 active torsions:
REMARK  status: ('A' for Active; 'I' for Inactive)
REMARK                            x       y       z     vdW  Elec       q    Type
REMARK                         _______ _______ _______ _____ _____    ______ ____
ROOT
ATOM      1  C   UNL     1      31.676  25.655  25.988  0.00  0.00    +0.000 C 
ATOM      2  C   UNL     1      31.403  24.397  26.735  0.00  0.00    +0.000 A 
ATOM      3  C   UNL     1      32.347  23.849  27.566  0.00  0.00    +0.000 A 
ATOM      4  C   UNL     1      32.114  22.684  28.270  0.00  0.00    +0.000 A 
ATOM      5  O   UNL     1      33.133  22.188  29.098  0.00  0.00    +0.000 OA
ATOM      6  C   UNL     1      30.909  22.074  28.126  0.00  0.00    +0.000 A 
ATOM      7  C   UNL     1      29.953  22.646  27.275  0.00  0.00    +0.000 A 
ATOM      8  C   UNL     1      30.134  23.738  26.593  0.00  0.00    +0.000 A 
ATOM      9  C   UNL     1      29.265  24.452  25.512  0.00  0.00    +0.000 C 
ATOM     10  C   UNL     1      29.725  23.617  24.168  0.00  0.00    +0.000 C 
ATOM     11  C   UNL     1      29.089  24.600  23.214  0.00  0.00    +0.000 C 
ATOM     12  C   UNL     1      27.613  24.391  23.241  0.00  0.00    +0.000 C 
ATOM     13  C   UNL     1      27.085  23.882  21.926  0.00  0.00    +0.000 C 
ATOM     14  C   UNL     1      26.787  25.397  23.838  0.00  0.00    +0.000 C 
ATOM     15  O   UNL     1      26.918  26.597  23.854  0.00  0.00    +0.000 OA
ATOM     16  C   UNL     1      25.648  24.704  24.494  0.00  0.00    +0.000 C 
ATOM     17  C   UNL     1      25.860  23.243  24.309  0.00  0.00    +0.000 C 
ATOM     18  C   UNL     1      27.467  23.114  24.229  0.00  0.00    +0.000 C 
ATOM     19  C   UNL     1      27.745  23.927  25.692  0.00  0.00    +0.000 C 
ATOM     20  C   UNL     1      27.767  22.663  26.526  0.00  0.00    +0.000 C 
ATOM     21  C   UNL     1      28.611  22.086  27.194  0.00  0.00    +0.000 C 
ENDROOT
TORSDOF 0
ENDMDL
MODEL 9
REMARK VINA RESULT:      -6.5     19.334     21.131
REMARK  Name = 
REMARK  0 active torsions:
REMARK  status: ('A' for Active; 'I' for Inactive)
REMARK                            x       y       z     vdW  Elec       q    Type
REMARK                         _______ _______ _______ _____ _____    ______ ____
ROOT
ATOM      1  C   UNL     1      24.882   3.587  14.268  0.00  0.00    +0.000 C 
ATOM      2  C   UNL     1      24.694   3.774  15.732  0.00  0.00    +0.000 A 
ATOM      3  C   UNL     1      23.584   3.283  16.371  0.00  0.00    +0.000 A 
ATOM      4  C   UNL     1      23.390   3.444  17.728  0.00  0.00    +0.000 A 
ATOM      5  O   UNL     1      22.226   2.913  18.305  0.00  0.00    +0.000 OA
ATOM      6  C   UNL     1      24.337   4.108  18.441  0.00  0.00    +0.000 A 
ATOM      7  C   UNL     1      25.467   4.603  17.776  0.00  0.00    +0.000 A 
ATOM      8  C   UNL     1      25.685   4.476  16.500  0.00  0.00    +0.000 A 
ATOM      9  C   UNL     1      26.791   5.057  15.566  0.00  0.00    +0.000 C 
ATOM     10  C   UNL     1      26.151   6.540  15.241  0.00  0.00    +0.000 C 
ATOM     11  C   UNL     1      27.119   6.825  14.116  0.00  0.00    +0.000 C 
ATOM     12  C   UNL     1      28.443   7.163  14.711  0.00  0.00    +0.000 C 
ATOM     13  C   UNL     1      28.840   8.590  14.445  0.00  0.00    +0.000 C 
ATOM     14  C   UNL     1      29.521   6.231  14.563  0.00  0.00    +0.000 C 
ATOM     15  O   UNL     1      29.786   5.495  13.644  0.00  0.00    +0.000 OA
ATOM     16  C   UNL     1      30.339   6.299  15.802  0.00  0.00    +0.000 C 
ATOM     17  C   UNL     1      29.672   7.267  16.714  0.00  0.00    +0.000 C 
ATOM     18  C   UNL     1      28.117   7.148  16.299  0.00  0.00    +0.000 C 
ATOM     19  C   UNL     1      28.047   5.465  16.501  0.00  0.00    +0.000 C 
ATOM     20  C   UNL     1      27.574   5.539  17.938  0.00  0.00    +0.000 C 
ATOM     21  C   UNL     1      26.557   5.211  18.528  0.00  0.00    +0.000 C 
ENDROOT
TORSDOF 0
ENDMDL
MODEL 10
REMARK VINA RESULT:      -6.5     21.480     24.397
REMARK  Name = 
REMARK  0 active torsions:
REMARK  status: ('A' for Active; 'I' for Inactive)
REMARK                            x       y       z     vdW  Elec       q    Type
REMARK                         _______ _______ _______ _____ _____    ______ ____
ROOT
ATOM      1  C   UNL     1      29.054  27.651  24.269  0.00  0.00    +0.000 C 
ATOM      2  C   UNL     1      29.170  26.444  23.407  0.00  0.00    +0.000 A 
ATOM      3  C   UNL     1      29.378  26.557  22.056  0.00  0.00    +0.000 A 
ATOM      4  C   UNL     1      29.490  25.450  21.238  0.00  0.00    +0.000 A 
ATOM      5  O   UNL     1      29.701  25.652  19.865  0.00  0.00    +0.000 OA
ATOM      6  C   UNL     1      29.391  24.218  21.803  0.00  0.00    +0.000 A 
ATOM      7  C   UNL     1      29.180  24.118  23.184  0.00  0.00    +0.000 A 
ATOM      8  C   UNL     1      29.065  25.133  23.988  0.00  0.00    +0.000 A 
ATOM      9  C   UNL     1      28.702  25.233  25.502  0.00  0.00    +0.000 C 
ATOM     10  C   UNL     1      27.058  25.204  25.412  0.00  0.00    +0.000 C 
ATOM     11  C   UNL     1      26.869  25.632  26.849  0.00  0.00    +0.000 C 
ATOM     12  C   UNL     1      27.170  24.465  27.727  0.00  0.00    +0.000 C 
ATOM     13  C   UNL     1      25.953  23.981  28.470  0.00  0.00    +0.000 C 
ATOM     14  C   UNL     1      28.355  24.497  28.531  0.00  0.00    +0.000 C 
ATOM     15  O   UNL     1      28.895  25.429  29.077  0.00  0.00    +0.000 OA
ATOM     16  C   UNL     1      28.878  23.108  28.606  0.00  0.00    +0.000 C 
ATOM     17  C   UNL     1      27.986  22.260  27.770  0.00  0.00    +0.000 C 
ATOM     18  C   UNL     1      27.449  23.288  26.648  0.00  0.00    +0.000 C 
ATOM     19  C   UNL     1      28.997  23.787  26.164  0.00  0.00    +0.000 C 
ATOM     20  C   UNL     1      29.109  22.762  25.055  0.00  0.00    +0.000 C 
ATOM     21  C   UNL     1      29.191  22.816  23.838  0.00  0.00    +0.000 C 
ENDROOT
TORSDOF 0
ENDMDL
