MODEL 1
REMARK VINA RESULT:      -8.5      0.000      0.000
REMARK  Name = 
REMARK  3 active torsions:
REMARK  status: ('A' for Active; 'I' for Inactive)
REMARK    1  A    between atoms: C_5  and  C_6
REMARK    2  A    between atoms: N_8  and  C_9
REMARK    3  A    between atoms: C_9  and  C_10
REMARK                            x       y       z     vdW  Elec       q    Type
REMARK                         _______ _______ _______ _____ _____    ______ ____
ROOT
ATOM      1  C   UNL     1      15.105  11.777  36.164  0.00  0.00    +0.000 A 
ATOM      2  N   UNL     1      16.382  11.606  36.539  0.00  0.00    +0.000 NA
ATOM      3  N   UNL     1      16.679  11.078  37.731  0.00  0.00    +0.000 N 
ATOM      4  C   UNL     1      15.705  10.707  38.584  0.00  0.00    +0.000 A 
ATOM      5  O   UNL     1      15.953  10.210  39.710  0.00  0.00    +0.000 OA
ATOM      6  C   UNL     1      14.363  10.856  38.263  0.00  0.00    +0.000 A 
ATOM      7  C   UNL     1      13.344  10.494  39.093  0.00  0.00    +0.000 A 
ATOM      8  C   UNL     1      12.025  10.665  38.721  0.00  0.00    +0.000 A 
ATOM      9  C   UNL     1      11.770  11.212  37.482  0.00  0.00    +0.000 A 
ATOM     10  C   UNL     1      12.781  11.585  36.621  0.00  0.00    +0.000 A 
ATOM     11  C   UNL     1      14.088  11.403  37.021  0.00  0.00    +0.000 A 
ENDROOT
BRANCH   1  16
ATOM     12  C   UNL     1      13.719  14.103  31.093  0.00  0.00    +0.000 C 
ATOM     13  C   UNL     1      14.089  13.484  32.386  0.00  0.00    +0.000 A 
ATOM     14  C   UNL     1      13.717  14.062  33.569  0.00  0.00    +0.000 A 
ATOM     15  C   UNL     1      14.038  13.523  34.782  0.00  0.00    +0.000 A 
ATOM     16  C   UNL     1      14.759  12.358  34.848  0.00  0.00    +0.000 A 
ATOM     17  C   UNL     1      15.151  11.747  33.689  0.00  0.00    +0.000 A 
ATOM     18  C   UNL     1      14.821  12.301  32.469  0.00  0.00    +0.000 A 
ATOM     19  C   UNL     1      15.219  11.680  31.170  0.00  0.00    +0.000 C 
ENDBRANCH   1  16
BRANCH   3  20
ATOM     20  C   UNL     1      18.062  10.898  38.127  0.00  0.00    +0.000 C 
BRANCH  20  21
ATOM     21  C   UNL     1      18.607   9.601  37.572  0.00  0.00    +0.000 C 
ATOM     22  O   UNL     1      19.406   9.015  38.526  0.00  0.00    +0.000 OA
ENDBRANCH  20  21
ENDBRANCH   3  20
TORSDOF 3
ENDMDL
MODEL 2
REMARK VINA RESULT:      -7.1      3.665      8.228
REMARK  Name = 
REMARK  3 active torsions:
REMARK  status: ('A' for Active; 'I' for Inactive)
REMARK    1  A    between atoms: C_5  and  C_6
REMARK    2  A    between atoms: N_8  and  C_9
REMARK    3  A    between atoms: C_9  and  C_10
REMARK                            x       y       z     vdW  Elec       q    Type
REMARK                         _______ _______ _______ _____ _____    ______ ____
ROOT
ATOM      1  C   UNL     1      16.101   9.806  39.948  0.00  0.00    +0.000 A 
ATOM      2  N   UNL     1      14.994  10.365  39.438  0.00  0.00    +0.000 NA
ATOM      3  N   UNL     1      15.002  10.907  38.216  0.00  0.00    +0.000 N 
ATOM      4  C   UNL     1      16.123  10.907  37.468  0.00  0.00    +0.000 A 
ATOM      5  O   UNL     1      16.161  11.408  36.318  0.00  0.00    +0.000 OA
ATOM      6  C   UNL     1      17.304  10.347  37.933  0.00  0.00    +0.000 A 
ATOM      7  C   UNL     1      18.461  10.322  37.212  0.00  0.00    +0.000 A 
ATOM      8  C   UNL     1      19.609   9.750  37.723  0.00  0.00    +0.000 A 
ATOM      9  C   UNL     1      19.550   9.204  38.987  0.00  0.00    +0.000 A 
ATOM     10  C   UNL     1      18.393   9.214  39.738  0.00  0.00    +0.000 A 
ATOM     11  C   UNL     1      17.263   9.792  39.200  0.00  0.00    +0.000 A 
ENDROOT
BRANCH   1  16
ATOM     12  C   UNL     1      16.105   7.377  45.158  0.00  0.00    +0.000 C 
ATOM     13  C   UNL     1      16.111   8.026  43.827  0.00  0.00    +0.000 A 
ATOM     14  C   UNL     1      15.822   7.309  42.699  0.00  0.00    +0.000 A 
ATOM     15  C   UNL     1      15.816   7.870  41.454  0.00  0.00    +0.000 A 
ATOM     16  C   UNL     1      16.108   9.201  41.299  0.00  0.00    +0.000 A 
ATOM     17  C   UNL     1      16.402   9.955  42.400  0.00  0.00    +0.000 A 
ATOM     18  C   UNL     1      16.404   9.377  43.654  0.00  0.00    +0.000 A 
ATOM     19  C   UNL     1      16.716  10.148  44.894  0.00  0.00    +0.000 C 
ENDBRANCH   1  16
BRANCH   3  20
ATOM     20  C   UNL     1      13.800  11.509  37.674  0.00  0.00    +0.000 C 
BRANCH  20  21
ATOM     21  C   UNL     1      12.580  10.712  38.079  0.00  0.00    +0.000 C 
ATOM     22  O   UNL     1      11.650  10.786  37.069  0.00  0.00    +0.000 OA
ENDBRANCH  20  21
ENDBRANCH   3  20
TORSDOF 3
ENDMDL
MODEL 3
REMARK VINA RESULT:      -7.0     22.088     24.169
REMARK  Name = 
REMARK  3 active torsions:
REMARK  status: ('A' for Active; 'I' for Inactive)
REMARK    1  A    between atoms: C_5  and  C_6
REMARK    2  A    between atoms: N_8  and  C_9
REMARK    3  A    between atoms: C_9  and  C_10
REMARK                            x       y       z     vdW  Elec       q    Type
REMARK                         _______ _______ _______ _____ _____    ______ ____
ROOT
ATOM      1  C   UNL     1      31.063  24.251  24.423  0.00  0.00    +0.000 A 
ATOM      2  N   UNL     1      30.491  24.410  23.220  0.00  0.00    +0.000 NA
ATOM      3  N   UNL     1      29.274  23.915  22.972  0.00  0.00    +0.000 N 
ATOM      4  C   UNL     1      28.594  23.244  23.922  0.00  0.00    +0.000 A 
ATOM      5  O   UNL     1      27.450  22.767  23.718  0.00  0.00    +0.000 OA
ATOM      6  C   UNL     1      29.125  23.042  25.187  0.00  0.00    +0.000 A 
ATOM      7  C   UNL     1      28.475  22.370  26.180  0.00  0.00    +0.000 A 
ATOM      8  C   UNL     1      29.051  22.198  27.422  0.00  0.00    +0.000 A 
ATOM      9  C   UNL     1      30.307  22.728  27.630  0.00  0.00    +0.000 A 
ATOM     10  C   UNL     1      30.987  23.413  26.645  0.00  0.00    +0.000 A 
ATOM     11  C   UNL     1      30.386  23.568  25.414  0.00  0.00    +0.000 A 
ENDROOT
BRANCH   1  16
ATOM     12  C   UNL     1      36.253  26.437  25.578  0.00  0.00    +0.000 C 
ATOM     13  C   UNL     1      34.928  25.851  25.274  0.00  0.00    +0.000 A 
ATOM     14  C   UNL     1      33.784  26.582  25.445  0.00  0.00    +0.000 A 
ATOM     15  C   UNL     1      32.544  26.079  25.175  0.00  0.00    +0.000 A 
ATOM     16  C   UNL     1      32.409  24.794  24.714  0.00  0.00    +0.000 A 
ATOM     17  C   UNL     1      33.526  24.028  24.528  0.00  0.00    +0.000 A 
ATOM     18  C   UNL     1      34.775  24.547  24.804  0.00  0.00    +0.000 A 
ATOM     19  C   UNL     1      36.031  23.762  24.621  0.00  0.00    +0.000 C 
ENDBRANCH   1  16
BRANCH   3  20
ATOM     20  C   UNL     1      28.664  24.092  21.668  0.00  0.00    +0.000 C 
BRANCH  20  21
ATOM     21  C   UNL     1      28.976  25.467  21.120  0.00  0.00    +0.000 C 
ATOM     22  O   UNL     1      29.783  25.328  20.015  0.00  0.00    +0.000 OA
ENDBRANCH  20  21
ENDBRANCH   3  20
TORSDOF 3
ENDMDL
MODEL 4
REMARK VINA RESULT:      -6.9      3.129      6.698
REMARK  Name = 
REMARK  3 active torsions:
REMARK  status: ('A' for Active; 'I' for Inactive)
REMARK    1  A    between atoms: C_5  and  C_6
REMARK    2  A    between atoms: N_8  and  C_9
REMARK    3  A    between atoms: C_9  and  C_10
REMARK                            x       y       z     vdW  Elec       q    Type
REMARK                         _______ _______ _______ _____ _____    ______ ____
ROOT
ATOM      1  C   UNL     1      18.704  11.040  37.911  0.00  0.00    +0.000 A 
ATOM      2  N   UNL     1      17.919  11.635  37.001  0.00  0.00    +0.000 NA
ATOM      3  N   UNL     1      16.587  11.574  37.104  0.00  0.00    +0.000 N 
ATOM      4  C   UNL     1      16.003  10.914  38.122  0.00  0.00    +0.000 A 
ATOM      5  O   UNL     1      14.755  10.839  38.244  0.00  0.00    +0.000 OA
ATOM      6  C   UNL     1      16.753  10.275  39.098  0.00  0.00    +0.000 A 
ATOM      7  C   UNL     1      16.206   9.595  40.146  0.00  0.00    +0.000 A 
ATOM      8  C   UNL     1      17.002   8.978  41.090  0.00  0.00    +0.000 A 
ATOM      9  C   UNL     1      18.370   9.069  40.941  0.00  0.00    +0.000 A 
ATOM     10  C   UNL     1      18.950   9.751  39.891  0.00  0.00    +0.000 A 
ATOM     11  C   UNL     1      18.129  10.357  38.965  0.00  0.00    +0.000 A 
ENDROOT
BRANCH   1  16
ATOM     12  C   UNL     1      24.435  11.344  37.571  0.00  0.00    +0.000 C 
ATOM     13  C   UNL     1      22.960  11.243  37.645  0.00  0.00    +0.000 A 
ATOM     14  C   UNL     1      22.224  12.205  38.280  0.00  0.00    +0.000 A 
ATOM     15  C   UNL     1      20.863  12.149  38.370  0.00  0.00    +0.000 A 
ATOM     16  C   UNL     1      20.180  11.098  37.811  0.00  0.00    +0.000 A 
ATOM     17  C   UNL     1      20.876  10.115  37.167  0.00  0.00    +0.000 A 
ATOM     18  C   UNL     1      22.252  10.182  37.082  0.00  0.00    +0.000 A 
ATOM     19  C   UNL     1      23.068   9.139  36.391  0.00  0.00    +0.000 C 
ENDBRANCH   1  16
BRANCH   3  20
ATOM     20  C   UNL     1      15.747  12.221  36.115  0.00  0.00    +0.000 C 
BRANCH  20  21
ATOM     21  C   UNL     1      15.794  11.466  34.805  0.00  0.00    +0.000 C 
ATOM     22  O   UNL     1      15.058  12.157  33.871  0.00  0.00    +0.000 OA
ENDBRANCH  20  21
ENDBRANCH   3  20
TORSDOF 3
ENDMDL
MODEL 5
REMARK VINA RESULT:      -6.8     19.280     21.386
REMARK  Name = 
REMARK  3 active torsions:
REMARK  status: ('A' for Active; 'I' for Inactive)
REMARK    1  A    between atoms: C_5  and  C_6
REMARK    2  A    between atoms: N_8  and  C_9
REMARK    3  A    between atoms: C_9  and  C_10
REMARK                            x       y       z     vdW  Elec       q    Type
REMARK                         _______ _______ _______ _____ _____    ______ ____
ROOT
ATOM      1  C   UNL     1      30.052  22.789  28.287  0.00  0.00    +0.000 A 
ATOM      2  N   UNL     1      28.890  22.776  28.955  0.00  0.00    +0.000 NA
ATOM      3  N   UNL     1      27.725  22.812  28.300  0.00  0.00    +0.000 N 
ATOM      4  C   UNL     1      27.691  22.864  26.954  0.00  0.00    +0.000 A 
ATOM      5  O   UNL     1      26.612  22.899  26.311  0.00  0.00    +0.000 OA
ATOM      6  C   UNL     1      28.855  22.881  26.199  0.00  0.00    +0.000 A 
ATOM      7  C   UNL     1      28.869  22.932  24.837  0.00  0.00    +0.000 A 
ATOM      8  C   UNL     1      30.058  22.947  24.136  0.00  0.00    +0.000 A 
ATOM      9  C   UNL     1      31.233  22.907  24.856  0.00  0.00    +0.000 A 
ATOM     10  C   UNL     1      31.248  22.854  26.235  0.00  0.00    +0.000 A 
ATOM     11  C   UNL     1      30.044  22.841  26.907  0.00  0.00    +0.000 A 
ENDROOT
BRANCH   1  16
ATOM     12  C   UNL     1      35.099  22.546  31.030  0.00  0.00    +0.000 C 
ATOM     13  C   UNL     1      33.798  22.635  30.329  0.00  0.00    +0.000 A 
ATOM     14  C   UNL     1      33.231  21.525  29.764  0.00  0.00    +0.000 A 
ATOM     15  C   UNL     1      32.033  21.565  29.109  0.00  0.00    +0.000 A 
ATOM     16  C   UNL     1      31.350  22.749  28.998  0.00  0.00    +0.000 A 
ATOM     17  C   UNL     1      31.881  23.883  29.548  0.00  0.00    +0.000 A 
ATOM     18  C   UNL     1      33.092  23.831  30.208  0.00  0.00    +0.000 A 
ATOM     19  C   UNL     1      33.722  25.033  30.829  0.00  0.00    +0.000 C 
ENDBRANCH   1  16
BRANCH   3  20
ATOM     20  C   UNL     1      26.473  22.798  29.032  0.00  0.00    +0.000 C 
BRANCH  20  21
ATOM     21  C   UNL     1      26.706  22.402  30.473  0.00  0.00    +0.000 C 
ATOM     22  O   UNL     1      25.733  21.506  30.847  0.00  0.00    +0.000 OA
ENDBRANCH  20  21
ENDBRANCH   3  20
TORSDOF 3
ENDMDL
MODEL 6
REMARK VINA RESULT:      -6.8     19.442     22.509
REMARK  Name = 
REMARK  3 active torsions:
REMARK  status: ('A' for Active; 'I' for Inactive)
REMARK    1  A    between atoms: C_5  and  C_6
REMARK    2  A    between atoms: N_8  and  C_9
REMARK    3  A    between atoms: C_9  and  C_10
REMARK                            x       y       z     vdW  Elec       q    Type
REMARK                         _______ _______ _______ _____ _____    ______ ____
ROOT
ATOM      1  C   UNL     1      23.884   3.471  17.879  0.00  0.00    +0.000 A 
ATOM      2  N   UNL     1      22.624   3.865  18.112  0.00  0.00    +0.000 NA
ATOM      3  N   UNL     1      21.618   2.984  18.096  0.00  0.00    +0.000 N 
ATOM      4  C   UNL     1      21.846   1.681  17.845  0.00  0.00    +0.000 A 
ATOM      5  O   UNL     1      20.921   0.830  17.824  0.00  0.00    +0.000 OA
ATOM      6  C   UNL     1      23.124   1.203  17.596  0.00  0.00    +0.000 A 
ATOM      7  C   UNL     1      23.402  -0.107  17.338  0.00  0.00    +0.000 A 
ATOM      8  C   UNL     1      24.695  -0.528  17.097  0.00  0.00    +0.000 A 
ATOM      9  C   UNL     1      25.698   0.417  17.125  0.00  0.00    +0.000 A 
ATOM     10  C   UNL     1      25.445   1.749  17.384  0.00  0.00    +0.000 A 
ATOM     11  C   UNL     1      24.144   2.138  17.621  0.00  0.00    +0.000 A 
ENDROOT
BRANCH   1  16
ATOM     12  C   UNL     1      28.272   7.182  18.020  0.00  0.00    +0.000 C 
ATOM     13  C   UNL     1      27.136   6.234  17.959  0.00  0.00    +0.000 A 
ATOM     14  C   UNL     1      26.837   5.433  19.026  0.00  0.00    +0.000 A 
ATOM     15  C   UNL     1      25.798   4.546  19.010  0.00  0.00    +0.000 A 
ATOM     16  C   UNL     1      25.009   4.433  17.894  0.00  0.00    +0.000 A 
ATOM     17  C   UNL     1      25.273   5.215  16.805  0.00  0.00    +0.000 A 
ATOM     18  C   UNL     1      26.325   6.108  16.832  0.00  0.00    +0.000 A 
ATOM     19  C   UNL     1      26.662   6.990  15.675  0.00  0.00    +0.000 C 
ENDBRANCH   1  16
BRANCH   3  20
ATOM     20  C   UNL     1      20.259   3.422  18.349  0.00  0.00    +0.000 C 
BRANCH  20  21
ATOM     21  C   UNL     1      20.255   4.730  19.108  0.00  0.00    +0.000 C 
ATOM     22  O   UNL     1      19.320   4.653  20.114  0.00  0.00    +0.000 OA
ENDBRANCH  20  21
ENDBRANCH   3  20
TORSDOF 3
ENDMDL
MODEL 7
REMARK VINA RESULT:      -6.7      2.947      5.496
REMARK  Name = 
REMARK  3 active torsions:
REMARK  status: ('A' for Active; 'I' for Inactive)
REMARK    1  A    between atoms: C_5  and  C_6
REMARK    2  A    between atoms: N_8  and  C_9
REMARK    3  A    between atoms: C_9  and  C_10
REMARK                            x       y       z     vdW  Elec       q    Type
REMARK                         _______ _______ _______ _____ _____    ______ ____
ROOT
ATOM      1  C   UNL     1      18.538   9.732  37.987  0.00  0.00    +0.000 A 
ATOM      2  N   UNL     1      18.359   8.528  38.551  0.00  0.00    +0.000 NA
ATOM      3  N   UNL     1      18.952   8.222  39.709  0.00  0.00    +0.000 N 
ATOM      4  C   UNL     1      19.744   9.113  40.337  0.00  0.00    +0.000 A 
ATOM      5  O   UNL     1      20.314   8.853  41.426  0.00  0.00    +0.000 OA
ATOM      6  C   UNL     1      19.974  10.376  39.811  0.00  0.00    +0.000 A 
ATOM      7  C   UNL     1      20.766  11.310  40.410  0.00  0.00    +0.000 A 
ATOM      8  C   UNL     1      20.960  12.553  39.841  0.00  0.00    +0.000 A 
ATOM      9  C   UNL     1      20.327  12.822  38.647  0.00  0.00    +0.000 A 
ATOM     10  C   UNL     1      19.519  11.896  38.019  0.00  0.00    +0.000 A 
ATOM     11  C   UNL     1      19.345  10.664  38.611  0.00  0.00    +0.000 A 
ENDROOT
BRANCH   1  16
ATOM     12  C   UNL     1      16.079  11.065  32.965  0.00  0.00    +0.000 C 
ATOM     13  C   UNL     1      16.693  10.736  34.271  0.00  0.00    +0.000 A 
ATOM     14  C   UNL     1      17.820   9.964  34.338  0.00  0.00    +0.000 A 
ATOM     15  C   UNL     1      18.418   9.638  35.522  0.00  0.00    +0.000 A 
ATOM     16  C   UNL     1      17.889  10.087  36.705  0.00  0.00    +0.000 A 
ATOM     17  C   UNL     1      16.763  10.862  36.684  0.00  0.00    +0.000 A 
ATOM     18  C   UNL     1      16.168  11.186  35.481  0.00  0.00    +0.000 A 
ATOM     19  C   UNL     1      14.938  12.028  35.393  0.00  0.00    +0.000 C 
ENDBRANCH   1  16
BRANCH   3  20
ATOM     20  C   UNL     1      18.752   6.918  40.311  0.00  0.00    +0.000 C 
BRANCH  20  21
ATOM     21  C   UNL     1      17.378   6.828  40.937  0.00  0.00    +0.000 C 
ATOM     22  O   UNL     1      17.245   5.596  41.533  0.00  0.00    +0.000 OA
ENDBRANCH  20  21
ENDBRANCH   3  20
TORSDOF 3
ENDMDL
MODEL 8
REMARK VINA RESULT:      -6.6     21.437     23.248
REMARK  Name = 
REMARK  3 active torsions:
REMARK  status: ('A' for Active; 'I' for Inactive)
REMARK    1  A    between atoms: C_5  and  C_6
REMARK    2  A    between atoms: N_8  and  C_9
REMARK    3  A    between atoms: C_9  and  C_10
REMARK                            x       y       z     vdW  Elec       q    Type
REMARK                         _______ _______ _______ _____ _____    ______ ____
ROOT
ATOM      1  C   UNL     1      19.327  -8.892  26.892  0.00  0.00    +0.000 A 
ATOM      2  N   UNL     1      20.346  -9.567  26.341  0.00  0.00    +0.000 NA
ATOM      3  N   UNL     1      21.264  -8.935  25.603  0.00  0.00    +0.000 N 
ATOM      4  C   UNL     1      21.187  -7.607  25.392  0.00  0.00    +0.000 A 
ATOM      5  O   UNL     1      22.033  -6.986  24.703  0.00  0.00    +0.000 OA
ATOM      6  C   UNL     1      20.159  -6.846  25.931  0.00  0.00    +0.000 A 
ATOM      7  C   UNL     1      20.039  -5.501  25.746  0.00  0.00    +0.000 A 
ATOM      8  C   UNL     1      18.995  -4.793  26.306  0.00  0.00    +0.000 A 
ATOM      9  C   UNL     1      18.074  -5.489  27.060  0.00  0.00    +0.000 A 
ATOM     10  C   UNL     1      18.171  -6.850  27.265  0.00  0.00    +0.000 A 
ATOM     11  C   UNL     1      19.225  -7.529  26.692  0.00  0.00    +0.000 A 
ENDROOT
BRANCH   1  16
ATOM     12  C   UNL     1      15.309 -11.579  30.005  0.00  0.00    +0.000 C 
ATOM     13  C   UNL     1      16.356 -10.879  29.226  0.00  0.00    +0.000 A 
ATOM     14  C   UNL     1      16.343 -10.904  27.859  0.00  0.00    +0.000 A 
ATOM     15  C   UNL     1      17.289 -10.271  27.104  0.00  0.00    +0.000 A 
ATOM     16  C   UNL     1      18.303  -9.577  27.713  0.00  0.00    +0.000 A 
ATOM     17  C   UNL     1      18.354  -9.526  29.078  0.00  0.00    +0.000 A 
ATOM     18  C   UNL     1      17.392 -10.169  29.831  0.00  0.00    +0.000 A 
ATOM     19  C   UNL     1      17.393 -10.150  31.324  0.00  0.00    +0.000 C 
ENDBRANCH   1  16
BRANCH   3  20
ATOM     20  C   UNL     1      22.363  -9.674  25.011  0.00  0.00    +0.000 C 
BRANCH  20  21
ATOM     21  C   UNL     1      23.180 -10.358  26.085  0.00  0.00    +0.000 C 
ATOM     22  O   UNL     1      24.497 -10.378  25.691  0.00  0.00    +0.000 OA
ENDBRANCH  20  21
ENDBRANCH   3  20
TORSDOF 3
ENDMDL
MODEL 9
REMARK VINA RESULT:      -6.6     20.798     23.127
REMARK  Name = 
REMARK  3 active torsions:
REMARK  status: ('A' for Active; 'I' for Inactive)
REMARK    1  A    between atoms: C_5  and  C_6
REMARK    2  A    between atoms: N_8  and  C_9
REMARK    3  A    between atoms: C_9  and  C_10
REMARK                            x       y       z     vdW  Elec       q    Type
REMARK                         _______ _______ _______ _____ _____    ______ ____
ROOT
ATOM      1  C   UNL     1      30.053  24.017  25.138  0.00  0.00    +0.000 A 
ATOM      2  N   UNL     1      29.587  23.459  26.265  0.00  0.00    +0.000 NA
ATOM      3  N   UNL     1      28.344  22.972  26.323  0.00  0.00    +0.000 N 
ATOM      4  C   UNL     1      27.528  23.030  25.253  0.00  0.00    +0.000 A 
ATOM      5  O   UNL     1      26.355  22.581  25.278  0.00  0.00    +0.000 OA
ATOM      6  C   UNL     1      27.943  23.594  24.055  0.00  0.00    +0.000 A 
ATOM      7  C   UNL     1      27.154  23.675  22.946  0.00  0.00    +0.000 A 
ATOM      8  C   UNL     1      27.618  24.247  21.779  0.00  0.00    +0.000 A 
ATOM      9  C   UNL     1      28.908  24.735  21.768  0.00  0.00    +0.000 A 
ATOM     10  C   UNL     1      29.729  24.665  22.875  0.00  0.00    +0.000 A 
ATOM     11  C   UNL     1      29.236  24.089  24.026  0.00  0.00    +0.000 A 
ENDROOT
BRANCH   1  16
ATOM     12  C   UNL     1      35.419  26.049  24.797  0.00  0.00    +0.000 C 
ATOM     13  C   UNL     1      34.029  25.550  24.892  0.00  0.00    +0.000 A 
ATOM     14  C   UNL     1      33.731  24.249  24.595  0.00  0.00    +0.000 A 
ATOM     15  C   UNL     1      32.462  23.750  24.671  0.00  0.00    +0.000 A 
ATOM     16  C   UNL     1      31.426  24.561  25.057  0.00  0.00    +0.000 A 
ATOM     17  C   UNL     1      31.679  25.869  25.363  0.00  0.00    +0.000 A 
ATOM     18  C   UNL     1      32.966  26.363  25.283  0.00  0.00    +0.000 A 
ATOM     19  C   UNL     1      33.305  27.781  25.605  0.00  0.00    +0.000 C 
ENDBRANCH   1  16
BRANCH   3  20
ATOM     20  C   UNL     1      27.850  22.370  27.547  0.00  0.00    +0.000 C 
BRANCH  20  21
ATOM     21  C   UNL     1      27.414  23.439  28.524  0.00  0.00    +0.000 C 
ATOM     22  O   UNL     1      26.040  23.458  28.572  0.00  0.00    +0.000 OA
ENDBRANCH  20  21
ENDBRANCH   3  20
TORSDOF 3
ENDMDL
MODEL 10
REMARK VINA RESULT:      -6.6     19.846     21.964
REMARK  Name = 
REMARK  3 active torsions:
REMARK  status: ('A' for Active; 'I' for Inactive)
REMARK    1  A    between atoms: C_5  and  C_6
REMARK    2  A    between atoms: N_8  and  C_9
REMARK    3  A    between atoms: C_9  and  C_10
REMARK                            x       y       z     vdW  Elec       q    Type
REMARK                         _______ _______ _______ _____ _____    ______ ____
ROOT
ATOM      1  C   UNL     1      29.419  23.294  26.110  0.00  0.00    +0.000 A 
ATOM      2  N   UNL     1      29.536  23.247  24.775  0.00  0.00    +0.000 NA
ATOM      3  N   UNL     1      28.470  23.427  23.989  0.00  0.00    +0.000 N 
ATOM      4  C   UNL     1      27.253  23.659  24.517  0.00  0.00    +0.000 A 
ATOM      5  O   UNL     1      26.234  23.833  23.804  0.00  0.00    +0.000 OA
ATOM      6  C   UNL     1      27.058  23.720  25.890  0.00  0.00    +0.000 A 
ATOM      7  C   UNL     1      25.847  23.953  26.470  0.00  0.00    +0.000 A 
ATOM      8  C   UNL     1      25.710  24.004  27.843  0.00  0.00    +0.000 A 
ATOM      9  C   UNL     1      26.838  23.812  28.611  0.00  0.00    +0.000 A 
ATOM     10  C   UNL     1      28.077  23.576  28.051  0.00  0.00    +0.000 A 
ATOM     11  C   UNL     1      28.181  23.531  26.677  0.00  0.00    +0.000 A 
ENDROOT
BRANCH   1  16
ATOM     12  C   UNL     1      33.935  22.444  29.564  0.00  0.00    +0.000 C 
ATOM     13  C   UNL     1      32.781  22.688  28.670  0.00  0.00    +0.000 A 
ATOM     14  C   UNL     1      31.842  21.715  28.459  0.00  0.00    +0.000 A 
ATOM     15  C   UNL     1      30.763  21.900  27.642  0.00  0.00    +0.000 A 
ATOM     16  C   UNL     1      30.589  23.096  26.995  0.00  0.00    +0.000 A 
ATOM     17  C   UNL     1      31.503  24.096  27.177  0.00  0.00    +0.000 A 
ATOM     18  C   UNL     1      32.590  23.898  28.005  0.00  0.00    +0.000 A 
ATOM     19  C   UNL     1      33.621  24.951  28.245  0.00  0.00    +0.000 C 
ENDBRANCH   1  16
BRANCH   3  20
ATOM     20  C   UNL     1      28.608  23.375  22.546  0.00  0.00    +0.000 C 
BRANCH  20  21
ATOM     21  C   UNL     1      29.193  24.667  22.022  0.00  0.00    +0.000 C 
ATOM     22  O   UNL     1      29.712  24.440  20.769  0.00  0.00    +0.000 OA
ENDBRANCH  20  21
ENDBRANCH   3  20
TORSDOF 3
ENDMDL
