MODEL 1
REMARK VINA RESULT:      -6.8      0.000      0.000
REMARK  Name = 
REMARK  2 active torsions:
REMARK  status: ('A' for Active; 'I' for Inactive)
REMARK    1  A    between atoms: C_10  and  N_11
REMARK    2  A    between atoms: N_11  and  C_12
REMARK                            x       y       z     vdW  Elec       q    Type
REMARK                         _______ _______ _______ _____ _____    ______ ____
ROOT
ATOM      1  C   UNL     1      26.667  22.761  30.483  0.00  0.00    +0.000 C 
ATOM      2  C   UNL     1      26.090  23.762  29.575  0.00  0.00    +0.000 A 
ATOM      3  C   UNL     1      25.512  24.907  30.067  0.00  0.00    +0.000 A 
ATOM      4  C   UNL     1      24.959  25.869  29.216  0.00  0.00    +0.000 A 
ATOM      5  C   UNL     1      24.997  25.658  27.843  0.00  0.00    +0.000 A 
ATOM      6  N   UNL     1      24.472  26.565  26.981  0.00  0.00    +0.000 NA
ATOM      7  C   UNL     1      24.499  26.379  25.654  0.00  0.00    +0.000 A 
ATOM      8  C   UNL     1      23.901  27.423  24.773  0.00  0.00    +0.000 C 
ATOM      9  C   UNL     1      25.077  25.232  25.150  0.00  0.00    +0.000 A 
ATOM     10  C   UNL     1      25.624  24.279  25.978  0.00  0.00    +0.000 A 
ATOM     11  C   UNL     1      25.577  24.508  27.346  0.00  0.00    +0.000 A 
ATOM     12  C   UNL     1      26.113  23.582  28.221  0.00  0.00    +0.000 A 
ENDROOT
BRANCH  10  13
ATOM     13  N   UNL     1      26.227  23.091  25.521  0.00  0.00    +0.000 NA
BRANCH  13  14
ATOM     14  C   UNL     1      27.593  23.020  25.142  0.00  0.00    +0.000 A 
ATOM     15  C   UNL     1      28.569  22.520  25.963  0.00  0.00    +0.000 A 
ATOM     16  C   UNL     1      29.870  22.499  25.487  0.00  0.00    +0.000 A 
ATOM     17  C   UNL     1      30.190  22.959  24.242  0.00  0.00    +0.000 A 
ATOM     18  C   UNL     1      29.215  23.459  23.421  0.00  0.00    +0.000 A 
ATOM     19  O   UNL     1      29.576  23.926  22.146  0.00  0.00    +0.000 OA
ATOM     20  C   UNL     1      27.924  23.489  23.871  0.00  0.00    +0.000 A 
ENDBRANCH  13  14
ENDBRANCH  10  13
TORSDOF 2
ENDMDL
MODEL 2
REMARK VINA RESULT:      -6.6      1.918      4.053
REMARK  Name = 
REMARK  2 active torsions:
REMARK  status: ('A' for Active; 'I' for Inactive)
REMARK    1  A    between atoms: C_10  and  N_11
REMARK    2  A    between atoms: N_11  and  C_12
REMARK                            x       y       z     vdW  Elec       q    Type
REMARK                         _______ _______ _______ _____ _____    ______ ____
ROOT
ATOM      1  C   UNL     1      23.651  25.675  27.250  0.00  0.00    +0.000 C 
ATOM      2  C   UNL     1      24.929  24.988  27.482  0.00  0.00    +0.000 A 
ATOM      3  C   UNL     1      25.435  24.857  28.752  0.00  0.00    +0.000 A 
ATOM      4  C   UNL     1      26.650  24.206  28.989  0.00  0.00    +0.000 A 
ATOM      5  C   UNL     1      27.357  23.683  27.913  0.00  0.00    +0.000 A 
ATOM      6  N   UNL     1      28.540  23.044  28.098  0.00  0.00    +0.000 NA
ATOM      7  C   UNL     1      29.237  22.534  27.073  0.00  0.00    +0.000 A 
ATOM      8  C   UNL     1      30.529  21.846  27.358  0.00  0.00    +0.000 C 
ATOM      9  C   UNL     1      28.737  22.661  25.793  0.00  0.00    +0.000 A 
ATOM     10  C   UNL     1      27.543  23.299  25.549  0.00  0.00    +0.000 A 
ATOM     11  C   UNL     1      26.850  23.814  26.636  0.00  0.00    +0.000 A 
ATOM     12  C   UNL     1      25.646  24.465  26.444  0.00  0.00    +0.000 A 
ENDROOT
BRANCH  10  13
ATOM     13  N   UNL     1      26.984  23.459  24.266  0.00  0.00    +0.000 NA
BRANCH  13  14
ATOM     14  C   UNL     1      27.418  24.460  23.358  0.00  0.00    +0.000 A 
ATOM     15  C   UNL     1      26.962  25.751  23.399  0.00  0.00    +0.000 A 
ATOM     16  C   UNL     1      27.456  26.645  22.462  0.00  0.00    +0.000 A 
ATOM     17  C   UNL     1      28.369  26.269  21.519  0.00  0.00    +0.000 A 
ATOM     18  C   UNL     1      28.825  24.979  21.478  0.00  0.00    +0.000 A 
ATOM     19  O   UNL     1      29.765  24.623  20.495  0.00  0.00    +0.000 OA
ATOM     20  C   UNL     1      28.351  24.081  22.393  0.00  0.00    +0.000 A 
ENDBRANCH  13  14
ENDBRANCH  10  13
TORSDOF 2
ENDMDL
MODEL 3
REMARK VINA RESULT:      -6.5      3.661      6.165
REMARK  Name = 
REMARK  2 active torsions:
REMARK  status: ('A' for Active; 'I' for Inactive)
REMARK    1  A    between atoms: C_10  and  N_11
REMARK    2  A    between atoms: N_11  and  C_12
REMARK                            x       y       z     vdW  Elec       q    Type
REMARK                         _______ _______ _______ _____ _____    ______ ____
ROOT
ATOM      1  C   UNL     1      34.687  24.858  24.500  0.00  0.00    +0.000 C 
ATOM      2  C   UNL     1      33.601  24.467  25.411  0.00  0.00    +0.000 A 
ATOM      3  C   UNL     1      33.746  24.594  26.772  0.00  0.00    +0.000 A 
ATOM      4  C   UNL     1      32.723  24.226  27.651  0.00  0.00    +0.000 A 
ATOM      5  C   UNL     1      31.536  23.723  27.133  0.00  0.00    +0.000 A 
ATOM      6  N   UNL     1      30.517  23.355  27.950  0.00  0.00    +0.000 NA
ATOM      7  C   UNL     1      29.365  22.867  27.470  0.00  0.00    +0.000 A 
ATOM      8  C   UNL     1      28.292  22.484  28.433  0.00  0.00    +0.000 C 
ATOM      9  C   UNL     1      29.210  22.736  26.105  0.00  0.00    +0.000 A 
ATOM     10  C   UNL     1      30.210  23.094  25.230  0.00  0.00    +0.000 A 
ATOM     11  C   UNL     1      31.388  23.596  25.767  0.00  0.00    +0.000 A 
ATOM     12  C   UNL     1      32.424  23.970  24.931  0.00  0.00    +0.000 A 
ENDROOT
BRANCH  10  13
ATOM     13  N   UNL     1      30.108  22.983  23.830  0.00  0.00    +0.000 NA
BRANCH  13  14
ATOM     14  C   UNL     1      29.249  23.806  23.055  0.00  0.00    +0.000 A 
ATOM     15  C   UNL     1      29.549  25.103  22.733  0.00  0.00    +0.000 A 
ATOM     16  C   UNL     1      28.635  25.812  21.971  0.00  0.00    +0.000 A 
ATOM     17  C   UNL     1      27.464  25.253  21.546  0.00  0.00    +0.000 A 
ATOM     18  C   UNL     1      27.162  23.957  21.868  0.00  0.00    +0.000 A 
ATOM     19  O   UNL     1      25.949  23.410  21.416  0.00  0.00    +0.000 OA
ATOM     20  C   UNL     1      28.052  23.239  22.619  0.00  0.00    +0.000 A 
ENDBRANCH  13  14
ENDBRANCH  10  13
TORSDOF 2
ENDMDL
MODEL 4
REMARK VINA RESULT:      -6.4     17.155     18.694
REMARK  Name = 
REMARK  2 active torsions:
REMARK  status: ('A' for Active; 'I' for Inactive)
REMARK    1  A    between atoms: C_10  and  N_11
REMARK    2  A    between atoms: N_11  and  C_12
REMARK                            x       y       z     vdW  Elec       q    Type
REMARK                         _______ _______ _______ _____ _____    ______ ____
ROOT
ATOM      1  C   UNL     1      20.398  15.150  39.928  0.00  0.00    +0.000 C 
ATOM      2  C   UNL     1      21.195  14.104  39.270  0.00  0.00    +0.000 A 
ATOM      3  C   UNL     1      22.546  14.265  39.080  0.00  0.00    +0.000 A 
ATOM      4  C   UNL     1      23.316  13.279  38.456  0.00  0.00    +0.000 A 
ATOM      5  C   UNL     1      22.698  12.114  38.020  0.00  0.00    +0.000 A 
ATOM      6  N   UNL     1      23.409  11.131  37.410  0.00  0.00    +0.000 NA
ATOM      7  C   UNL     1      22.830  10.000  36.983  0.00  0.00    +0.000 A 
ATOM      8  C   UNL     1      23.679   8.968  36.321  0.00  0.00    +0.000 C 
ATOM      9  C   UNL     1      21.473   9.829  37.169  0.00  0.00    +0.000 A 
ATOM     10  C   UNL     1      20.705  10.793  37.781  0.00  0.00    +0.000 A 
ATOM     11  C   UNL     1      21.341  11.950  38.210  0.00  0.00    +0.000 A 
ATOM     12  C   UNL     1      20.614  12.948  38.831  0.00  0.00    +0.000 A 
ENDROOT
BRANCH  10  13
ATOM     13  N   UNL     1      19.319  10.674  37.999  0.00  0.00    +0.000 NA
BRANCH  13  14
ATOM     14  C   UNL     1      18.374  10.660  36.939  0.00  0.00    +0.000 A 
ATOM     15  C   UNL     1      18.315   9.659  36.006  0.00  0.00    +0.000 A 
ATOM     16  C   UNL     1      17.351   9.749  35.015  0.00  0.00    +0.000 A 
ATOM     17  C   UNL     1      16.479  10.798  34.952  0.00  0.00    +0.000 A 
ATOM     18  C   UNL     1      16.538  11.800  35.884  0.00  0.00    +0.000 A 
ATOM     19  O   UNL     1      15.627  12.866  35.792  0.00  0.00    +0.000 OA
ATOM     20  C   UNL     1      17.482  11.729  36.871  0.00  0.00    +0.000 A 
ENDBRANCH  13  14
ENDBRANCH  10  13
TORSDOF 2
ENDMDL
MODEL 5
REMARK VINA RESULT:      -6.2      3.287      5.467
REMARK  Name = 
REMARK  2 active torsions:
REMARK  status: ('A' for Active; 'I' for Inactive)
REMARK    1  A    between atoms: C_10  and  N_11
REMARK    2  A    between atoms: N_11  and  C_12
REMARK                            x       y       z     vdW  Elec       q    Type
REMARK                         _______ _______ _______ _____ _____    ______ ____
ROOT
ATOM      1  C   UNL     1      28.193  23.493  22.486  0.00  0.00    +0.000 C 
ATOM      2  C   UNL     1      27.651  23.501  23.853  0.00  0.00    +0.000 A 
ATOM      3  C   UNL     1      26.396  23.998  24.109  0.00  0.00    +0.000 A 
ATOM      4  C   UNL     1      25.868  24.012  25.403  0.00  0.00    +0.000 A 
ATOM      5  C   UNL     1      26.632  23.511  26.450  0.00  0.00    +0.000 A 
ATOM      6  N   UNL     1      26.158  23.506  27.722  0.00  0.00    +0.000 NA
ATOM      7  C   UNL     1      26.880  23.027  28.744  0.00  0.00    +0.000 A 
ATOM      8  C   UNL     1      26.288  23.056  30.113  0.00  0.00    +0.000 C 
ATOM      9  C   UNL     1      28.142  22.525  28.498  0.00  0.00    +0.000 A 
ATOM     10  C   UNL     1      28.671  22.506  27.228  0.00  0.00    +0.000 A 
ATOM     11  C   UNL     1      27.893  23.011  26.195  0.00  0.00    +0.000 A 
ATOM     12  C   UNL     1      28.379  23.015  24.901  0.00  0.00    +0.000 A 
ENDROOT
BRANCH  10  13
ATOM     13  N   UNL     1      29.951  22.007  26.916  0.00  0.00    +0.000 NA
BRANCH  13  14
ATOM     14  C   UNL     1      31.134  22.490  27.534  0.00  0.00    +0.000 A 
ATOM     15  C   UNL     1      31.720  23.680  27.193  0.00  0.00    +0.000 A 
ATOM     16  C   UNL     1      32.875  24.052  27.862  0.00  0.00    +0.000 A 
ATOM     17  C   UNL     1      33.428  23.269  28.834  0.00  0.00    +0.000 A 
ATOM     18  C   UNL     1      32.844  22.078  29.175  0.00  0.00    +0.000 A 
ATOM     19  O   UNL     1      33.437  21.294  30.179  0.00  0.00    +0.000 OA
ATOM     20  C   UNL     1      31.703  21.693  28.527  0.00  0.00    +0.000 A 
ENDBRANCH  13  14
ENDBRANCH  10  13
TORSDOF 2
ENDMDL
MODEL 6
REMARK VINA RESULT:      -6.2      3.669      6.497
REMARK  Name = 
REMARK  2 active torsions:
REMARK  status: ('A' for Active; 'I' for Inactive)
REMARK    1  A    between atoms: C_10  and  N_11
REMARK    2  A    between atoms: N_11  and  C_12
REMARK                            x       y       z     vdW  Elec       q    Type
REMARK                         _______ _______ _______ _____ _____    ______ ____
ROOT
ATOM      1  C   UNL     1      33.953  24.192  28.282  0.00  0.00    +0.000 C 
ATOM      2  C   UNL     1      33.029  24.106  27.143  0.00  0.00    +0.000 A 
ATOM      3  C   UNL     1      33.389  24.588  25.908  0.00  0.00    +0.000 A 
ATOM      4  C   UNL     1      32.520  24.513  24.815  0.00  0.00    +0.000 A 
ATOM      5  C   UNL     1      31.268  23.937  24.986  0.00  0.00    +0.000 A 
ATOM      6  N   UNL     1      30.394  23.844  23.951  0.00  0.00    +0.000 NA
ATOM      7  C   UNL     1      29.181  23.292  24.097  0.00  0.00    +0.000 A 
ATOM      8  C   UNL     1      28.278  23.227  22.911  0.00  0.00    +0.000 C 
ATOM      9  C   UNL     1      28.810  22.805  25.333  0.00  0.00    +0.000 A 
ATOM     10  C   UNL     1      29.656  22.874  26.416  0.00  0.00    +0.000 A 
ATOM     11  C   UNL     1      30.904  23.452  26.225  0.00  0.00    +0.000 A 
ATOM     12  C   UNL     1      31.791  23.545  27.281  0.00  0.00    +0.000 A 
ENDROOT
BRANCH  10  13
ATOM     13  N   UNL     1      29.333  22.394  27.700  0.00  0.00    +0.000 NA
BRANCH  13  14
ATOM     14  C   UNL     1      28.269  22.928  28.474  0.00  0.00    +0.000 A 
ATOM     15  C   UNL     1      27.937  24.257  28.466  0.00  0.00    +0.000 A 
ATOM     16  C   UNL     1      26.879  24.667  29.261  0.00  0.00    +0.000 A 
ATOM     17  C   UNL     1      26.178  23.789  30.037  0.00  0.00    +0.000 A 
ATOM     18  C   UNL     1      26.510  22.461  30.046  0.00  0.00    +0.000 A 
ATOM     19  O   UNL     1      25.770  21.582  30.856  0.00  0.00    +0.000 OA
ATOM     20  C   UNL     1      27.551  22.035  29.268  0.00  0.00    +0.000 A 
ENDBRANCH  13  14
ENDBRANCH  10  13
TORSDOF 2
ENDMDL
MODEL 7
REMARK VINA RESULT:      -6.2      3.029      4.813
REMARK  Name = 
REMARK  2 active torsions:
REMARK  status: ('A' for Active; 'I' for Inactive)
REMARK    1  A    between atoms: C_10  and  N_11
REMARK    2  A    between atoms: N_11  and  C_12
REMARK                            x       y       z     vdW  Elec       q    Type
REMARK                         _______ _______ _______ _____ _____    ______ ____
ROOT
ATOM      1  C   UNL     1      33.775  21.936  29.362  0.00  0.00    +0.000 C 
ATOM      2  C   UNL     1      32.342  22.238  29.489  0.00  0.00    +0.000 A 
ATOM      3  C   UNL     1      31.781  22.477  30.720  0.00  0.00    +0.000 A 
ATOM      4  C   UNL     1      30.420  22.765  30.857  0.00  0.00    +0.000 A 
ATOM      5  C   UNL     1      29.621  22.810  29.721  0.00  0.00    +0.000 A 
ATOM      6  N   UNL     1      28.295  23.087  29.809  0.00  0.00    +0.000 NA
ATOM      7  C   UNL     1      27.509  23.134  28.724  0.00  0.00    +0.000 A 
ATOM      8  C   UNL     1      26.061  23.444  28.903  0.00  0.00    +0.000 C 
ATOM      9  C   UNL     1      28.063  22.896  27.483  0.00  0.00    +0.000 A 
ATOM     10  C   UNL     1      29.401  22.611  27.337  0.00  0.00    +0.000 A 
ATOM     11  C   UNL     1      30.183  22.571  28.483  0.00  0.00    +0.000 A 
ATOM     12  C   UNL     1      31.533  22.289  28.390  0.00  0.00    +0.000 A 
ENDROOT
BRANCH  10  13
ATOM     13  N   UNL     1      30.021  22.359  26.097  0.00  0.00    +0.000 NA
BRANCH  13  14
ATOM     14  C   UNL     1      29.899  23.234  24.986  0.00  0.00    +0.000 A 
ATOM     15  C   UNL     1      30.602  24.405  24.878  0.00  0.00    +0.000 A 
ATOM     16  C   UNL     1      30.403  25.181  23.748  0.00  0.00    +0.000 A 
ATOM     17  C   UNL     1      29.535  24.809  22.762  0.00  0.00    +0.000 A 
ATOM     18  C   UNL     1      28.831  23.639  22.870  0.00  0.00    +0.000 A 
ATOM     19  O   UNL     1      27.944  23.284  21.839  0.00  0.00    +0.000 OA
ATOM     20  C   UNL     1      29.013  22.858  23.977  0.00  0.00    +0.000 A 
ENDBRANCH  13  14
ENDBRANCH  10  13
TORSDOF 2
ENDMDL
MODEL 8
REMARK VINA RESULT:      -6.2      1.280      3.505
REMARK  Name = 
REMARK  2 active torsions:
REMARK  status: ('A' for Active; 'I' for Inactive)
REMARK    1  A    between atoms: C_10  and  N_11
REMARK    2  A    between atoms: N_11  and  C_12
REMARK                            x       y       z     vdW  Elec       q    Type
REMARK                         _______ _______ _______ _____ _____    ______ ____
ROOT
ATOM      1  C   UNL     1      24.374  26.606  24.977  0.00  0.00    +0.000 C 
ATOM      2  C   UNL     1      24.789  25.886  26.190  0.00  0.00    +0.000 A 
ATOM      3  C   UNL     1      24.377  26.307  27.432  0.00  0.00    +0.000 A 
ATOM      4  C   UNL     1      24.763  25.633  28.594  0.00  0.00    +0.000 A 
ATOM      5  C   UNL     1      25.580  24.515  28.487  0.00  0.00    +0.000 A 
ATOM      6  N   UNL     1      25.978  23.831  29.590  0.00  0.00    +0.000 NA
ATOM      7  C   UNL     1      26.767  22.751  29.507  0.00  0.00    +0.000 A 
ATOM      8  C   UNL     1      27.161  22.054  30.765  0.00  0.00    +0.000 C 
ATOM      9  C   UNL     1      27.187  22.321  28.265  0.00  0.00    +0.000 A 
ATOM     10  C   UNL     1      26.813  22.976  27.114  0.00  0.00    +0.000 A 
ATOM     11  C   UNL     1      25.995  24.091  27.241  0.00  0.00    +0.000 A 
ATOM     12  C   UNL     1      25.592  24.784  26.116  0.00  0.00    +0.000 A 
ENDROOT
BRANCH  10  13
ATOM     13  N   UNL     1      27.209  22.584  25.821  0.00  0.00    +0.000 NA
BRANCH  13  14
ATOM     14  C   UNL     1      28.507  22.838  25.305  0.00  0.00    +0.000 A 
ATOM     15  C   UNL     1      29.654  22.518  25.982  0.00  0.00    +0.000 A 
ATOM     16  C   UNL     1      30.867  22.813  25.382  0.00  0.00    +0.000 A 
ATOM     17  C   UNL     1      30.939  23.406  24.154  0.00  0.00    +0.000 A 
ATOM     18  C   UNL     1      29.793  23.727  23.477  0.00  0.00    +0.000 A 
ATOM     19  O   UNL     1      29.899  24.337  22.215  0.00  0.00    +0.000 OA
ATOM     20  C   UNL     1      28.585  23.444  24.051  0.00  0.00    +0.000 A 
ENDBRANCH  13  14
ENDBRANCH  10  13
TORSDOF 2
ENDMDL
MODEL 9
REMARK VINA RESULT:      -6.1     18.902     21.799
REMARK  Name = 
REMARK  2 active torsions:
REMARK  status: ('A' for Active; 'I' for Inactive)
REMARK    1  A    between atoms: C_10  and  N_11
REMARK    2  A    between atoms: N_11  and  C_12
REMARK                            x       y       z     vdW  Elec       q    Type
REMARK                         _______ _______ _______ _____ _____    ______ ____
ROOT
ATOM      1  C   UNL     1      23.911   9.945  39.685  0.00  0.00    +0.000 C 
ATOM      2  C   UNL     1      22.853   9.879  38.666  0.00  0.00    +0.000 A 
ATOM      3  C   UNL     1      23.155  10.010  37.332  0.00  0.00    +0.000 A 
ATOM      4  C   UNL     1      22.160   9.949  36.351  0.00  0.00    +0.000 A 
ATOM      5  C   UNL     1      20.840   9.751  36.739  0.00  0.00    +0.000 A 
ATOM      6  N   UNL     1      19.844   9.685  35.819  0.00  0.00    +0.000 NA
ATOM      7  C   UNL     1      18.565   9.496  36.174  0.00  0.00    +0.000 A 
ATOM      8  C   UNL     1      17.528   9.435  35.104  0.00  0.00    +0.000 C 
ATOM      9  C   UNL     1      18.253   9.364  37.511  0.00  0.00    +0.000 A 
ATOM     10  C   UNL     1      19.223   9.422  38.485  0.00  0.00    +0.000 A 
ATOM     11  C   UNL     1      20.536   9.619  38.078  0.00  0.00    +0.000 A 
ATOM     12  C   UNL     1      21.548   9.686  39.017  0.00  0.00    +0.000 A 
ENDROOT
BRANCH  10  13
ATOM     13  N   UNL     1      18.964   9.293  39.863  0.00  0.00    +0.000 NA
BRANCH  13  14
ATOM     14  C   UNL     1      18.310   8.163  40.419  0.00  0.00    +0.000 A 
ATOM     15  C   UNL     1      17.088   8.237  41.034  0.00  0.00    +0.000 A 
ATOM     16  C   UNL     1      16.543   7.068  41.540  0.00  0.00    +0.000 A 
ATOM     17  C   UNL     1      17.190   5.870  41.441  0.00  0.00    +0.000 A 
ATOM     18  C   UNL     1      18.412   5.795  40.828  0.00  0.00    +0.000 A 
ATOM     19  O   UNL     1      19.053   4.547  40.742  0.00  0.00    +0.000 OA
ATOM     20  C   UNL     1      18.967   6.937  40.320  0.00  0.00    +0.000 A 
ENDBRANCH  13  14
ENDBRANCH  10  13
TORSDOF 2
ENDMDL
MODEL 10
REMARK VINA RESULT:      -6.0      3.219      4.725
REMARK  Name = 
REMARK  2 active torsions:
REMARK  status: ('A' for Active; 'I' for Inactive)
REMARK    1  A    between atoms: C_10  and  N_11
REMARK    2  A    between atoms: N_11  and  C_12
REMARK                            x       y       z     vdW  Elec       q    Type
REMARK                         _______ _______ _______ _____ _____    ______ ____
ROOT
ATOM      1  C   UNL     1      26.321  23.203  29.955  0.00  0.00    +0.000 C 
ATOM      2  C   UNL     1      26.594  23.410  28.525  0.00  0.00    +0.000 A 
ATOM      3  C   UNL     1      25.726  24.130  27.741  0.00  0.00    +0.000 A 
ATOM      4  C   UNL     1      25.973  24.334  26.380  0.00  0.00    +0.000 A 
ATOM      5  C   UNL     1      27.122  23.796  25.813  0.00  0.00    +0.000 A 
ATOM      6  N   UNL     1      27.400  23.971  24.496  0.00  0.00    +0.000 NA
ATOM      7  C   UNL     1      28.502  23.460  23.932  0.00  0.00    +0.000 A 
ATOM      8  C   UNL     1      28.737  23.695  22.478  0.00  0.00    +0.000 C 
ATOM      9  C   UNL     1      29.380  22.734  24.711  0.00  0.00    +0.000 A 
ATOM     10  C   UNL     1      29.148  22.527  26.051  0.00  0.00    +0.000 A 
ATOM     11  C   UNL     1      27.995  23.073  26.600  0.00  0.00    +0.000 A 
ATOM     12  C   UNL     1      27.715  22.892  27.941  0.00  0.00    +0.000 A 
ENDROOT
BRANCH  10  13
ATOM     13  N   UNL     1      30.007  21.797  26.896  0.00  0.00    +0.000 NA
BRANCH  13  14
ATOM     14  C   UNL     1      31.151  22.371  27.509  0.00  0.00    +0.000 A 
ATOM     15  C   UNL     1      31.688  23.567  27.111  0.00  0.00    +0.000 A 
ATOM     16  C   UNL     1      32.807  24.032  27.782  0.00  0.00    +0.000 A 
ATOM     17  C   UNL     1      33.372  23.335  28.811  0.00  0.00    +0.000 A 
ATOM     18  C   UNL     1      32.836  22.140  29.209  0.00  0.00    +0.000 A 
ATOM     19  O   UNL     1      33.441  21.445  30.271  0.00  0.00    +0.000 OA
ATOM     20  C   UNL     1      31.731  21.662  28.560  0.00  0.00    +0.000 A 
ENDBRANCH  13  14
ENDBRANCH  10  13
TORSDOF 2
ENDMDL
