MODEL 1
REMARK VINA RESULT:      -6.3      0.000      0.000
REMARK  Name = 
REMARK  4 active torsions:
REMARK  status: ('A' for Active; 'I' for Inactive)
REMARK    1  A    between atoms: C_8  and  N_9
REMARK    2  A    between atoms: C_10  and  O_12
REMARK    3  A    between atoms: O_12  and  C_13
REMARK    4  A    between atoms: C_13  and  C_14
REMARK                            x       y       z     vdW  Elec       q    Type
REMARK                         _______ _______ _______ _____ _____    ______ ____
ROOT
ATOM      1  N   UNL     1      29.063  21.228  11.174  0.00  0.00    +0.000 NA
ATOM      2  C   UNL     1      29.853  21.496  10.035  0.00  0.00    +0.000 C 
ATOM      3  O   UNL     1      30.177  22.706   9.849  0.00  0.00    +0.000 OA
ENDROOT
BRANCH   1  11
ATOM      4  C   UNL     1      26.403  22.343  11.012  0.00  0.00    +0.000 C 
ATOM      5  C   UNL     1      27.402  22.829  11.996  0.00  0.00    +0.000 A 
ATOM      6  C   UNL     1      27.029  23.839  12.845  0.00  0.00    +0.000 A 
ATOM      7  C   UNL     1      27.928  24.313  13.768  0.00  0.00    +0.000 A 
ATOM      8  C   UNL     1      29.198  23.785  13.850  0.00  0.00    +0.000 A 
ATOM      9  C   UNL     1      29.540  22.774  12.985  0.00  0.00    +0.000 A 
ATOM     10  C   UNL     1      30.939  22.224  13.106  0.00  0.00    +0.000 C 
ATOM     11  C   UNL     1      28.661  22.293  12.064  0.00  0.00    +0.000 A 
ENDBRANCH   1  11
BRANCH   2  12
ATOM     12  O   UNL     1      30.278  20.529   9.136  0.00  0.00    +0.000 OA
BRANCH  12  13
ATOM     13  C   UNL     1      31.032  20.960   8.020  0.00  0.00    +0.000 C 
BRANCH  13  14
ATOM     14  C   UNL     1      31.092  19.826   7.050  0.00  0.00    +0.000 A 
ATOM     15  C   UNL     1      32.289  19.213   6.795  0.00  0.00    +0.000 A 
ATOM     16  C   UNL     1      32.366  18.171   5.909  0.00  0.00    +0.000 A 
ATOM     17  C   UNL     1      31.226  17.746   5.277  0.00  0.00    +0.000 A 
ATOM     18  N   UNL     1      30.054  18.355   5.535  0.00  0.00    +0.000 N 
ATOM     19  O   UNL     1      28.915  17.894   4.873  0.00  0.00    +0.000 OA
ATOM     20  C   UNL     1      29.966  19.373   6.398  0.00  0.00    +0.000 A 
ENDBRANCH  13  14
ENDBRANCH  12  13
ENDBRANCH   2  12
TORSDOF 4
ENDMDL
MODEL 2
REMARK VINA RESULT:      -6.3      9.847     12.810
REMARK  Name = 
REMARK  4 active torsions:
REMARK  status: ('A' for Active; 'I' for Inactive)
REMARK    1  A    between atoms: C_8  and  N_9
REMARK    2  A    between atoms: C_10  and  O_12
REMARK    3  A    between atoms: O_12  and  C_13
REMARK    4  A    between atoms: C_13  and  C_14
REMARK                            x       y       z     vdW  Elec       q    Type
REMARK                         _______ _______ _______ _____ _____    ______ ____
ROOT
ATOM      1  N   UNL     1      29.294  27.860  18.050  0.00  0.00    +0.000 NA
ATOM      2  C   UNL     1      30.277  27.072  18.688  0.00  0.00    +0.000 C 
ATOM      3  O   UNL     1      31.447  27.137  18.208  0.00  0.00    +0.000 OA
ENDROOT
BRANCH   1  11
ATOM      4  C   UNL     1      30.181  30.582  18.435  0.00  0.00    +0.000 C 
ATOM      5  C   UNL     1      30.052  29.979  17.086  0.00  0.00    +0.000 A 
ATOM      6  C   UNL     1      30.370  30.756  16.001  0.00  0.00    +0.000 A 
ATOM      7  C   UNL     1      30.262  30.231  14.738  0.00  0.00    +0.000 A 
ATOM      8  C   UNL     1      29.839  28.933  14.548  0.00  0.00    +0.000 A 
ATOM      9  C   UNL     1      29.529  28.180  15.655  0.00  0.00    +0.000 A 
ATOM     10  C   UNL     1      29.070  26.766  15.406  0.00  0.00    +0.000 C 
ATOM     11  C   UNL     1      29.630  28.687  16.915  0.00  0.00    +0.000 A 
ENDBRANCH   1  11
BRANCH   2  12
ATOM     12  O   UNL     1      30.032  26.254  19.781  0.00  0.00    +0.000 OA
BRANCH  12  13
ATOM     13  C   UNL     1      28.987  26.629  20.657  0.00  0.00    +0.000 C 
BRANCH  13  14
ATOM     14  C   UNL     1      28.699  25.462  21.544  0.00  0.00    +0.000 A 
ATOM     15  C   UNL     1      29.678  24.979  22.368  0.00  0.00    +0.000 A 
ATOM     16  C   UNL     1      29.436  23.910  23.190  0.00  0.00    +0.000 A 
ATOM     17  C   UNL     1      28.195  23.326  23.177  0.00  0.00    +0.000 A 
ATOM     18  N   UNL     1      27.239  23.810  22.363  0.00  0.00    +0.000 N 
ATOM     19  O   UNL     1      25.988  23.190  22.378  0.00  0.00    +0.000 OA
ATOM     20  C   UNL     1      27.464  24.852  21.557  0.00  0.00    +0.000 A 
ENDBRANCH  13  14
ENDBRANCH  12  13
ENDBRANCH   2  12
TORSDOF 4
ENDMDL
MODEL 3
REMARK VINA RESULT:      -6.3      9.884     12.772
REMARK  Name = 
REMARK  4 active torsions:
REMARK  status: ('A' for Active; 'I' for Inactive)
REMARK    1  A    between atoms: C_8  and  N_9
REMARK    2  A    between atoms: C_10  and  O_12
REMARK    3  A    between atoms: O_12  and  C_13
REMARK    4  A    between atoms: C_13  and  C_14
REMARK                            x       y       z     vdW  Elec       q    Type
REMARK                         _______ _______ _______ _____ _____    ______ ____
ROOT
ATOM      1  N   UNL     1      30.777  27.129  17.821  0.00  0.00    +0.000 NA
ATOM      2  C   UNL     1      29.900  27.121  18.926  0.00  0.00    +0.000 C 
ATOM      3  O   UNL     1      28.996  28.007  18.932  0.00  0.00    +0.000 OA
ENDROOT
BRANCH   1  11
ATOM      4  C   UNL     1      29.206  26.524  15.473  0.00  0.00    +0.000 C 
ATOM      5  C   UNL     1      29.888  27.830  15.649  0.00  0.00    +0.000 A 
ATOM      6  C   UNL     1      29.754  28.764  14.655  0.00  0.00    +0.000 A 
ATOM      7  C   UNL     1      30.371  29.983  14.784  0.00  0.00    +0.000 A 
ATOM      8  C   UNL     1      31.122  30.278  15.902  0.00  0.00    +0.000 A 
ATOM      9  C   UNL     1      31.236  29.321  16.880  0.00  0.00    +0.000 A 
ATOM     10  C   UNL     1      32.066  29.681  18.086  0.00  0.00    +0.000 C 
ATOM     11  C   UNL     1      30.631  28.107  16.767  0.00  0.00    +0.000 A 
ENDBRANCH   1  11
BRANCH   2  12
ATOM     12  O   UNL     1      29.976  26.216  19.975  0.00  0.00    +0.000 OA
BRANCH  12  13
ATOM     13  C   UNL     1      29.446  26.616  21.224  0.00  0.00    +0.000 C 
BRANCH  13  14
ATOM     14  C   UNL     1      28.981  25.385  21.932  0.00  0.00    +0.000 A 
ATOM     15  C   UNL     1      29.806  24.769  22.833  0.00  0.00    +0.000 A 
ATOM     16  C   UNL     1      29.400  23.640  23.494  0.00  0.00    +0.000 A 
ATOM     17  C   UNL     1      28.152  23.132  23.242  0.00  0.00    +0.000 A 
ATOM     18  N   UNL     1      27.348  23.746  22.355  0.00  0.00    +0.000 N 
ATOM     19  O   UNL     1      26.084  23.199  22.126  0.00  0.00    +0.000 OA
ATOM     20  C   UNL     1      27.733  24.848  21.704  0.00  0.00    +0.000 A 
ENDBRANCH  13  14
ENDBRANCH  12  13
ENDBRANCH   2  12
TORSDOF 4
ENDMDL
MODEL 4
REMARK VINA RESULT:      -6.2     13.360     16.606
REMARK  Name = 
REMARK  4 active torsions:
REMARK  status: ('A' for Active; 'I' for Inactive)
REMARK    1  A    between atoms: C_8  and  N_9
REMARK    2  A    between atoms: C_10  and  O_12
REMARK    3  A    between atoms: O_12  and  C_13
REMARK    4  A    between atoms: C_13  and  C_14
REMARK                            x       y       z     vdW  Elec       q    Type
REMARK                         _______ _______ _______ _____ _____    ______ ____
ROOT
ATOM      1  N   UNL     1      27.596  22.516  26.471  0.00  0.00    +0.000 NA
ATOM      2  C   UNL     1      27.030  23.716  25.988  0.00  0.00    +0.000 C 
ATOM      3  O   UNL     1      27.574  24.790  26.380  0.00  0.00    +0.000 OA
ENDROOT
BRANCH   1  11
ATOM      4  C   UNL     1      30.281  22.347  25.419  0.00  0.00    +0.000 C 
ATOM      5  C   UNL     1      30.011  22.460  26.874  0.00  0.00    +0.000 A 
ATOM      6  C   UNL     1      31.084  22.484  27.727  0.00  0.00    +0.000 A 
ATOM      7  C   UNL     1      30.871  22.587  29.079  0.00  0.00    +0.000 A 
ATOM      8  C   UNL     1      29.592  22.668  29.587  0.00  0.00    +0.000 A 
ATOM      9  C   UNL     1      28.539  22.642  28.705  0.00  0.00    +0.000 A 
ATOM     10  C   UNL     1      27.156  22.732  29.300  0.00  0.00    +0.000 C 
ATOM     11  C   UNL     1      28.733  22.539  27.362  0.00  0.00    +0.000 A 
ENDBRANCH   1  11
BRANCH   2  12
ATOM     12  O   UNL     1      25.940  23.774  25.132  0.00  0.00    +0.000 OA
BRANCH  12  13
ATOM     13  C   UNL     1      26.108  23.265  23.824  0.00  0.00    +0.000 C 
BRANCH  13  14
ATOM     14  C   UNL     1      26.934  24.246  23.059  0.00  0.00    +0.000 A 
ATOM     15  C   UNL     1      26.666  25.583  23.160  0.00  0.00    +0.000 A 
ATOM     16  C   UNL     1      27.411  26.501  22.467  0.00  0.00    +0.000 A 
ATOM     17  C   UNL     1      28.435  26.062  21.667  0.00  0.00    +0.000 A 
ATOM     18  N   UNL     1      28.691  24.744  21.575  0.00  0.00    +0.000 N 
ATOM     19  O   UNL     1      29.741  24.336  20.751  0.00  0.00    +0.000 OA
ATOM     20  C   UNL     1      27.971  23.839  22.246  0.00  0.00    +0.000 A 
ENDBRANCH  13  14
ENDBRANCH  12  13
ENDBRANCH   2  12
TORSDOF 4
ENDMDL
MODEL 5
REMARK VINA RESULT:      -6.1     30.355     31.521
REMARK  Name = 
REMARK  4 active torsions:
REMARK  status: ('A' for Active; 'I' for Inactive)
REMARK    1  A    between atoms: C_8  and  N_9
REMARK    2  A    between atoms: C_10  and  O_12
REMARK    3  A    between atoms: O_12  and  C_13
REMARK    4  A    between atoms: C_13  and  C_14
REMARK                            x       y       z     vdW  Elec       q    Type
REMARK                         _______ _______ _______ _____ _____    ______ ____
ROOT
ATOM      1  N   UNL     1      20.653  11.481  37.967  0.00  0.00    +0.000 NA
ATOM      2  C   UNL     1      20.122  10.695  39.013  0.00  0.00    +0.000 C 
ATOM      3  O   UNL     1      20.956  10.226  39.842  0.00  0.00    +0.000 OA
ENDROOT
BRANCH   1  11
ATOM      4  C   UNL     1      21.850  13.741  39.314  0.00  0.00    +0.000 C 
ATOM      5  C   UNL     1      22.652  12.790  38.505  0.00  0.00    +0.000 A 
ATOM      6  C   UNL     1      24.002  13.009  38.407  0.00  0.00    +0.000 A 
ATOM      7  C   UNL     1      24.775  12.150  37.667  0.00  0.00    +0.000 A 
ATOM      8  C   UNL     1      24.211  11.071  37.023  0.00  0.00    +0.000 A 
ATOM      9  C   UNL     1      22.855  10.878  37.141  0.00  0.00    +0.000 A 
ATOM     10  C   UNL     1      22.275   9.688  36.421  0.00  0.00    +0.000 C 
ATOM     11  C   UNL     1      22.074  11.722  37.870  0.00  0.00    +0.000 A 
ENDBRANCH   1  11
BRANCH   2  12
ATOM     12  O   UNL     1      18.772  10.420  39.173  0.00  0.00    +0.000 OA
BRANCH  12  13
ATOM     13  C   UNL     1      18.249   9.295  38.495  0.00  0.00    +0.000 C 
BRANCH  13  14
ATOM     14  C   UNL     1      17.744   9.761  37.168  0.00  0.00    +0.000 A 
ATOM     15  C   UNL     1      18.370   9.352  36.023  0.00  0.00    +0.000 A 
ATOM     16  C   UNL     1      17.923   9.767  34.795  0.00  0.00    +0.000 A 
ATOM     17  C   UNL     1      16.836  10.601  34.728  0.00  0.00    +0.000 A 
ATOM     18  N   UNL     1      16.227  10.996  35.861  0.00  0.00    +0.000 N 
ATOM     19  O   UNL     1      15.123  11.843  35.752  0.00  0.00    +0.000 OA
ATOM     20  C   UNL     1      16.654  10.598  37.064  0.00  0.00    +0.000 A 
ENDBRANCH  13  14
ENDBRANCH  12  13
ENDBRANCH   2  12
TORSDOF 4
ENDMDL
MODEL 6
REMARK VINA RESULT:      -6.1     12.088     14.689
REMARK  Name = 
REMARK  4 active torsions:
REMARK  status: ('A' for Active; 'I' for Inactive)
REMARK    1  A    between atoms: C_8  and  N_9
REMARK    2  A    between atoms: C_10  and  O_12
REMARK    3  A    between atoms: O_12  and  C_13
REMARK    4  A    between atoms: C_13  and  C_14
REMARK                            x       y       z     vdW  Elec       q    Type
REMARK                         _______ _______ _______ _____ _____    ______ ____
ROOT
ATOM      1  N   UNL     1      28.775  23.338  23.288  0.00  0.00    +0.000 NA
ATOM      2  C   UNL     1      28.807  24.700  22.916  0.00  0.00    +0.000 C 
ATOM      3  O   UNL     1      28.901  25.538  23.861  0.00  0.00    +0.000 OA
ENDROOT
BRANCH   1  11
ATOM      4  C   UNL     1      31.334  22.865  24.542  0.00  0.00    +0.000 C 
ATOM      5  C   UNL     1      30.056  22.721  25.282  0.00  0.00    +0.000 A 
ATOM      6  C   UNL     1      30.115  22.352  26.601  0.00  0.00    +0.000 A 
ATOM      7  C   UNL     1      28.952  22.210  27.316  0.00  0.00    +0.000 A 
ATOM      8  C   UNL     1      27.728  22.434  26.724  0.00  0.00    +0.000 A 
ATOM      9  C   UNL     1      27.703  22.804  25.400  0.00  0.00    +0.000 A 
ATOM     10  C   UNL     1      26.346  23.039  24.788  0.00  0.00    +0.000 C 
ATOM     11  C   UNL     1      28.847  22.948  24.677  0.00  0.00    +0.000 A 
ENDBRANCH   1  11
BRANCH   2  12
ATOM     12  O   UNL     1      28.742  25.152  21.606  0.00  0.00    +0.000 OA
BRANCH  12  13
ATOM     13  C   UNL     1      28.018  26.342  21.360  0.00  0.00    +0.000 C 
BRANCH  13  14
ATOM     14  C   UNL     1      28.904  27.258  20.582  0.00  0.00    +0.000 A 
ATOM     15  C   UNL     1      28.803  28.611  20.757  0.00  0.00    +0.000 A 
ATOM     16  C   UNL     1      29.606  29.470  20.054  0.00  0.00    +0.000 A 
ATOM     17  C   UNL     1      30.518  28.955  19.168  0.00  0.00    +0.000 A 
ATOM     18  N   UNL     1      30.610  27.623  19.003  0.00  0.00    +0.000 N 
ATOM     19  O   UNL     1      31.550  27.137  18.093  0.00  0.00    +0.000 OA
ATOM     20  C   UNL     1      29.832  26.775  19.684  0.00  0.00    +0.000 A 
ENDBRANCH  13  14
ENDBRANCH  12  13
ENDBRANCH   2  12
TORSDOF 4
ENDMDL
MODEL 7
REMARK VINA RESULT:      -6.1     29.946     31.407
REMARK  Name = 
REMARK  4 active torsions:
REMARK  status: ('A' for Active; 'I' for Inactive)
REMARK    1  A    between atoms: C_8  and  N_9
REMARK    2  A    between atoms: C_10  and  O_12
REMARK    3  A    between atoms: O_12  and  C_13
REMARK    4  A    between atoms: C_13  and  C_14
REMARK                            x       y       z     vdW  Elec       q    Type
REMARK                         _______ _______ _______ _____ _____    ______ ____
ROOT
ATOM      1  N   UNL     1      34.256   4.658  35.355  0.00  0.00    +0.000 NA
ATOM      2  C   UNL     1      33.267   4.701  34.349  0.00  0.00    +0.000 C 
ATOM      3  O   UNL     1      32.686   5.813  34.179  0.00  0.00    +0.000 OA
ENDROOT
BRANCH   1  11
ATOM      4  C   UNL     1      36.332   6.473  34.493  0.00  0.00    +0.000 C 
ATOM      5  C   UNL     1      35.552   6.701  35.735  0.00  0.00    +0.000 A 
ATOM      6  C   UNL     1      35.843   7.814  36.481  0.00  0.00    +0.000 A 
ATOM      7  C   UNL     1      35.142   8.056  37.635  0.00  0.00    +0.000 A 
ATOM      8  C   UNL     1      34.150   7.194  38.052  0.00  0.00    +0.000 A 
ATOM      9  C   UNL     1      33.883   6.088  37.282  0.00  0.00    +0.000 A 
ATOM     10  C   UNL     1      32.793   5.170  37.772  0.00  0.00    +0.000 C 
ATOM     11  C   UNL     1      34.570   5.833  36.135  0.00  0.00    +0.000 A 
ENDBRANCH   1  11
BRANCH   2  12
ATOM     12  O   UNL     1      32.910   3.616  33.561  0.00  0.00    +0.000 OA
BRANCH  12  13
ATOM     13  C   UNL     1      33.953   2.838  33.008  0.00  0.00    +0.000 C 
BRANCH  13  14
ATOM     14  C   UNL     1      33.768   1.433  33.478  0.00  0.00    +0.000 A 
ATOM     15  C   UNL     1      34.138   0.393  32.670  0.00  0.00    +0.000 A 
ATOM     16  C   UNL     1      33.977  -0.905  33.082  0.00  0.00    +0.000 A 
ATOM     17  C   UNL     1      33.438  -1.150  34.319  0.00  0.00    +0.000 A 
ATOM     18  N   UNL     1      33.077  -0.119  35.106  0.00  0.00    +0.000 N 
ATOM     19  O   UNL     1      32.532  -0.409  36.358  0.00  0.00    +0.000 OA
ATOM     20  C   UNL     1      33.229   1.150  34.715  0.00  0.00    +0.000 A 
ENDBRANCH  13  14
ENDBRANCH  12  13
ENDBRANCH   2  12
TORSDOF 4
ENDMDL
MODEL 8
REMARK VINA RESULT:      -6.0     14.055     17.541
REMARK  Name = 
REMARK  4 active torsions:
REMARK  status: ('A' for Active; 'I' for Inactive)
REMARK    1  A    between atoms: C_8  and  N_9
REMARK    2  A    between atoms: C_10  and  O_12
REMARK    3  A    between atoms: O_12  and  C_13
REMARK    4  A    between atoms: C_13  and  C_14
REMARK                            x       y       z     vdW  Elec       q    Type
REMARK                         _______ _______ _______ _____ _____    ______ ____
ROOT
ATOM      1  N   UNL     1      27.510  22.586  27.604  0.00  0.00    +0.000 NA
ATOM      2  C   UNL     1      26.939  23.794  27.149  0.00  0.00    +0.000 C 
ATOM      3  O   UNL     1      27.301  24.847  27.752  0.00  0.00    +0.000 OA
ENDROOT
BRANCH   1  11
ATOM      4  C   UNL     1      26.585  22.349  30.331  0.00  0.00    +0.000 C 
ATOM      5  C   UNL     1      28.026  22.466  29.995  0.00  0.00    +0.000 A 
ATOM      6  C   UNL     1      28.929  22.458  31.026  0.00  0.00    +0.000 A 
ATOM      7  C   UNL     1      30.270  22.564  30.752  0.00  0.00    +0.000 A 
ATOM      8  C   UNL     1      30.717  22.677  29.453  0.00  0.00    +0.000 A 
ATOM      9  C   UNL     1      29.786  22.681  28.442  0.00  0.00    +0.000 A 
ATOM     10  C   UNL     1      30.315  22.807  27.036  0.00  0.00    +0.000 C 
ATOM     11  C   UNL     1      28.453  22.578  28.698  0.00  0.00    +0.000 A 
ENDBRANCH   1  11
BRANCH   2  12
ATOM     12  O   UNL     1      26.027  23.882  26.107  0.00  0.00    +0.000 OA
BRANCH  12  13
ATOM     13  C   UNL     1      26.036  22.849  25.142  0.00  0.00    +0.000 C 
BRANCH  13  14
ATOM     14  C   UNL     1      26.898  23.297  24.007  0.00  0.00    +0.000 A 
ATOM     15  C   UNL     1      26.322  23.675  22.826  0.00  0.00    +0.000 A 
ATOM     16  C   UNL     1      27.094  24.090  21.772  0.00  0.00    +0.000 A 
ATOM     17  C   UNL     1      28.458  24.121  21.916  0.00  0.00    +0.000 A 
ATOM     18  N   UNL     1      29.014  23.747  23.082  0.00  0.00    +0.000 N 
ATOM     19  O   UNL     1      30.405  23.792  23.190  0.00  0.00    +0.000 OA
ATOM     20  C   UNL     1      28.271  23.341  24.117  0.00  0.00    +0.000 A 
ENDBRANCH  13  14
ENDBRANCH  12  13
ENDBRANCH   2  12
TORSDOF 4
ENDMDL
MODEL 9
REMARK VINA RESULT:      -6.0     15.583     19.467
REMARK  Name = 
REMARK  4 active torsions:
REMARK  status: ('A' for Active; 'I' for Inactive)
REMARK    1  A    between atoms: C_8  and  N_9
REMARK    2  A    between atoms: C_10  and  O_12
REMARK    3  A    between atoms: O_12  and  C_13
REMARK    4  A    between atoms: C_13  and  C_14
REMARK                            x       y       z     vdW  Elec       q    Type
REMARK                         _______ _______ _______ _____ _____    ______ ____
ROOT
ATOM      1  N   UNL     1      26.384  23.220  25.967  0.00  0.00    +0.000 NA
ATOM      2  C   UNL     1      26.015  24.463  26.527  0.00  0.00    +0.000 C 
ATOM      3  O   UNL     1      26.928  25.336  26.608  0.00  0.00    +0.000 OA
ENDROOT
BRANCH   1  11
ATOM      4  C   UNL     1      28.391  22.264  27.813  0.00  0.00    +0.000 C 
ATOM      5  C   UNL     1      28.697  22.529  26.385  0.00  0.00    +0.000 A 
ATOM      6  C   UNL     1      29.977  22.306  25.950  0.00  0.00    +0.000 A 
ATOM      7  C   UNL     1      30.296  22.541  24.636  0.00  0.00    +0.000 A 
ATOM      8  C   UNL     1      29.343  22.997  23.750  0.00  0.00    +0.000 A 
ATOM      9  C   UNL     1      28.069  23.210  24.218  0.00  0.00    +0.000 A 
ATOM     10  C   UNL     1      27.056  23.710  23.219  0.00  0.00    +0.000 C 
ATOM     11  C   UNL     1      27.737  22.983  25.518  0.00  0.00    +0.000 A 
ENDBRANCH   1  11
BRANCH   2  12
ATOM     12  O   UNL     1      24.739  24.765  26.979  0.00  0.00    +0.000 OA
BRANCH  12  13
ATOM     13  C   UNL     1      24.211  26.034  26.648  0.00  0.00    +0.000 C 
BRANCH  13  14
ATOM     14  C   UNL     1      22.987  26.246  27.477  0.00  0.00    +0.000 A 
ATOM     15  C   UNL     1      21.756  26.244  26.881  0.00  0.00    +0.000 A 
ATOM     16  C   UNL     1      20.619  26.435  27.623  0.00  0.00    +0.000 A 
ATOM     17  C   UNL     1      20.731  26.631  28.976  0.00  0.00    +0.000 A 
ATOM     18  N   UNL     1      21.947  26.631  29.552  0.00  0.00    +0.000 N 
ATOM     19  O   UNL     1      22.020  26.832  30.931  0.00  0.00    +0.000 OA
ATOM     20  C   UNL     1      23.062  26.445  28.839  0.00  0.00    +0.000 A 
ENDBRANCH  13  14
ENDBRANCH  12  13
ENDBRANCH   2  12
TORSDOF 4
ENDMDL
MODEL 10
REMARK VINA RESULT:      -6.0     15.139     19.077
REMARK  Name = 
REMARK  4 active torsions:
REMARK  status: ('A' for Active; 'I' for Inactive)
REMARK    1  A    between atoms: C_8  and  N_9
REMARK    2  A    between atoms: C_10  and  O_12
REMARK    3  A    between atoms: O_12  and  C_13
REMARK    4  A    between atoms: C_13  and  C_14
REMARK                            x       y       z     vdW  Elec       q    Type
REMARK                         _______ _______ _______ _____ _____    ______ ____
ROOT
ATOM      1  N   UNL     1      28.289  22.342  26.004  0.00  0.00    +0.000 NA
ATOM      2  C   UNL     1      28.482  23.100  27.180  0.00  0.00    +0.000 C 
ATOM      3  O   UNL     1      28.567  24.354  27.032  0.00  0.00    +0.000 OA
ENDROOT
BRANCH   1  11
ATOM      4  C   UNL     1      25.714  23.070  24.914  0.00  0.00    +0.000 C 
ATOM      5  C   UNL     1      26.981  23.337  24.188  0.00  0.00    +0.000 A 
ATOM      6  C   UNL     1      26.904  23.949  22.964  0.00  0.00    +0.000 A 
ATOM      7  C   UNL     1      28.056  24.211  22.265  0.00  0.00    +0.000 A 
ATOM      8  C   UNL     1      29.287  23.866  22.780  0.00  0.00    +0.000 A 
ATOM      9  C   UNL     1      29.330  23.254  24.010  0.00  0.00    +0.000 A 
ATOM     10  C   UNL     1      30.695  22.892  24.538  0.00  0.00    +0.000 C 
ATOM     11  C   UNL     1      28.197  22.987  24.715  0.00  0.00    +0.000 A 
ENDBRANCH   1  11
BRANCH   2  12
ATOM     12  O   UNL     1      28.580  22.553  28.452  0.00  0.00    +0.000 OA
BRANCH  12  13
ATOM     13  C   UNL     1      29.050  23.391  29.489  0.00  0.00    +0.000 C 
BRANCH  13  14
ATOM     14  C   UNL     1      30.080  22.628  30.255  0.00  0.00    +0.000 A 
ATOM     15  C   UNL     1      31.273  22.315  29.663  0.00  0.00    +0.000 A 
ATOM     16  C   UNL     1      32.232  21.615  30.348  0.00  0.00    +0.000 A 
ATOM     17  C   UNL     1      31.981  21.230  31.640  0.00  0.00    +0.000 A 
ATOM     18  N   UNL     1      30.805  21.543  32.213  0.00  0.00    +0.000 N 
ATOM     19  O   UNL     1      30.587  21.134  33.529  0.00  0.00    +0.000 OA
ATOM     20  C   UNL     1      29.862  22.225  31.555  0.00  0.00    +0.000 A 
ENDBRANCH  13  14
ENDBRANCH  12  13
ENDBRANCH   2  12
TORSDOF 4
ENDMDL
