MODEL 1
REMARK VINA RESULT:      -7.4      0.000      0.000
REMARK  Name = 
REMARK  2 active torsions:
REMARK  status: ('A' for Active; 'I' for Inactive)
REMARK    1  A    between atoms: C_2  and  C_4
REMARK    2  A    between atoms: C_4  and  N_5
REMARK                            x       y       z     vdW  Elec       q    Type
REMARK                         _______ _______ _______ _____ _____    ______ ____
ROOT
ATOM      1  N   UNL     1      17.983   9.511  36.727  0.00  0.00    +0.000 NA
ATOM      2  C   UNL     1      16.978  10.486  36.576  0.00  0.00    +0.000 A 
ATOM      3  N   UNL     1      16.377  11.143  37.560  0.00  0.00    +0.000 NA
ATOM      4  C   UNL     1      15.420  12.072  37.390  0.00  0.00    +0.000 A 
ATOM      5  N   UNL     1      15.037  12.362  36.134  0.00  0.00    +0.000 NA
ATOM      6  C   UNL     1      15.592  11.746  35.084  0.00  0.00    +0.000 A 
ATOM      7  C   UNL     1      16.574  10.794  35.276  0.00  0.00    +0.000 A 
ATOM      8  N   UNL     1      16.966  10.328  34.076  0.00  0.00    +0.000 NA
ATOM      9  C   UNL     1      16.284  10.930  33.090  0.00  0.00    +0.000 A 
ATOM     10  C   UNL     1      16.266  10.853  31.714  0.00  0.00    +0.000 A 
ATOM     11  C   UNL     1      15.396  11.659  31.010  0.00  0.00    +0.000 A 
ATOM     12  C   UNL     1      14.549  12.535  31.643  0.00  0.00    +0.000 A 
ATOM     13 CL   UNL     1      13.450  13.550  30.706  0.00  0.00    +0.000 Cl
ATOM     14  C   UNL     1      14.554  12.623  33.010  0.00  0.00    +0.000 A 
ATOM     15  C   UNL     1      15.426  11.815  33.706  0.00  0.00    +0.000 A 
ENDROOT
BRANCH   1  16
ATOM     16  C   UNL     1      18.519   9.070  37.980  0.00  0.00    +0.000 C 
BRANCH  16  18
ATOM     17  C   UNL     1      19.764  10.975  38.967  0.00  0.00    +0.000 C 
ATOM     18  C   UNL     1      19.871   9.668  38.213  0.00  0.00    +0.000 C 
ATOM     19  C   UNL     1      20.620   9.833  36.920  0.00  0.00    +0.000 C 
ENDBRANCH  16  18
ENDBRANCH   1  16
TORSDOF 2
ENDMDL
MODEL 2
REMARK VINA RESULT:      -6.4     28.197     30.817
REMARK  Name = 
REMARK  2 active torsions:
REMARK  status: ('A' for Active; 'I' for Inactive)
REMARK    1  A    between atoms: C_2  and  C_4
REMARK    2  A    between atoms: C_4  and  N_5
REMARK                            x       y       z     vdW  Elec       q    Type
REMARK                         _______ _______ _______ _____ _____    ______ ____
ROOT
ATOM      1  N   UNL     1      30.659  20.282   8.170  0.00  0.00    +0.000 NA
ATOM      2  C   UNL     1      31.234  21.113   9.151  0.00  0.00    +0.000 A 
ATOM      3  N   UNL     1      32.525  21.398   9.271  0.00  0.00    +0.000 NA
ATOM      4  C   UNL     1      33.050  22.196  10.217  0.00  0.00    +0.000 A 
ATOM      5  N   UNL     1      32.213  22.750  11.112  0.00  0.00    +0.000 NA
ATOM      6  C   UNL     1      30.897  22.516  11.063  0.00  0.00    +0.000 A 
ATOM      7  C   UNL     1      30.374  21.694  10.084  0.00  0.00    +0.000 A 
ATOM      8  N   UNL     1      29.040  21.620  10.248  0.00  0.00    +0.000 NA
ATOM      9  C   UNL     1      28.652  22.360  11.299  0.00  0.00    +0.000 A 
ATOM     10  C   UNL     1      27.451  22.646  11.912  0.00  0.00    +0.000 A 
ATOM     11  C   UNL     1      27.445  23.481  13.011  0.00  0.00    +0.000 A 
ATOM     12  C   UNL     1      28.600  24.032  13.508  0.00  0.00    +0.000 A 
ATOM     13 CL   UNL     1      28.549  25.094  14.916  0.00  0.00    +0.000 Cl
ATOM     14  C   UNL     1      29.801  23.756  12.910  0.00  0.00    +0.000 A 
ATOM     15  C   UNL     1      29.800  22.922  11.812  0.00  0.00    +0.000 A 
ENDROOT
BRANCH   1  16
ATOM     16  C   UNL     1      31.385  19.606   7.138  0.00  0.00    +0.000 C 
BRANCH  16  18
ATOM     17  C   UNL     1      30.373  21.207   5.537  0.00  0.00    +0.000 C 
ATOM     18  C   UNL     1      30.690  19.757   5.821  0.00  0.00    +0.000 C 
ATOM     19  C   UNL     1      29.459  18.897   5.758  0.00  0.00    +0.000 C 
ENDBRANCH  16  18
ENDBRANCH   1  16
TORSDOF 2
ENDMDL
MODEL 3
REMARK VINA RESULT:      -6.4      2.819      4.043
REMARK  Name = 
REMARK  2 active torsions:
REMARK  status: ('A' for Active; 'I' for Inactive)
REMARK    1  A    between atoms: C_2  and  C_4
REMARK    2  A    between atoms: C_4  and  N_5
REMARK                            x       y       z     vdW  Elec       q    Type
REMARK                         _______ _______ _______ _____ _____    ______ ____
ROOT
ATOM      1  N   UNL     1      20.157  10.419  37.432  0.00  0.00    +0.000 NA
ATOM      2  C   UNL     1      18.970  10.203  38.159  0.00  0.00    +0.000 A 
ATOM      3  N   UNL     1      18.872   9.559  39.314  0.00  0.00    +0.000 NA
ATOM      4  C   UNL     1      17.726   9.366  39.991  0.00  0.00    +0.000 A 
ATOM      5  N   UNL     1      16.591   9.859  39.464  0.00  0.00    +0.000 NA
ATOM      6  C   UNL     1      16.601  10.522  38.302  0.00  0.00    +0.000 A 
ATOM      7  C   UNL     1      17.787  10.711  37.620  0.00  0.00    +0.000 A 
ATOM      8  N   UNL     1      17.533  11.400  36.492  0.00  0.00    +0.000 NA
ATOM      9  C   UNL     1      16.224  11.678  36.394  0.00  0.00    +0.000 A 
ATOM     10  C   UNL     1      15.421  12.334  35.484  0.00  0.00    +0.000 A 
ATOM     11  C   UNL     1      14.067  12.423  35.731  0.00  0.00    +0.000 A 
ATOM     12  C   UNL     1      13.498  11.876  36.855  0.00  0.00    +0.000 A 
ATOM     13 CL   UNL     1      11.761  12.011  37.133  0.00  0.00    +0.000 Cl
ATOM     14  C   UNL     1      14.282  11.221  37.767  0.00  0.00    +0.000 A 
ATOM     15  C   UNL     1      15.635  11.137  37.515  0.00  0.00    +0.000 A 
ENDROOT
BRANCH   1  16
ATOM     16  C   UNL     1      21.457   9.971  37.830  0.00  0.00    +0.000 C 
BRANCH  16  18
ATOM     17  C   UNL     1      23.071  10.179  35.958  0.00  0.00    +0.000 C 
ATOM     18  C   UNL     1      22.520  10.823  37.210  0.00  0.00    +0.000 C 
ATOM     19  C   UNL     1      23.608  11.135  38.199  0.00  0.00    +0.000 C 
ENDBRANCH  16  18
ENDBRANCH   1  16
TORSDOF 2
ENDMDL
MODEL 4
REMARK VINA RESULT:      -6.3      1.645      2.114
REMARK  Name = 
REMARK  2 active torsions:
REMARK  status: ('A' for Active; 'I' for Inactive)
REMARK    1  A    between atoms: C_2  and  C_4
REMARK    2  A    between atoms: C_4  and  N_5
REMARK                            x       y       z     vdW  Elec       q    Type
REMARK                         _______ _______ _______ _____ _____    ______ ____
ROOT
ATOM      1  N   UNL     1      18.556   9.116  37.991  0.00  0.00    +0.000 NA
ATOM      2  C   UNL     1      17.423   9.909  37.723  0.00  0.00    +0.000 A 
ATOM      3  N   UNL     1      16.603  10.425  38.629  0.00  0.00    +0.000 NA
ATOM      4  C   UNL     1      15.527  11.182  38.349  0.00  0.00    +0.000 A 
ATOM      5  N   UNL     1      15.255  11.437  37.057  0.00  0.00    +0.000 NA
ATOM      6  C   UNL     1      16.030  10.955  36.080  0.00  0.00    +0.000 A 
ATOM      7  C   UNL     1      17.132  10.180  36.386  0.00  0.00    +0.000 A 
ATOM      8  N   UNL     1      17.741   9.823  35.240  0.00  0.00    +0.000 NA
ATOM      9  C   UNL     1      17.089  10.327  34.181  0.00  0.00    +0.000 A 
ATOM     10  C   UNL     1      17.252  10.287  32.813  0.00  0.00    +0.000 A 
ATOM     11  C   UNL     1      16.347  10.953  32.012  0.00  0.00    +0.000 A 
ATOM     12  C   UNL     1      15.291  11.653  32.541  0.00  0.00    +0.000 A 
ATOM     13 CL   UNL     1      14.154  12.491  31.483  0.00  0.00    +0.000 Cl
ATOM     14  C   UNL     1      15.115  11.701  33.899  0.00  0.00    +0.000 A 
ATOM     15  C   UNL     1      16.023  11.034  34.693  0.00  0.00    +0.000 A 
ENDROOT
BRANCH   1  16
ATOM     16  C   UNL     1      19.005   8.738  39.297  0.00  0.00    +0.000 C 
BRANCH  16  18
ATOM     17  C   UNL     1      17.529   8.082  41.180  0.00  0.00    +0.000 C 
ATOM     18  C   UNL     1      18.135   7.659  39.860  0.00  0.00    +0.000 C 
ATOM     19  C   UNL     1      18.890   6.366  39.986  0.00  0.00    +0.000 C 
ENDBRANCH  16  18
ENDBRANCH   1  16
TORSDOF 2
ENDMDL
MODEL 5
REMARK VINA RESULT:      -6.1     28.276     30.654
REMARK  Name = 
REMARK  2 active torsions:
REMARK  status: ('A' for Active; 'I' for Inactive)
REMARK    1  A    between atoms: C_2  and  C_4
REMARK    2  A    between atoms: C_4  and  N_5
REMARK                            x       y       z     vdW  Elec       q    Type
REMARK                         _______ _______ _______ _____ _____    ______ ____
ROOT
ATOM      1  N   UNL     1      28.869  23.094  11.542  0.00  0.00    +0.000 NA
ATOM      2  C   UNL     1      29.973  22.259  11.801  0.00  0.00    +0.000 A 
ATOM      3  N   UNL     1      30.371  21.842  12.997  0.00  0.00    +0.000 NA
ATOM      4  C   UNL     1      31.430  21.044  13.219  0.00  0.00    +0.000 A 
ATOM      5  N   UNL     1      32.144  20.633  12.156  0.00  0.00    +0.000 NA
ATOM      6  C   UNL     1      31.813  21.007  10.915  0.00  0.00    +0.000 A 
ATOM      7  C   UNL     1      30.721  21.827  10.705  0.00  0.00    +0.000 A 
ATOM      8  N   UNL     1      30.599  22.055   9.384  0.00  0.00    +0.000 NA
ATOM      9  C   UNL     1      31.566  21.420   8.704  0.00  0.00    +0.000 A 
ATOM     10  C   UNL     1      31.922  21.300   7.377  0.00  0.00    +0.000 A 
ATOM     11  C   UNL     1      33.019  20.531   7.047  0.00  0.00    +0.000 A 
ATOM     12  C   UNL     1      33.764  19.885   8.002  0.00  0.00    +0.000 A 
ATOM     13 CL   UNL     1      35.161  18.912   7.537  0.00  0.00    +0.000 Cl
ATOM     14  C   UNL     1      33.424  19.995   9.324  0.00  0.00    +0.000 A 
ATOM     15  C   UNL     1      32.326  20.764   9.647  0.00  0.00    +0.000 A 
ENDROOT
BRANCH   1  16
ATOM     16  C   UNL     1      27.992  23.630  12.539  0.00  0.00    +0.000 C 
BRANCH  16  18
ATOM     17  C   UNL     1      26.520  22.167  11.182  0.00  0.00    +0.000 C 
ATOM     18  C   UNL     1      26.583  23.191  12.293  0.00  0.00    +0.000 C 
ATOM     19  C   UNL     1      25.691  24.368  12.013  0.00  0.00    +0.000 C 
ENDBRANCH  16  18
ENDBRANCH   1  16
TORSDOF 2
ENDMDL
MODEL 6
REMARK VINA RESULT:      -6.0     23.661     25.546
REMARK  Name = 
REMARK  2 active torsions:
REMARK  status: ('A' for Active; 'I' for Inactive)
REMARK    1  A    between atoms: C_2  and  C_4
REMARK    2  A    between atoms: C_4  and  N_5
REMARK                            x       y       z     vdW  Elec       q    Type
REMARK                         _______ _______ _______ _____ _____    ______ ____
ROOT
ATOM      1  N   UNL     1      30.398  26.796  17.923  0.00  0.00    +0.000 NA
ATOM      2  C   UNL     1      30.010  27.427  19.121  0.00  0.00    +0.000 A 
ATOM      3  N   UNL     1      29.964  28.737  19.331  0.00  0.00    +0.000 NA
ATOM      4  C   UNL     1      29.588  29.316  20.485  0.00  0.00    +0.000 A 
ATOM      5  N   UNL     1      29.232  28.517  21.506  0.00  0.00    +0.000 NA
ATOM      6  C   UNL     1      29.249  27.186  21.379  0.00  0.00    +0.000 A 
ATOM      7  C   UNL     1      29.638  26.607  20.187  0.00  0.00    +0.000 A 
ATOM      8  N   UNL     1      29.570  25.268  20.313  0.00  0.00    +0.000 NA
ATOM      9  C   UNL     1      29.153  24.930  21.543  0.00  0.00    +0.000 A 
ATOM     10  C   UNL     1      28.907  23.750  22.211  0.00  0.00    +0.000 A 
ATOM     11  C   UNL     1      28.470  23.800  23.518  0.00  0.00    +0.000 A 
ATOM     12  C   UNL     1      28.274  24.992  24.171  0.00  0.00    +0.000 A 
ATOM     13 CL   UNL     1      27.715  25.013  25.844  0.00  0.00    +0.000 Cl
ATOM     14  C   UNL     1      28.514  26.174  23.521  0.00  0.00    +0.000 A 
ATOM     15  C   UNL     1      28.950  26.116  22.214  0.00  0.00    +0.000 A 
ENDROOT
BRANCH   1  16
ATOM     16  C   UNL     1      30.809  27.476  16.732  0.00  0.00    +0.000 C 
BRANCH  16  18
ATOM     17  C   UNL     1      29.089  26.359  15.337  0.00  0.00    +0.000 C 
ATOM     18  C   UNL     1      29.645  27.682  15.815  0.00  0.00    +0.000 C 
ATOM     19  C   UNL     1      30.014  28.576  14.665  0.00  0.00    +0.000 C 
ENDBRANCH  16  18
ENDBRANCH   1  16
TORSDOF 2
ENDMDL
MODEL 7
REMARK VINA RESULT:      -5.9     19.269     21.212
REMARK  Name = 
REMARK  2 active torsions:
REMARK  status: ('A' for Active; 'I' for Inactive)
REMARK    1  A    between atoms: C_2  and  C_4
REMARK    2  A    between atoms: C_4  and  N_5
REMARK                            x       y       z     vdW  Elec       q    Type
REMARK                         _______ _______ _______ _____ _____    ______ ____
ROOT
ATOM      1  N   UNL     1      33.641  -2.906  33.507  0.00  0.00    +0.000 NA
ATOM      2  C   UNL     1      33.669  -2.055  34.629  0.00  0.00    +0.000 A 
ATOM      3  N   UNL     1      33.682  -2.440  35.898  0.00  0.00    +0.000 NA
ATOM      4  C   UNL     1      33.710  -1.608  36.954  0.00  0.00    +0.000 A 
ATOM      5  N   UNL     1      33.725  -0.284  36.713  0.00  0.00    +0.000 NA
ATOM      6  C   UNL     1      33.713   0.190  35.463  0.00  0.00    +0.000 A 
ATOM      7  C   UNL     1      33.685  -0.680  34.390  0.00  0.00    +0.000 A 
ATOM      8  N   UNL     1      33.678   0.037  33.251  0.00  0.00    +0.000 NA
ATOM      9  C   UNL     1      33.701   1.352  33.521  0.00  0.00    +0.000 A 
ATOM     10  C   UNL     1      33.706   2.511  32.775  0.00  0.00    +0.000 A 
ATOM     11  C   UNL     1      33.733   3.726  33.428  0.00  0.00    +0.000 A 
ATOM     12  C   UNL     1      33.755   3.811  34.798  0.00  0.00    +0.000 A 
ATOM     13 CL   UNL     1      33.789   5.385  35.596  0.00  0.00    +0.000 Cl
ATOM     14  C   UNL     1      33.749   2.668  35.553  0.00  0.00    +0.000 A 
ATOM     15  C   UNL     1      33.723   1.458  34.894  0.00  0.00    +0.000 A 
ENDROOT
BRANCH   1  16
ATOM     16  C   UNL     1      33.621  -4.336  33.561  0.00  0.00    +0.000 C 
BRANCH  16  18
ATOM     17  C   UNL     1      33.216  -4.990  31.203  0.00  0.00    +0.000 C 
ATOM     18  C   UNL     1      34.229  -4.918  32.324  0.00  0.00    +0.000 C 
ATOM     19  C   UNL     1      34.843  -6.261  32.603  0.00  0.00    +0.000 C 
ENDBRANCH  16  18
ENDBRANCH   1  16
TORSDOF 2
ENDMDL
MODEL 8
REMARK VINA RESULT:      -5.8     20.451     22.086
REMARK  Name = 
REMARK  2 active torsions:
REMARK  status: ('A' for Active; 'I' for Inactive)
REMARK    1  A    between atoms: C_2  and  C_4
REMARK    2  A    between atoms: C_4  and  N_5
REMARK                            x       y       z     vdW  Elec       q    Type
REMARK                         _______ _______ _______ _____ _____    ______ ____
ROOT
ATOM      1  N   UNL     1      17.127  -8.394  26.100  0.00  0.00    +0.000 NA
ATOM      2  C   UNL     1      18.056  -7.335  26.059  0.00  0.00    +0.000 A 
ATOM      3  N   UNL     1      17.831  -6.087  26.448  0.00  0.00    +0.000 NA
ATOM      4  C   UNL     1      18.736  -5.093  26.400  0.00  0.00    +0.000 A 
ATOM      5  N   UNL     1      19.960  -5.377  25.922  0.00  0.00    +0.000 NA
ATOM      6  C   UNL     1      20.271  -6.610  25.508  0.00  0.00    +0.000 A 
ATOM      7  C   UNL     1      19.330  -7.620  25.565  0.00  0.00    +0.000 A 
ATOM      8  N   UNL     1      19.882  -8.754  25.096  0.00  0.00    +0.000 NA
ATOM      9  C   UNL     1      21.155  -8.542  24.728  0.00  0.00    +0.000 A 
ATOM     10  C   UNL     1      22.169  -9.311  24.197  0.00  0.00    +0.000 A 
ATOM     11  C   UNL     1      23.390  -8.722  23.941  0.00  0.00    +0.000 A 
ATOM     12  C   UNL     1      23.622  -7.394  24.200  0.00  0.00    +0.000 A 
ATOM     13 CL   UNL     1      25.199  -6.678  23.858  0.00  0.00    +0.000 Cl
ATOM     14  C   UNL     1      22.624  -6.616  24.726  0.00  0.00    +0.000 A 
ATOM     15  C   UNL     1      21.407  -7.211  24.980  0.00  0.00    +0.000 A 
ENDROOT
BRANCH   1  16
ATOM     16  C   UNL     1      15.780  -8.286  26.574  0.00  0.00    +0.000 C 
BRANCH  16  18
ATOM     17  C   UNL     1      15.624 -10.053  24.840  0.00  0.00    +0.000 C 
ATOM     18  C   UNL     1      14.934  -9.383  26.007  0.00  0.00    +0.000 C 
ATOM     19  C   UNL     1      13.572  -8.874  25.628  0.00  0.00    +0.000 C 
ENDBRANCH  16  18
ENDBRANCH   1  16
TORSDOF 2
ENDMDL
MODEL 9
REMARK VINA RESULT:      -5.8     20.294     21.677
REMARK  Name = 
REMARK  2 active torsions:
REMARK  status: ('A' for Active; 'I' for Inactive)
REMARK    1  A    between atoms: C_2  and  C_4
REMARK    2  A    between atoms: C_4  and  N_5
REMARK                            x       y       z     vdW  Elec       q    Type
REMARK                         _______ _______ _______ _____ _____    ______ ____
ROOT
ATOM      1  N   UNL     1      21.283  -7.304  25.040  0.00  0.00    +0.000 NA
ATOM      2  C   UNL     1      20.101  -6.765  25.583  0.00  0.00    +0.000 A 
ATOM      3  N   UNL     1      19.966  -5.553  26.107  0.00  0.00    +0.000 NA
ATOM      4  C   UNL     1      18.825  -5.060  26.619  0.00  0.00    +0.000 A 
ATOM      5  N   UNL     1      17.735  -5.847  26.603  0.00  0.00    +0.000 NA
ATOM      6  C   UNL     1      17.782  -7.083  26.093  0.00  0.00    +0.000 A 
ATOM      7  C   UNL     1      18.963  -7.574  25.571  0.00  0.00    +0.000 A 
ATOM      8  N   UNL     1      18.752  -8.826  25.125  0.00  0.00    +0.000 NA
ATOM      9  C   UNL     1      17.477  -9.191  25.330  0.00  0.00    +0.000 A 
ATOM     10  C   UNL     1      16.723 -10.319  25.084  0.00  0.00    +0.000 A 
ATOM     11  C   UNL     1      15.392 -10.326  25.447  0.00  0.00    +0.000 A 
ATOM     12  C   UNL     1      14.800  -9.241  26.046  0.00  0.00    +0.000 A 
ATOM     13 CL   UNL     1      13.095  -9.290  26.497  0.00  0.00    +0.000 Cl
ATOM     14  C   UNL     1      15.536  -8.114  26.298  0.00  0.00    +0.000 A 
ATOM     15  C   UNL     1      16.865  -8.113  25.931  0.00  0.00    +0.000 A 
ENDROOT
BRANCH   1  16
ATOM     16  C   UNL     1      22.540  -6.622  24.968  0.00  0.00    +0.000 C 
BRANCH  16  18
ATOM     17  C   UNL     1      24.748  -6.588  23.839  0.00  0.00    +0.000 C 
ATOM     18  C   UNL     1      23.523  -7.413  24.165  0.00  0.00    +0.000 C 
ATOM     19  C   UNL     1      22.884  -7.970  22.924  0.00  0.00    +0.000 C 
ENDBRANCH  16  18
ENDBRANCH   1  16
TORSDOF 2
ENDMDL
MODEL 10
REMARK VINA RESULT:      -5.7     21.550     23.072
REMARK  Name = 
REMARK  2 active torsions:
REMARK  status: ('A' for Active; 'I' for Inactive)
REMARK    1  A    between atoms: C_2  and  C_4
REMARK    2  A    between atoms: C_4  and  N_5
REMARK                            x       y       z     vdW  Elec       q    Type
REMARK                         _______ _______ _______ _____ _____    ______ ____
ROOT
ATOM      1  N   UNL     1      19.719  -8.057  26.763  0.00  0.00    +0.000 NA
ATOM      2  C   UNL     1      20.645  -9.016  26.309  0.00  0.00    +0.000 A 
ATOM      3  N   UNL     1      20.552 -10.329  26.477  0.00  0.00    +0.000 NA
ATOM      4  C   UNL     1      21.450 -11.226  26.033  0.00  0.00    +0.000 A 
ATOM      5  N   UNL     1      22.526 -10.766  25.370  0.00  0.00    +0.000 NA
ATOM      6  C   UNL     1      22.698  -9.457  25.157  0.00  0.00    +0.000 A 
ATOM      7  C   UNL     1      21.765  -8.549  25.619  0.00  0.00    +0.000 A 
ATOM      8  N   UNL     1      22.163  -7.309  25.281  0.00  0.00    +0.000 NA
ATOM      9  C   UNL     1      23.325  -7.352  24.611  0.00  0.00    +0.000 A 
ATOM     10  C   UNL     1      24.169  -6.423  24.041  0.00  0.00    +0.000 A 
ATOM     11  C   UNL     1      25.317  -6.860  23.413  0.00  0.00    +0.000 A 
ATOM     12  C   UNL     1      25.640  -8.192  23.340  0.00  0.00    +0.000 A 
ATOM     13 CL   UNL     1      27.119  -8.710  22.528  0.00  0.00    +0.000 Cl
ATOM     14  C   UNL     1      24.812  -9.127  23.902  0.00  0.00    +0.000 A 
ATOM     15  C   UNL     1      23.667  -8.684  24.528  0.00  0.00    +0.000 A 
ENDROOT
BRANCH   1  16
ATOM     16  C   UNL     1      18.518  -8.352  27.484  0.00  0.00    +0.000 C 
BRANCH  16  18
ATOM     17  C   UNL     1      16.557  -7.643  26.140  0.00  0.00    +0.000 C 
ATOM     18  C   UNL     1      17.497  -7.280  27.268  0.00  0.00    +0.000 C 
ATOM     19  C   UNL     1      18.153  -5.947  27.035  0.00  0.00    +0.000 C 
ENDBRANCH  16  18
ENDBRANCH   1  16
TORSDOF 2
ENDMDL
