MODEL 1
REMARK VINA RESULT:      -8.7      0.000      0.000
REMARK  Name = 
REMARK  5 active torsions:
REMARK  status: ('A' for Active; 'I' for Inactive)
REMARK    1  A    between atoms: N_5  and  C_6
REMARK    2  A    between atoms: C_6  and  C_7
REMARK    3  A    between atoms: C_7  and  C_8
REMARK    4  A    between atoms: C_11  and  N_12
REMARK    5  A    between atoms: C_13  and  C_15
REMARK                            x       y       z     vdW  Elec       q    Type
REMARK                         _______ _______ _______ _____ _____    ______ ____
ROOT
ATOM      1  C   UNL     1      38.708   5.122  13.989  0.00  0.00    +0.000 C 
ATOM      2  C   UNL     1      39.387   4.068  14.840  0.00  0.00    +0.000 C 
ATOM      3  C   UNL     1      38.924   2.677  14.449  0.00  0.00    +0.000 C 
ATOM      4  C   UNL     1      37.469   2.542  14.943  0.00  0.00    +0.000 C 
ATOM      5  C   UNL     1      36.927   3.944  15.218  0.00  0.00    +0.000 C 
ATOM      6  C   UNL     1      37.229   4.737  13.939  0.00  0.00    +0.000 C 
ENDROOT
BRANCH   4   7
ATOM      7  N   UNL     1      37.417   1.683  16.095  0.00  0.00    +0.000 NA
ATOM      8  C   UNL     1      36.445   0.689  16.335  0.00  0.00    +0.000 C 
ATOM      9  O   UNL     1      35.541   0.542  15.451  0.00  0.00    +0.000 OA
BRANCH   8  10
ATOM     10  C   UNL     1      36.485  -0.128  17.549  0.00  0.00    +0.000 A 
ATOM     11  C   UNL     1      35.735   0.029  18.703  0.00  0.00    +0.000 A 
ATOM     12  N   UNL     1      36.087  -0.935  19.556  0.00  0.00    +0.000 NA
ATOM     13  C   UNL     1      37.045  -1.737  19.026  0.00  0.00    +0.000 A 
ATOM     14  N   UNL     1      37.679  -2.806  19.522  0.00  0.00    +0.000 NA
ATOM     15  C   UNL     1      38.601  -3.431  18.786  0.00  0.00    +0.000 A 
ATOM     16  C   UNL     1      38.890  -2.968  17.523  0.00  0.00    +0.000 A 
ATOM     17  C   UNL     1      38.235  -1.875  17.026  0.00  0.00    +0.000 A 
ATOM     18  C   UNL     1      37.286  -1.215  17.757  0.00  0.00    +0.000 A 
ENDBRANCH   8  10
ENDBRANCH   4   7
BRANCH   1  19
ATOM     19  C   UNL     1      38.747   6.497  14.671  0.00  0.00    +0.000 C 
BRANCH  19  20
ATOM     20  C   UNL     1      40.137   6.595  15.329  0.00  0.00    +0.000 C 
BRANCH  20  25
ATOM     21  C   UNL     1      40.889   6.063  19.898  0.00  0.00    +0.000 C 
ATOM     22  C   UNL     1      39.920   6.403  18.790  0.00  0.00    +0.000 C 
ATOM     23  C   UNL     1      39.096   5.194  18.451  0.00  0.00    +0.000 C 
ATOM     24  C   UNL     1      40.731   6.920  17.625  0.00  0.00    +0.000 C 
ATOM     25  N   UNL     1      39.907   7.383  16.531  0.00  0.00    +0.000 NA
ATOM     26  C   UNL     1      38.531   7.549  16.852  0.00  0.00    +0.000 C 
ATOM     27  C   UNL     1      38.302   8.109  18.208  0.00  0.00    +0.000 A 
ATOM     28  C   UNL     1      37.433   9.150  18.460  0.00  0.00    +0.000 A 
ATOM     29  C   UNL     1      37.299   9.589  19.768  0.00  0.00    +0.000 A 
ATOM     30  C   UNL     1      38.033   8.976  20.772  0.00  0.00    +0.000 A 
ATOM     31  C   UNL     1      38.899   7.938  20.525  0.00  0.00    +0.000 A 
ATOM     32  C   UNL     1      39.027   7.512  19.242  0.00  0.00    +0.000 A 
ENDBRANCH  20  25
ENDBRANCH  19  20
ENDBRANCH   1  19
TORSDOF 5
ENDMDL
MODEL 2
REMARK VINA RESULT:      -8.2      4.288      9.235
REMARK  Name = 
REMARK  5 active torsions:
REMARK  status: ('A' for Active; 'I' for Inactive)
REMARK    1  A    between atoms: N_5  and  C_6
REMARK    2  A    between atoms: C_6  and  C_7
REMARK    3  A    between atoms: C_7  and  C_8
REMARK    4  A    between atoms: C_11  and  N_12
REMARK    5  A    between atoms: C_13  and  C_15
REMARK                            x       y       z     vdW  Elec       q    Type
REMARK                         _______ _______ _______ _____ _____    ______ ____
ROOT
ATOM      1  C   UNL     1      39.013   5.888  17.326  0.00  0.00    +0.000 C 
ATOM      2  C   UNL     1      39.118   5.421  18.764  0.00  0.00    +0.000 C 
ATOM      3  C   UNL     1      39.553   6.558  19.671  0.00  0.00    +0.000 C 
ATOM      4  C   UNL     1      41.038   6.830  19.355  0.00  0.00    +0.000 C 
ATOM      5  C   UNL     1      41.362   6.195  18.003  0.00  0.00    +0.000 C 
ATOM      6  C   UNL     1      40.272   6.714  17.056  0.00  0.00    +0.000 C 
ENDROOT
BRANCH   4   7
ATOM      7  N   UNL     1      41.867   6.339  20.421  0.00  0.00    +0.000 NA
ATOM      8  C   UNL     1      43.191   6.747  20.688  0.00  0.00    +0.000 C 
ATOM      9  O   UNL     1      43.687   7.630  19.916  0.00  0.00    +0.000 OA
BRANCH   8  10
ATOM     10  C   UNL     1      43.948   6.174  21.802  0.00  0.00    +0.000 A 
ATOM     11  C   UNL     1      44.459   4.892  21.910  0.00  0.00    +0.000 A 
ATOM     12  N   UNL     1      45.082   4.795  23.086  0.00  0.00    +0.000 NA
ATOM     13  C   UNL     1      45.012   5.961  23.778  0.00  0.00    +0.000 A 
ATOM     14  N   UNL     1      45.488   6.307  24.980  0.00  0.00    +0.000 NA
ATOM     15  C   UNL     1      45.279   7.541  25.445  0.00  0.00    +0.000 A 
ATOM     16  C   UNL     1      44.575   8.444  24.683  0.00  0.00    +0.000 A 
ATOM     17  C   UNL     1      44.095   8.080  23.456  0.00  0.00    +0.000 A 
ATOM     18  C   UNL     1      44.293   6.823  22.952  0.00  0.00    +0.000 A 
ENDBRANCH   8  10
ENDBRANCH   4   7
BRANCH   1  19
ATOM     19  C   UNL     1      39.087   4.704  16.351  0.00  0.00    +0.000 C 
BRANCH  19  20
ATOM     20  C   UNL     1      37.627   4.383  15.977  0.00  0.00    +0.000 C 
BRANCH  20  25
ATOM     21  C   UNL     1      36.626   0.546  13.527  0.00  0.00    +0.000 C 
ATOM     22  C   UNL     1      36.341   1.405  14.738  0.00  0.00    +0.000 C 
ATOM     23  C   UNL     1      35.156   2.286  14.463  0.00  0.00    +0.000 C 
ATOM     24  C   UNL     1      37.602   2.176  15.050  0.00  0.00    +0.000 C 
ATOM     25  N   UNL     1      37.493   2.961  16.259  0.00  0.00    +0.000 NA
ATOM     26  C   UNL     1      36.371   2.643  17.074  0.00  0.00    +0.000 C 
ATOM     27  C   UNL     1      36.075   1.189  17.135  0.00  0.00    +0.000 A 
ATOM     28  C   UNL     1      35.831   0.516  18.314  0.00  0.00    +0.000 A 
ATOM     29  C   UNL     1      35.564  -0.843  18.248  0.00  0.00    +0.000 A 
ATOM     30  C   UNL     1      35.550  -1.477  17.014  0.00  0.00    +0.000 A 
ATOM     31  C   UNL     1      35.792  -0.808  15.838  0.00  0.00    +0.000 A 
ATOM     32  C   UNL     1      36.053   0.522  15.908  0.00  0.00    +0.000 A 
ENDBRANCH  20  25
ENDBRANCH  19  20
ENDBRANCH   1  19
TORSDOF 5
ENDMDL
MODEL 3
REMARK VINA RESULT:      -8.2      1.760      3.210
REMARK  Name = 
REMARK  5 active torsions:
REMARK  status: ('A' for Active; 'I' for Inactive)
REMARK    1  A    between atoms: N_5  and  C_6
REMARK    2  A    between atoms: C_6  and  C_7
REMARK    3  A    between atoms: C_7  and  C_8
REMARK    4  A    between atoms: C_11  and  N_12
REMARK    5  A    between atoms: C_13  and  C_15
REMARK                            x       y       z     vdW  Elec       q    Type
REMARK                         _______ _______ _______ _____ _____    ______ ____
ROOT
ATOM      1  C   UNL     1      38.471   4.749  14.416  0.00  0.00    +0.000 C 
ATOM      2  C   UNL     1      39.483   3.621  14.427  0.00  0.00    +0.000 C 
ATOM      3  C   UNL     1      38.905   2.372  13.788  0.00  0.00    +0.000 C 
ATOM      4  C   UNL     1      37.856   1.817  14.773  0.00  0.00    +0.000 C 
ATOM      5  C   UNL     1      37.491   2.929  15.756  0.00  0.00    +0.000 C 
ATOM      6  C   UNL     1      37.147   4.135  14.872  0.00  0.00    +0.000 C 
ENDROOT
BRANCH   4   7
ATOM      7  N   UNL     1      38.361   0.637  15.419  0.00  0.00    +0.000 NA
ATOM      8  C   UNL     1      37.883  -0.675  15.224  0.00  0.00    +0.000 C 
ATOM      9  O   UNL     1      36.924  -0.822  14.399  0.00  0.00    +0.000 OA
BRANCH   8  10
ATOM     10  C   UNL     1      38.471  -1.808  15.942  0.00  0.00    +0.000 A 
ATOM     11  C   UNL     1      39.329  -2.774  15.446  0.00  0.00    +0.000 A 
ATOM     12  N   UNL     1      39.621  -3.614  16.441  0.00  0.00    +0.000 NA
ATOM     13  C   UNL     1      38.994  -3.255  17.589  0.00  0.00    +0.000 A 
ATOM     14  N   UNL     1      39.000  -3.803  18.810  0.00  0.00    +0.000 NA
ATOM     15  C   UNL     1      38.283  -3.248  19.790  0.00  0.00    +0.000 A 
ATOM     16  C   UNL     1      37.543  -2.116  19.532  0.00  0.00    +0.000 A 
ATOM     17  C   UNL     1      37.546  -1.564  18.282  0.00  0.00    +0.000 A 
ATOM     18  C   UNL     1      38.271  -2.110  17.258  0.00  0.00    +0.000 A 
ENDBRANCH   8  10
ENDBRANCH   4   7
BRANCH   1  19
ATOM     19  C   UNL     1      38.812   5.810  15.472  0.00  0.00    +0.000 C 
BRANCH  19  20
ATOM     20  C   UNL     1      40.230   6.302  15.125  0.00  0.00    +0.000 C 
BRANCH  20  25
ATOM     21  C   UNL     1      39.474   6.580  19.716  0.00  0.00    +0.000 C 
ATOM     22  C   UNL     1      40.351   6.936  18.538  0.00  0.00    +0.000 C 
ATOM     23  C   UNL     1      40.026   8.325  18.068  0.00  0.00    +0.000 C 
ATOM     24  C   UNL     1      40.133   5.880  17.480  0.00  0.00    +0.000 C 
ATOM     25  N   UNL     1      41.000   6.048  16.335  0.00  0.00    +0.000 NA
ATOM     26  C   UNL     1      42.074   6.960  16.532  0.00  0.00    +0.000 C 
ATOM     27  C   UNL     1      42.682   6.878  17.884  0.00  0.00    +0.000 A 
ATOM     28  C   UNL     1      44.043   6.817  18.099  0.00  0.00    +0.000 A 
ATOM     29  C   UNL     1      44.496   6.744  19.407  0.00  0.00    +0.000 A 
ATOM     30  C   UNL     1      43.580   6.735  20.447  0.00  0.00    +0.000 A 
ATOM     31  C   UNL     1      42.223   6.796  20.236  0.00  0.00    +0.000 A 
ATOM     32  C   UNL     1      41.784   6.867  18.954  0.00  0.00    +0.000 A 
ENDBRANCH  20  25
ENDBRANCH  19  20
ENDBRANCH   1  19
TORSDOF 5
ENDMDL
MODEL 4
REMARK VINA RESULT:      -7.9      4.003      5.916
REMARK  Name = 
REMARK  5 active torsions:
REMARK  status: ('A' for Active; 'I' for Inactive)
REMARK    1  A    between atoms: N_5  and  C_6
REMARK    2  A    between atoms: C_6  and  C_7
REMARK    3  A    between atoms: C_7  and  C_8
REMARK    4  A    between atoms: C_11  and  N_12
REMARK    5  A    between atoms: C_13  and  C_15
REMARK                            x       y       z     vdW  Elec       q    Type
REMARK                         _______ _______ _______ _____ _____    ______ ____
ROOT
ATOM      1  C   UNL     1      35.588   0.816  15.434  0.00  0.00    +0.000 C 
ATOM      2  C   UNL     1      36.484   0.810  14.212  0.00  0.00    +0.000 C 
ATOM      3  C   UNL     1      36.875  -0.607  13.835  0.00  0.00    +0.000 C 
ATOM      4  C   UNL     1      37.865  -1.093  14.913  0.00  0.00    +0.000 C 
ATOM      5  C   UNL     1      37.731  -0.179  16.130  0.00  0.00    +0.000 C 
ATOM      6  C   UNL     1      36.227  -0.150  16.433  0.00  0.00    +0.000 C 
ENDROOT
BRANCH   4   7
ATOM      7  N   UNL     1      39.199  -1.125  14.377  0.00  0.00    +0.000 NA
ATOM      8  C   UNL     1      40.189  -2.078  14.697  0.00  0.00    +0.000 C 
ATOM      9  O   UNL     1      39.867  -2.987  15.528  0.00  0.00    +0.000 OA
BRANCH   8  10
ATOM     10  C   UNL     1      41.522  -2.013  14.094  0.00  0.00    +0.000 A 
ATOM     11  C   UNL     1      42.631  -1.327  14.560  0.00  0.00    +0.000 A 
ATOM     12  N   UNL     1      43.635  -1.543  13.707  0.00  0.00    +0.000 NA
ATOM     13  C   UNL     1      43.249  -2.346  12.684  0.00  0.00    +0.000 A 
ATOM     14  N   UNL     1      43.918  -2.812  11.622  0.00  0.00    +0.000 NA
ATOM     15  C   UNL     1      43.298  -3.601  10.741  0.00  0.00    +0.000 A 
ATOM     16  C   UNL     1      41.975  -3.926  10.935  0.00  0.00    +0.000 A 
ATOM     17  C   UNL     1      41.302  -3.446  12.023  0.00  0.00    +0.000 A 
ATOM     18  C   UNL     1      41.911  -2.636  12.943  0.00  0.00    +0.000 A 
ENDBRANCH   8  10
ENDBRANCH   4   7
BRANCH   1  19
ATOM     19  C   UNL     1      35.601   2.186  16.127  0.00  0.00    +0.000 C 
BRANCH  19  20
ATOM     20  C   UNL     1      35.807   3.218  15.002  0.00  0.00    +0.000 C 
BRANCH  20  25
ATOM     21  C   UNL     1      39.770   5.309  13.717  0.00  0.00    +0.000 C 
ATOM     22  C   UNL     1      39.015   4.529  14.769  0.00  0.00    +0.000 C 
ATOM     23  C   UNL     1      39.366   3.072  14.665  0.00  0.00    +0.000 C 
ATOM     24  C   UNL     1      37.544   4.807  14.565  0.00  0.00    +0.000 C 
ATOM     25  N   UNL     1      36.714   4.199  15.581  0.00  0.00    +0.000 NA
ATOM     26  C   UNL     1      37.422   3.722  16.720  0.00  0.00    +0.000 C 
ATOM     27  C   UNL     1      38.535   4.610  17.141  0.00  0.00    +0.000 A 
ATOM     28  C   UNL     1      38.740   4.998  18.449  0.00  0.00    +0.000 A 
ATOM     29  C   UNL     1      39.815   5.829  18.724  0.00  0.00    +0.000 A 
ATOM     30  C   UNL     1      40.641   6.241  17.690  0.00  0.00    +0.000 A 
ATOM     31  C   UNL     1      40.440   5.856  16.386  0.00  0.00    +0.000 A 
ATOM     32  C   UNL     1      39.386   5.042  16.121  0.00  0.00    +0.000 A 
ENDBRANCH  20  25
ENDBRANCH  19  20
ENDBRANCH   1  19
TORSDOF 5
ENDMDL
MODEL 5
REMARK VINA RESULT:      -7.9      2.185      8.491
REMARK  Name = 
REMARK  5 active torsions:
REMARK  status: ('A' for Active; 'I' for Inactive)
REMARK    1  A    between atoms: N_5  and  C_6
REMARK    2  A    between atoms: C_6  and  C_7
REMARK    3  A    between atoms: C_7  and  C_8
REMARK    4  A    between atoms: C_11  and  N_12
REMARK    5  A    between atoms: C_13  and  C_15
REMARK                            x       y       z     vdW  Elec       q    Type
REMARK                         _______ _______ _______ _____ _____    ______ ____
ROOT
ATOM      1  C   UNL     1      36.832   2.542  13.602  0.00  0.00    +0.000 C 
ATOM      2  C   UNL     1      36.350   3.581  14.593  0.00  0.00    +0.000 C 
ATOM      3  C   UNL     1      37.209   4.830  14.528  0.00  0.00    +0.000 C 
ATOM      4  C   UNL     1      38.572   4.461  15.148  0.00  0.00    +0.000 C 
ATOM      5  C   UNL     1      38.686   2.937  15.175  0.00  0.00    +0.000 C 
ATOM      6  C   UNL     1      38.354   2.495  13.743  0.00  0.00    +0.000 C 
ENDROOT
BRANCH   4   7
ATOM      7  N   UNL     1      38.700   5.057  16.450  0.00  0.00    +0.000 NA
ATOM      8  C   UNL     1      39.799   5.817  16.901  0.00  0.00    +0.000 C 
ATOM      9  O   UNL     1      40.756   5.990  16.079  0.00  0.00    +0.000 OA
BRANCH   8  10
ATOM     10  C   UNL     1      39.826   6.376  18.254  0.00  0.00    +0.000 A 
ATOM     11  C   UNL     1      40.753   6.133  19.254  0.00  0.00    +0.000 A 
ATOM     12  N   UNL     1      40.401   6.849  20.323  0.00  0.00    +0.000 NA
ATOM     13  C   UNL     1      39.273   7.566  20.087  0.00  0.00    +0.000 A 
ATOM     14  N   UNL     1      38.578   8.405  20.864  0.00  0.00    +0.000 NA
ATOM     15  C   UNL     1      37.479   8.995  20.387  0.00  0.00    +0.000 A 
ATOM     16  C   UNL     1      37.074   8.734  19.098  0.00  0.00    +0.000 A 
ATOM     17  C   UNL     1      37.793   7.877  18.312  0.00  0.00    +0.000 A 
ATOM     18  C   UNL     1      38.922   7.258  18.774  0.00  0.00    +0.000 A 
ENDBRANCH   8  10
ENDBRANCH   4   7
BRANCH   1  19
ATOM     19  C   UNL     1      36.344   1.138  13.988  0.00  0.00    +0.000 C 
BRANCH  19  20
ATOM     20  C   UNL     1      37.549   0.204  13.766  0.00  0.00    +0.000 C 
BRANCH  20  25
ATOM     21  C   UNL     1      40.100  -3.217  15.640  0.00  0.00    +0.000 C 
ATOM     22  C   UNL     1      38.795  -2.455  15.620  0.00  0.00    +0.000 C 
ATOM     23  C   UNL     1      37.783  -3.211  14.806  0.00  0.00    +0.000 C 
ATOM     24  C   UNL     1      39.088  -1.075  15.081  0.00  0.00    +0.000 C 
ATOM     25  N   UNL     1      37.933  -0.206  15.110  0.00  0.00    +0.000 NA
ATOM     26  C   UNL     1      36.846  -0.688  15.893  0.00  0.00    +0.000 C 
ATOM     27  C   UNL     1      37.271  -1.357  17.148  0.00  0.00    +0.000 A 
ATOM     28  C   UNL     1      36.705  -1.089  18.377  0.00  0.00    +0.000 A 
ATOM     29  C   UNL     1      37.182  -1.778  19.482  0.00  0.00    +0.000 A 
ATOM     30  C   UNL     1      38.202  -2.703  19.321  0.00  0.00    +0.000 A 
ATOM     31  C   UNL     1      38.769  -2.971  18.098  0.00  0.00    +0.000 A 
ATOM     32  C   UNL     1      38.298  -2.295  17.019  0.00  0.00    +0.000 A 
ENDBRANCH  20  25
ENDBRANCH  19  20
ENDBRANCH   1  19
TORSDOF 5
ENDMDL
MODEL 6
REMARK VINA RESULT:      -7.8      7.013     10.401
REMARK  Name = 
REMARK  5 active torsions:
REMARK  status: ('A' for Active; 'I' for Inactive)
REMARK    1  A    between atoms: N_5  and  C_6
REMARK    2  A    between atoms: C_6  and  C_7
REMARK    3  A    between atoms: C_7  and  C_8
REMARK    4  A    between atoms: C_11  and  N_12
REMARK    5  A    between atoms: C_13  and  C_15
REMARK                            x       y       z     vdW  Elec       q    Type
REMARK                         _______ _______ _______ _____ _____    ______ ____
ROOT
ATOM      1  C   UNL     1      44.960   7.291  22.358  0.00  0.00    +0.000 C 
ATOM      2  C   UNL     1      43.906   7.595  23.403  0.00  0.00    +0.000 C 
ATOM      3  C   UNL     1      44.491   7.507  24.801  0.00  0.00    +0.000 C 
ATOM      4  C   UNL     1      44.741   6.011  25.081  0.00  0.00    +0.000 C 
ATOM      5  C   UNL     1      44.732   5.268  23.745  0.00  0.00    +0.000 C 
ATOM      6  C   UNL     1      45.706   6.052  22.855  0.00  0.00    +0.000 C 
ENDROOT
BRANCH   4   7
ATOM      7  N   UNL     1      43.763   5.512  26.009  0.00  0.00    +0.000 NA
ATOM      8  C   UNL     1      43.955   5.352  27.397  0.00  0.00    +0.000 C 
ATOM      9  O   UNL     1      45.093   5.683  27.863  0.00  0.00    +0.000 OA
BRANCH   8  10
ATOM     10  C   UNL     1      42.888   4.828  28.251  0.00  0.00    +0.000 A 
ATOM     11  C   UNL     1      42.811   3.578  28.842  0.00  0.00    +0.000 A 
ATOM     12  N   UNL     1      41.673   3.522  29.538  0.00  0.00    +0.000 NA
ATOM     13  C   UNL     1      40.978   4.683  29.440  0.00  0.00    +0.000 A 
ATOM     14  N   UNL     1      39.806   5.061  29.965  0.00  0.00    +0.000 NA
ATOM     15  C   UNL     1      39.328   6.282  29.712  0.00  0.00    +0.000 A 
ATOM     16  C   UNL     1      40.048   7.140  28.912  0.00  0.00    +0.000 A 
ATOM     17  C   UNL     1      41.245   6.744  28.382  0.00  0.00    +0.000 A 
ATOM     18  C   UNL     1      41.759   5.500  28.624  0.00  0.00    +0.000 A 
ENDBRANCH   8  10
ENDBRANCH   4   7
BRANCH   1  19
ATOM     19  C   UNL     1      44.317   6.872  21.028  0.00  0.00    +0.000 C 
BRANCH  19  20
ATOM     20  C   UNL     1      42.815   7.177  21.177  0.00  0.00    +0.000 C 
BRANCH  20  25
ATOM     21  C   UNL     1      42.980   7.115  16.520  0.00  0.00    +0.000 C 
ATOM     22  C   UNL     1      42.135   7.165  17.771  0.00  0.00    +0.000 C 
ATOM     23  C   UNL     1      41.754   8.588  18.066  0.00  0.00    +0.000 C 
ATOM     24  C   UNL     1      42.933   6.517  18.879  0.00  0.00    +0.000 C 
ATOM     25  N   UNL     1      42.188   6.406  20.113  0.00  0.00    +0.000 NA
ATOM     26  C   UNL     1      40.789   6.637  19.986  0.00  0.00    +0.000 C 
ATOM     27  C   UNL     1      40.205   6.072  18.744  0.00  0.00    +0.000 A 
ATOM     28  C   UNL     1      39.047   5.324  18.725  0.00  0.00    +0.000 A 
ATOM     29  C   UNL     1      38.594   4.849  17.503  0.00  0.00    +0.000 A 
ATOM     30  C   UNL     1      39.310   5.137  16.352  0.00  0.00    +0.000 A 
ATOM     31  C   UNL     1      40.464   5.883  16.367  0.00  0.00    +0.000 A 
ATOM     32  C   UNL     1      40.904   6.345  17.565  0.00  0.00    +0.000 A 
ENDBRANCH  20  25
ENDBRANCH  19  20
ENDBRANCH   1  19
TORSDOF 5
ENDMDL
MODEL 7
REMARK VINA RESULT:      -7.7      3.611      9.268
REMARK  Name = 
REMARK  5 active torsions:
REMARK  status: ('A' for Active; 'I' for Inactive)
REMARK    1  A    between atoms: N_5  and  C_6
REMARK    2  A    between atoms: C_6  and  C_7
REMARK    3  A    between atoms: C_7  and  C_8
REMARK    4  A    between atoms: C_11  and  N_12
REMARK    5  A    between atoms: C_13  and  C_15
REMARK                            x       y       z     vdW  Elec       q    Type
REMARK                         _______ _______ _______ _____ _____    ______ ____
ROOT
ATOM      1  C   UNL     1      36.370   1.705  14.245  0.00  0.00    +0.000 C 
ATOM      2  C   UNL     1      36.814   1.714  15.694  0.00  0.00    +0.000 C 
ATOM      3  C   UNL     1      36.437   3.022  16.366  0.00  0.00    +0.000 C 
ATOM      4  C   UNL     1      37.369   4.103  15.780  0.00  0.00    +0.000 C 
ATOM      5  C   UNL     1      37.974   3.560  14.486  0.00  0.00    +0.000 C 
ATOM      6  C   UNL     1      36.772   3.064  13.671  0.00  0.00    +0.000 C 
ENDROOT
BRANCH   4   7
ATOM      7  N   UNL     1      38.361   4.478  16.751  0.00  0.00    +0.000 NA
ATOM      8  C   UNL     1      38.788   5.794  17.022  0.00  0.00    +0.000 C 
ATOM      9  O   UNL     1      38.243   6.727  16.348  0.00  0.00    +0.000 OA
BRANCH   8  10
ATOM     10  C   UNL     1      39.813   6.062  18.032  0.00  0.00    +0.000 A 
ATOM     11  C   UNL     1      39.662   6.086  19.409  0.00  0.00    +0.000 A 
ATOM     12  N   UNL     1      40.850   6.367  19.948  0.00  0.00    +0.000 NA
ATOM     13  C   UNL     1      41.798   6.534  18.991  0.00  0.00    +0.000 A 
ATOM     14  N   UNL     1      43.102   6.823  19.078  0.00  0.00    +0.000 NA
ATOM     15  C   UNL     1      43.831   6.938  17.965  0.00  0.00    +0.000 A 
ATOM     16  C   UNL     1      43.232   6.758  16.739  0.00  0.00    +0.000 A 
ATOM     17  C   UNL     1      41.899   6.462  16.663  0.00  0.00    +0.000 A 
ATOM     18  C   UNL     1      41.127   6.338  17.785  0.00  0.00    +0.000 A 
ENDBRANCH   8  10
ENDBRANCH   4   7
BRANCH   1  19
ATOM     19  C   UNL     1      37.159   0.670  13.430  0.00  0.00    +0.000 C 
BRANCH  19  20
ATOM     20  C   UNL     1      36.758  -0.703  14.002  0.00  0.00    +0.000 C 
BRANCH  20  25
ATOM     21  C   UNL     1      40.510  -3.050  15.467  0.00  0.00    +0.000 C 
ATOM     22  C   UNL     1      39.897  -2.122  14.443  0.00  0.00    +0.000 C 
ATOM     23  C   UNL     1      40.251  -0.701  14.775  0.00  0.00    +0.000 C 
ATOM     24  C   UNL     1      38.409  -2.382  14.433  0.00  0.00    +0.000 C 
ATOM     25  N   UNL     1      37.716  -1.627  13.412  0.00  0.00    +0.000 NA
ATOM     26  C   UNL     1      38.563  -1.030  12.437  0.00  0.00    +0.000 C 
ATOM     27  C   UNL     1      39.708  -1.888  12.040  0.00  0.00    +0.000 A 
ATOM     28  C   UNL     1      40.065  -2.112  10.726  0.00  0.00    +0.000 A 
ATOM     29  C   UNL     1      41.155  -2.932  10.475  0.00  0.00    +0.000 A 
ATOM     30  C   UNL     1      41.845  -3.495  11.538  0.00  0.00    +0.000 A 
ATOM     31  C   UNL     1      41.491  -3.273  12.848  0.00  0.00    +0.000 A 
ATOM     32  C   UNL     1      40.424  -2.470  13.089  0.00  0.00    +0.000 A 
ENDBRANCH  20  25
ENDBRANCH  19  20
ENDBRANCH   1  19
TORSDOF 5
ENDMDL
MODEL 8
REMARK VINA RESULT:      -7.7      3.574      9.300
REMARK  Name = 
REMARK  5 active torsions:
REMARK  status: ('A' for Active; 'I' for Inactive)
REMARK    1  A    between atoms: N_5  and  C_6
REMARK    2  A    between atoms: C_6  and  C_7
REMARK    3  A    between atoms: C_7  and  C_8
REMARK    4  A    between atoms: C_11  and  N_12
REMARK    5  A    between atoms: C_13  and  C_15
REMARK                            x       y       z     vdW  Elec       q    Type
REMARK                         _______ _______ _______ _____ _____    ______ ____
ROOT
ATOM      1  C   UNL     1      37.691   4.756  16.827  0.00  0.00    +0.000 C 
ATOM      2  C   UNL     1      38.566   4.633  18.058  0.00  0.00    +0.000 C 
ATOM      3  C   UNL     1      39.139   5.982  18.450  0.00  0.00    +0.000 C 
ATOM      4  C   UNL     1      40.198   6.337  17.387  0.00  0.00    +0.000 C 
ATOM      5  C   UNL     1      39.957   5.457  16.161  0.00  0.00    +0.000 C 
ATOM      6  C   UNL     1      38.466   5.633  15.842  0.00  0.00    +0.000 C 
ENDROOT
BRANCH   4   7
ATOM      7  N   UNL     1      41.518   6.187  17.937  0.00  0.00    +0.000 NA
ATOM      8  C   UNL     1      42.424   7.236  18.197  0.00  0.00    +0.000 C 
ATOM      9  O   UNL     1      42.033   8.416  17.922  0.00  0.00    +0.000 OA
BRANCH   8  10
ATOM     10  C   UNL     1      43.751   6.967  18.755  0.00  0.00    +0.000 A 
ATOM     11  C   UNL     1      44.972   7.018  18.104  0.00  0.00    +0.000 A 
ATOM     12  N   UNL     1      45.922   6.706  18.988  0.00  0.00    +0.000 NA
ATOM     13  C   UNL     1      45.392   6.446  20.209  0.00  0.00    +0.000 A 
ATOM     14  N   UNL     1      45.966   6.098  21.368  0.00  0.00    +0.000 NA
ATOM     15  C   UNL     1      45.209   5.893  22.448  0.00  0.00    +0.000 A 
ATOM     16  C   UNL     1      43.843   6.042  22.358  0.00  0.00    +0.000 A 
ATOM     17  C   UNL     1      43.268   6.399  21.170  0.00  0.00    +0.000 A 
ATOM     18  C   UNL     1      44.019   6.616  20.047  0.00  0.00    +0.000 A 
ENDBRANCH   8  10
ENDBRANCH   4   7
BRANCH   1  19
ATOM     19  C   UNL     1      37.528   3.401  16.124  0.00  0.00    +0.000 C 
BRANCH  19  20
ATOM     20  C   UNL     1      36.338   2.712  16.818  0.00  0.00    +0.000 C 
BRANCH  20  25
ATOM     21  C   UNL     1      34.099  -1.331  17.422  0.00  0.00    +0.000 C 
ATOM     22  C   UNL     1      35.375  -0.617  17.038  0.00  0.00    +0.000 C 
ATOM     23  C   UNL     1      36.306  -0.581  18.216  0.00  0.00    +0.000 C 
ATOM     24  C   UNL     1      34.989   0.755  16.536  0.00  0.00    +0.000 C 
ATOM     25  N   UNL     1      36.119   1.505  16.035  0.00  0.00    +0.000 NA
ATOM     26  C   UNL     1      37.298   0.735  15.827  0.00  0.00    +0.000 C 
ATOM     27  C   UNL     1      37.034  -0.617  15.274  0.00  0.00    +0.000 A 
ATOM     28  C   UNL     1      37.729  -1.147  14.207  0.00  0.00    +0.000 A 
ATOM     29  C   UNL     1      37.396  -2.423  13.777  0.00  0.00    +0.000 A 
ATOM     30  C   UNL     1      36.387  -3.119  14.425  0.00  0.00    +0.000 A 
ATOM     31  C   UNL     1      35.693  -2.594  15.488  0.00  0.00    +0.000 A 
ATOM     32  C   UNL     1      36.022  -1.344  15.905  0.00  0.00    +0.000 A 
ENDBRANCH  20  25
ENDBRANCH  19  20
ENDBRANCH   1  19
TORSDOF 5
ENDMDL
MODEL 9
REMARK VINA RESULT:      -7.4      3.633      9.497
REMARK  Name = 
REMARK  5 active torsions:
REMARK  status: ('A' for Active; 'I' for Inactive)
REMARK    1  A    between atoms: N_5  and  C_6
REMARK    2  A    between atoms: C_6  and  C_7
REMARK    3  A    between atoms: C_7  and  C_8
REMARK    4  A    between atoms: C_11  and  N_12
REMARK    5  A    between atoms: C_13  and  C_15
REMARK                            x       y       z     vdW  Elec       q    Type
REMARK                         _______ _______ _______ _____ _____    ______ ____
ROOT
ATOM      1  C   UNL     1      36.320   1.469  13.963  0.00  0.00    +0.000 C 
ATOM      2  C   UNL     1      36.400   1.570  15.472  0.00  0.00    +0.000 C 
ATOM      3  C   UNL     1      35.794   2.872  15.960  0.00  0.00    +0.000 C 
ATOM      4  C   UNL     1      36.770   3.994  15.551  0.00  0.00    +0.000 C 
ATOM      5  C   UNL     1      37.701   3.445  14.470  0.00  0.00    +0.000 C 
ATOM      6  C   UNL     1      36.763   2.830  13.423  0.00  0.00    +0.000 C 
ENDROOT
BRANCH   4   7
ATOM      7  N   UNL     1      37.474   4.480  16.706  0.00  0.00    +0.000 NA
ATOM      8  C   UNL     1      38.019   5.773  16.852  0.00  0.00    +0.000 C 
ATOM      9  O   UNL     1      37.869   6.575  15.875  0.00  0.00    +0.000 OA
BRANCH   8  10
ATOM     10  C   UNL     1      38.724   6.161  18.075  0.00  0.00    +0.000 A 
ATOM     11  C   UNL     1      39.820   5.544  18.655  0.00  0.00    +0.000 A 
ATOM     12  N   UNL     1      40.142   6.228  19.755  0.00  0.00    +0.000 NA
ATOM     13  C   UNL     1      39.309   7.283  19.941  0.00  0.00    +0.000 A 
ATOM     14  N   UNL     1      39.264   8.219  20.897  0.00  0.00    +0.000 NA
ATOM     15  C   UNL     1      38.326   9.168  20.853  0.00  0.00    +0.000 A 
ATOM     16  C   UNL     1      37.413   9.173  19.823  0.00  0.00    +0.000 A 
ATOM     17  C   UNL     1      37.468   8.212  18.852  0.00  0.00    +0.000 A 
ATOM     18  C   UNL     1      38.418   7.228  18.870  0.00  0.00    +0.000 A 
ENDBRANCH   8  10
ENDBRANCH   4   7
BRANCH   1  19
ATOM     19  C   UNL     1      37.344   0.463  13.418  0.00  0.00    +0.000 C 
BRANCH  19  20
ATOM     20  C   UNL     1      36.889  -0.915  13.935  0.00  0.00    +0.000 C 
BRANCH  20  25
ATOM     21  C   UNL     1      40.787  -3.024  15.379  0.00  0.00    +0.000 C 
ATOM     22  C   UNL     1      40.095  -2.192  14.324  0.00  0.00    +0.000 C 
ATOM     23  C   UNL     1      40.410  -0.739  14.540  0.00  0.00    +0.000 C 
ATOM     24  C   UNL     1      38.619  -2.503  14.402  0.00  0.00    +0.000 C 
ATOM     25  N   UNL     1      37.853  -1.845  13.366  0.00  0.00    +0.000 NA
ATOM     26  C   UNL     1      38.633  -1.289  12.313  0.00  0.00    +0.000 C 
ATOM     27  C   UNL     1      39.790  -2.133  11.922  0.00  0.00    +0.000 A 
ATOM     28  C   UNL     1      40.096  -2.437  10.612  0.00  0.00    +0.000 A 
ATOM     29  C   UNL     1      41.203  -3.234  10.366  0.00  0.00    +0.000 A 
ATOM     30  C   UNL     1      41.961  -3.697  11.431  0.00  0.00    +0.000 A 
ATOM     31  C   UNL     1      41.658  -3.396  12.738  0.00  0.00    +0.000 A 
ATOM     32  C   UNL     1      40.573  -2.615  12.973  0.00  0.00    +0.000 A 
ENDBRANCH  20  25
ENDBRANCH  19  20
ENDBRANCH   1  19
TORSDOF 5
ENDMDL
MODEL 10
REMARK VINA RESULT:      -7.4      2.101      2.544
REMARK  Name = 
REMARK  5 active torsions:
REMARK  status: ('A' for Active; 'I' for Inactive)
REMARK    1  A    between atoms: N_5  and  C_6
REMARK    2  A    between atoms: C_6  and  C_7
REMARK    3  A    between atoms: C_7  and  C_8
REMARK    4  A    between atoms: C_11  and  N_12
REMARK    5  A    between atoms: C_13  and  C_15
REMARK                            x       y       z     vdW  Elec       q    Type
REMARK                         _______ _______ _______ _____ _____    ______ ____
ROOT
ATOM      1  C   UNL     1      38.187   4.189  14.372  0.00  0.00    +0.000 C 
ATOM      2  C   UNL     1      39.142   3.107  14.834  0.00  0.00    +0.000 C 
ATOM      3  C   UNL     1      39.031   1.876  13.952  0.00  0.00    +0.000 C 
ATOM      4  C   UNL     1      37.677   1.216  14.284  0.00  0.00    +0.000 C 
ATOM      5  C   UNL     1      36.809   2.247  15.004  0.00  0.00    +0.000 C 
ATOM      6  C   UNL     1      36.852   3.491  14.106  0.00  0.00    +0.000 C 
ENDROOT
BRANCH   4   7
ATOM      7  N   UNL     1      37.887   0.020  15.054  0.00  0.00    +0.000 NA
ATOM      8  C   UNL     1      38.116  -1.267  14.525  0.00  0.00    +0.000 C 
ATOM      9  O   UNL     1      38.141  -1.372  13.257  0.00  0.00    +0.000 OA
BRANCH   8  10
ATOM     10  C   UNL     1      38.312  -2.420  15.406  0.00  0.00    +0.000 A 
ATOM     11  C   UNL     1      39.391  -2.682  16.233  0.00  0.00    +0.000 A 
ATOM     12  N   UNL     1      39.157  -3.838  16.859  0.00  0.00    +0.000 NA
ATOM     13  C   UNL     1      37.965  -4.368  16.487  0.00  0.00    +0.000 A 
ATOM     14  N   UNL     1      37.343  -5.494  16.855  0.00  0.00    +0.000 NA
ATOM     15  C   UNL     1      36.152  -5.796  16.331  0.00  0.00    +0.000 A 
ATOM     16  C   UNL     1      35.577  -4.944  15.416  0.00  0.00    +0.000 A 
ATOM     17  C   UNL     1      36.222  -3.796  15.048  0.00  0.00    +0.000 A 
ATOM     18  C   UNL     1      37.442  -3.460  15.568  0.00  0.00    +0.000 A 
ENDBRANCH   8  10
ENDBRANCH   4   7
BRANCH   1  19
ATOM     19  C   UNL     1      37.902   5.195  15.496  0.00  0.00    +0.000 C 
BRANCH  19  20
ATOM     20  C   UNL     1      38.423   6.551  14.982  0.00  0.00    +0.000 C 
BRANCH  20  25
ATOM     21  C   UNL     1      41.308   6.274  18.633  0.00  0.00    +0.000 C 
ATOM     22  C   UNL     1      39.891   6.419  18.127  0.00  0.00    +0.000 C 
ATOM     23  C   UNL     1      39.209   5.081  18.148  0.00  0.00    +0.000 C 
ATOM     24  C   UNL     1      39.966   7.032  16.748  0.00  0.00    +0.000 C 
ATOM     25  N   UNL     1      38.662   7.322  16.194  0.00  0.00    +0.000 NA
ATOM     26  C   UNL     1      37.592   7.265  17.130  0.00  0.00    +0.000 C 
ATOM     27  C   UNL     1      37.942   7.815  18.464  0.00  0.00    +0.000 A 
ATOM     28  C   UNL     1      37.140   8.705  19.149  0.00  0.00    +0.000 A 
ATOM     29  C   UNL     1      37.568   9.150  20.390  0.00  0.00    +0.000 A 
ATOM     30  C   UNL     1      38.775   8.695  20.899  0.00  0.00    +0.000 A 
ATOM     31  C   UNL     1      39.575   7.809  20.219  0.00  0.00    +0.000 A 
ATOM     32  C   UNL     1      39.152   7.375  19.004  0.00  0.00    +0.000 A 
ENDBRANCH  20  25
ENDBRANCH  19  20
ENDBRANCH   1  19
TORSDOF 5
ENDMDL
