MODEL 1
REMARK VINA RESULT:      -6.5      0.000      0.000
REMARK  Name = 
REMARK  1 active torsions:
REMARK  status: ('A' for Active; 'I' for Inactive)
REMARK    1  A    between atoms: N_10  and  C_11
REMARK                            x       y       z     vdW  Elec       q    Type
REMARK                         _______ _______ _______ _____ _____    ______ ____
ROOT
ATOM      1  C   UNL     1      27.839  22.286  30.286  0.00  0.00    +0.000 C 
ATOM      2  C   UNL     1      26.846  23.374  30.109  0.00  0.00    +0.000 A 
ATOM      3  N   UNL     1      26.237  23.996  31.133  0.00  0.00    +0.000 NA
ATOM      4  N   UNL     1      25.346  24.973  30.966  0.00  0.00    +0.000 NA
ATOM      5  C   UNL     1      24.998  25.400  29.741  0.00  0.00    +0.000 A 
ATOM      6  C   UNL     1      24.007  26.487  29.547  0.00  0.00    +0.000 C 
ATOM      7  C   UNL     1      25.604  24.783  28.665  0.00  0.00    +0.000 A 
ATOM      8  C   UNL     1      25.475  24.978  27.302  0.00  0.00    +0.000 A 
ATOM      9  C   UNL     1      24.558  26.000  26.711  0.00  0.00    +0.000 C 
ATOM     10  N   UNL     1      26.285  24.123  26.652  0.00  0.00    +0.000 N 
ATOM     11  C   UNL     1      26.939  23.375  27.559  0.00  0.00    +0.000 A 
ATOM     12  C   UNL     1      27.931  22.305  27.285  0.00  0.00    +0.000 C 
ATOM     13  C   UNL     1      26.531  23.769  28.827  0.00  0.00    +0.000 A 
ENDROOT
BRANCH  10  14
ATOM     14  C   UNL     1      26.417  24.035  25.239  0.00  0.00    +0.000 A 
ATOM     15  C   UNL     1      25.602  23.222  24.470  0.00  0.00    +0.000 A 
ATOM     16  C   UNL     1      25.723  23.131  23.104  0.00  0.00    +0.000 A 
ATOM     17  C   UNL     1      26.699  23.884  22.484  0.00  0.00    +0.000 A 
ATOM     18  C   UNL     1      27.531  24.710  23.237  0.00  0.00    +0.000 A 
ATOM     19  C   UNL     1      27.395  24.790  24.621  0.00  0.00    +0.000 A 
ATOM     20  N   UNL     1      28.234  25.628  25.413  0.00  0.00    +0.000 NA
ENDBRANCH  10  14
TORSDOF 1
ENDMDL
MODEL 2
REMARK VINA RESULT:      -6.5      0.124      2.729
REMARK  Name = 
REMARK  1 active torsions:
REMARK  status: ('A' for Active; 'I' for Inactive)
REMARK    1  A    between atoms: N_10  and  C_11
REMARK                            x       y       z     vdW  Elec       q    Type
REMARK                         _______ _______ _______ _____ _____    ______ ____
ROOT
ATOM      1  C   UNL     1      23.990  26.588  29.494  0.00  0.00    +0.000 C 
ATOM      2  C   UNL     1      24.941  25.468  29.708  0.00  0.00    +0.000 A 
ATOM      3  N   UNL     1      25.269  24.997  30.923  0.00  0.00    +0.000 NA
ATOM      4  N   UNL     1      26.124  23.992  31.107  0.00  0.00    +0.000 NA
ATOM      5  C   UNL     1      26.718  23.379  30.070  0.00  0.00    +0.000 A 
ATOM      6  C   UNL     1      27.670  22.259  30.267  0.00  0.00    +0.000 C 
ATOM      7  C   UNL     1      26.403  23.837  28.807  0.00  0.00    +0.000 A 
ATOM      8  C   UNL     1      26.827  23.438  27.552  0.00  0.00    +0.000 A 
ATOM      9  C   UNL     1      27.800  22.322  27.341  0.00  0.00    +0.000 C 
ATOM     10  N   UNL     1      26.230  24.198  26.617  0.00  0.00    +0.000 N 
ATOM     11  C   UNL     1      25.426  25.086  27.233  0.00  0.00    +0.000 A 
ATOM     12  C   UNL     1      24.578  26.119  26.588  0.00  0.00    +0.000 C 
ATOM     13  C   UNL     1      25.517  24.880  28.603  0.00  0.00    +0.000 A 
ENDROOT
BRANCH  10  14
ATOM     14  C   UNL     1      26.425  24.075  25.214  0.00  0.00    +0.000 A 
ATOM     15  C   UNL     1      25.607  23.292  24.420  0.00  0.00    +0.000 A 
ATOM     16  C   UNL     1      25.789  23.168  23.063  0.00  0.00    +0.000 A 
ATOM     17  C   UNL     1      26.834  23.856  22.481  0.00  0.00    +0.000 A 
ATOM     18  C   UNL     1      27.671  24.651  23.259  0.00  0.00    +0.000 A 
ATOM     19  C   UNL     1      27.472  24.765  24.634  0.00  0.00    +0.000 A 
ATOM     20  N   UNL     1      28.315  25.574  25.452  0.00  0.00    +0.000 NA
ENDBRANCH  10  14
TORSDOF 1
ENDMDL
MODEL 3
REMARK VINA RESULT:      -6.2      2.159      5.925
REMARK  Name = 
REMARK  1 active torsions:
REMARK  status: ('A' for Active; 'I' for Inactive)
REMARK    1  A    between atoms: N_10  and  C_11
REMARK                            x       y       z     vdW  Elec       q    Type
REMARK                         _______ _______ _______ _____ _____    ______ ____
ROOT
ATOM      1  C   UNL     1      31.802  24.130  24.636  0.00  0.00    +0.000 C 
ATOM      2  C   UNL     1      30.440  23.951  24.074  0.00  0.00    +0.000 A 
ATOM      3  N   UNL     1      30.167  24.009  22.759  0.00  0.00    +0.000 NA
ATOM      4  N   UNL     1      28.941  23.848  22.263  0.00  0.00    +0.000 NA
ATOM      5  C   UNL     1      27.888  23.613  23.062  0.00  0.00    +0.000 A 
ATOM      6  C   UNL     1      26.520  23.433  22.516  0.00  0.00    +0.000 C 
ATOM      7  C   UNL     1      28.131  23.548  24.419  0.00  0.00    +0.000 A 
ATOM      8  C   UNL     1      27.291  23.327  25.494  0.00  0.00    +0.000 A 
ATOM      9  C   UNL     1      25.821  23.098  25.341  0.00  0.00    +0.000 C 
ATOM     10  N   UNL     1      28.006  23.354  26.633  0.00  0.00    +0.000 N 
ATOM     11  C   UNL     1      29.295  23.589  26.325  0.00  0.00    +0.000 A 
ATOM     12  C   UNL     1      30.432  23.701  27.273  0.00  0.00    +0.000 C 
ATOM     13  C   UNL     1      29.400  23.713  24.946  0.00  0.00    +0.000 A 
ENDROOT
BRANCH  10  14
ATOM     14  C   UNL     1      27.475  23.166  27.938  0.00  0.00    +0.000 A 
ATOM     15  C   UNL     1      27.517  21.944  28.585  0.00  0.00    +0.000 A 
ATOM     16  C   UNL     1      27.006  21.754  29.846  0.00  0.00    +0.000 A 
ATOM     17  C   UNL     1      26.430  22.833  30.485  0.00  0.00    +0.000 A 
ATOM     18  C   UNL     1      26.376  24.074  29.855  0.00  0.00    +0.000 A 
ATOM     19  C   UNL     1      26.899  24.249  28.575  0.00  0.00    +0.000 A 
ATOM     20  N   UNL     1      26.856  25.509  27.910  0.00  0.00    +0.000 NA
ENDBRANCH  10  14
TORSDOF 1
ENDMDL
MODEL 4
REMARK VINA RESULT:      -6.0     32.139     33.410
REMARK  Name = 
REMARK  1 active torsions:
REMARK  status: ('A' for Active; 'I' for Inactive)
REMARK    1  A    between atoms: N_10  and  C_11
REMARK                            x       y       z     vdW  Elec       q    Type
REMARK                         _______ _______ _______ _____ _____    ______ ____
ROOT
ATOM      1  C   UNL     1      16.517  -9.882  26.348  0.00  0.00    +0.000 C 
ATOM      2  C   UNL     1      17.162  -8.548  26.438  0.00  0.00    +0.000 A 
ATOM      3  N   UNL     1      16.581  -7.481  27.014  0.00  0.00    +0.000 NA
ATOM      4  N   UNL     1      17.166  -6.287  27.090  0.00  0.00    +0.000 NA
ATOM      5  C   UNL     1      18.394  -6.075  26.587  0.00  0.00    +0.000 A 
ATOM      6  C   UNL     1      19.051  -4.748  26.669  0.00  0.00    +0.000 C 
ATOM      7  C   UNL     1      19.020  -7.149  25.988  0.00  0.00    +0.000 A 
ATOM      8  C   UNL     1      20.258  -7.271  25.384  0.00  0.00    +0.000 A 
ATOM      9  C   UNL     1      21.221  -6.133  25.271  0.00  0.00    +0.000 C 
ATOM     10  N   UNL     1      20.418  -8.533  24.946  0.00  0.00    +0.000 N 
ATOM     11  C   UNL     1      19.312  -9.237  25.250  0.00  0.00    +0.000 A 
ATOM     12  C   UNL     1      19.056 -10.669  24.953  0.00  0.00    +0.000 C 
ATOM     13  C   UNL     1      18.422  -8.394  25.903  0.00  0.00    +0.000 A 
ENDROOT
BRANCH  10  14
ATOM     14  C   UNL     1      21.569  -9.026  24.273  0.00  0.00    +0.000 A 
ATOM     15  C   UNL     1      21.709  -8.955  22.898  0.00  0.00    +0.000 A 
ATOM     16  C   UNL     1      22.818  -9.429  22.240  0.00  0.00    +0.000 A 
ATOM     17  C   UNL     1      23.826  -9.998  22.990  0.00  0.00    +0.000 A 
ATOM     18  C   UNL     1      23.709 -10.081  24.376  0.00  0.00    +0.000 A 
ATOM     19  C   UNL     1      22.577  -9.595  25.027  0.00  0.00    +0.000 A 
ATOM     20  N   UNL     1      22.435  -9.667  26.444  0.00  0.00    +0.000 NA
ENDBRANCH  10  14
TORSDOF 1
ENDMDL
MODEL 5
REMARK VINA RESULT:      -5.9     33.510     34.766
REMARK  Name = 
REMARK  1 active torsions:
REMARK  status: ('A' for Active; 'I' for Inactive)
REMARK    1  A    between atoms: N_10  and  C_11
REMARK                            x       y       z     vdW  Elec       q    Type
REMARK                         _______ _______ _______ _____ _____    ______ ____
ROOT
ATOM      1  C   UNL     1      13.734 -10.615  26.082  0.00  0.00    +0.000 C 
ATOM      2  C   UNL     1      14.700 -10.895  27.173  0.00  0.00    +0.000 A 
ATOM      3  N   UNL     1      14.562 -11.910  28.042  0.00  0.00    +0.000 NA
ATOM      4  N   UNL     1      15.434 -12.155  29.020  0.00  0.00    +0.000 NA
ATOM      5  C   UNL     1      16.522 -11.387  29.196  0.00  0.00    +0.000 A 
ATOM      6  C   UNL     1      17.497 -11.654  30.281  0.00  0.00    +0.000 C 
ATOM      7  C   UNL     1      16.696 -10.336  28.320  0.00  0.00    +0.000 A 
ATOM      8  C   UNL     1      17.685  -9.374  28.223  0.00  0.00    +0.000 A 
ATOM      9  C   UNL     1      18.853  -9.315  29.155  0.00  0.00    +0.000 C 
ATOM     10  N   UNL     1      17.411  -8.554  27.192  0.00  0.00    +0.000 N 
ATOM     11  C   UNL     1      16.265  -8.958  26.614  0.00  0.00    +0.000 A 
ATOM     12  C   UNL     1      15.590  -8.343  25.445  0.00  0.00    +0.000 C 
ATOM     13  C   UNL     1      15.798 -10.072  27.301  0.00  0.00    +0.000 A 
ENDROOT
BRANCH  10  14
ATOM     14  C   UNL     1      18.208  -7.447  26.792  0.00  0.00    +0.000 A 
ATOM     15  C   UNL     1      17.923  -6.151  27.184  0.00  0.00    +0.000 A 
ATOM     16  C   UNL     1      18.688  -5.075  26.802  0.00  0.00    +0.000 A 
ATOM     17  C   UNL     1      19.782  -5.308  25.995  0.00  0.00    +0.000 A 
ATOM     18  C   UNL     1      20.090  -6.604  25.588  0.00  0.00    +0.000 A 
ATOM     19  C   UNL     1      19.303  -7.684  25.985  0.00  0.00    +0.000 A 
ATOM     20  N   UNL     1      19.599  -9.019  25.581  0.00  0.00    +0.000 NA
ENDBRANCH  10  14
TORSDOF 1
ENDMDL
MODEL 6
REMARK VINA RESULT:      -5.9     33.559     34.755
REMARK  Name = 
REMARK  1 active torsions:
REMARK  status: ('A' for Active; 'I' for Inactive)
REMARK    1  A    between atoms: N_10  and  C_11
REMARK                            x       y       z     vdW  Elec       q    Type
REMARK                         _______ _______ _______ _____ _____    ______ ____
ROOT
ATOM      1  C   UNL     1      17.642 -11.736  30.331  0.00  0.00    +0.000 C 
ATOM      2  C   UNL     1      16.694 -11.524  29.209  0.00  0.00    +0.000 A 
ATOM      3  N   UNL     1      15.643 -12.326  28.965  0.00  0.00    +0.000 NA
ATOM      4  N   UNL     1      14.797 -12.129  27.955  0.00  0.00    +0.000 NA
ATOM      5  C   UNL     1      14.948 -11.100  27.105  0.00  0.00    +0.000 A 
ATOM      6  C   UNL     1      14.009 -10.875  25.979  0.00  0.00    +0.000 C 
ATOM      7  C   UNL     1      16.017 -10.256  27.326  0.00  0.00    +0.000 A 
ATOM      8  C   UNL     1      16.450  -9.127  26.655  0.00  0.00    +0.000 A 
ATOM      9  C   UNL     1      15.752  -8.580  25.451  0.00  0.00    +0.000 C 
ATOM     10  N   UNL     1      17.552  -8.646  27.258  0.00  0.00    +0.000 N 
ATOM     11  C   UNL     1      17.848  -9.435  28.307  0.00  0.00    +0.000 A 
ATOM     12  C   UNL     1      18.982  -9.276  29.251  0.00  0.00    +0.000 C 
ATOM     13  C   UNL     1      16.902 -10.449  28.371  0.00  0.00    +0.000 A 
ENDROOT
BRANCH  10  14
ATOM     14  C   UNL     1      18.275  -7.493  26.844  0.00  0.00    +0.000 A 
ATOM     15  C   UNL     1      17.920  -6.216  27.240  0.00  0.00    +0.000 A 
ATOM     16  C   UNL     1      18.613  -5.097  26.844  0.00  0.00    +0.000 A 
ATOM     17  C   UNL     1      19.705  -5.266  26.018  0.00  0.00    +0.000 A 
ATOM     18  C   UNL     1      20.083  -6.542  25.606  0.00  0.00    +0.000 A 
ATOM     19  C   UNL     1      19.368  -7.666  26.017  0.00  0.00    +0.000 A 
ATOM     20  N   UNL     1      19.736  -8.982  25.609  0.00  0.00    +0.000 NA
ENDBRANCH  10  14
TORSDOF 1
ENDMDL
MODEL 7
REMARK VINA RESULT:      -5.9      3.456      6.000
REMARK  Name = 
REMARK  1 active torsions:
REMARK  status: ('A' for Active; 'I' for Inactive)
REMARK    1  A    between atoms: N_10  and  C_11
REMARK                            x       y       z     vdW  Elec       q    Type
REMARK                         _______ _______ _______ _____ _____    ______ ____
ROOT
ATOM      1  C   UNL     1      28.645  23.060  23.657  0.00  0.00    +0.000 C 
ATOM      2  C   UNL     1      27.971  23.177  24.974  0.00  0.00    +0.000 A 
ATOM      3  N   UNL     1      26.645  23.350  25.116  0.00  0.00    +0.000 NA
ATOM      4  N   UNL     1      26.048  23.455  26.302  0.00  0.00    +0.000 NA
ATOM      5  C   UNL     1      26.748  23.395  27.447  0.00  0.00    +0.000 A 
ATOM      6  C   UNL     1      26.090  23.511  28.771  0.00  0.00    +0.000 C 
ATOM      7  C   UNL     1      28.112  23.218  27.339  0.00  0.00    +0.000 A 
ATOM      8  C   UNL     1      29.104  23.115  28.296  0.00  0.00    +0.000 A 
ATOM      9  C   UNL     1      28.826  23.186  29.764  0.00  0.00    +0.000 C 
ATOM     10  N   UNL     1      30.294  22.948  27.691  0.00  0.00    +0.000 N 
ATOM     11  C   UNL     1      30.101  22.939  26.359  0.00  0.00    +0.000 A 
ATOM     12  C   UNL     1      31.137  22.782  25.308  0.00  0.00    +0.000 C 
ATOM     13  C   UNL     1      28.744  23.107  26.113  0.00  0.00    +0.000 A 
ENDROOT
BRANCH  10  14
ATOM     14  C   UNL     1      31.540  22.806  28.359  0.00  0.00    +0.000 A 
ATOM     15  C   UNL     1      32.008  21.580  28.799  0.00  0.00    +0.000 A 
ATOM     16  C   UNL     1      33.212  21.434  29.446  0.00  0.00    +0.000 A 
ATOM     17  C   UNL     1      33.977  22.562  29.660  0.00  0.00    +0.000 A 
ATOM     18  C   UNL     1      33.528  23.807  29.227  0.00  0.00    +0.000 A 
ATOM     19  C   UNL     1      32.304  23.937  28.572  0.00  0.00    +0.000 A 
ATOM     20  N   UNL     1      31.824  25.201  28.118  0.00  0.00    +0.000 NA
ENDBRANCH  10  14
TORSDOF 1
ENDMDL
MODEL 8
REMARK VINA RESULT:      -5.8     11.079     13.634
REMARK  Name = 
REMARK  1 active torsions:
REMARK  status: ('A' for Active; 'I' for Inactive)
REMARK    1  A    between atoms: N_10  and  C_11
REMARK                            x       y       z     vdW  Elec       q    Type
REMARK                         _______ _______ _______ _____ _____    ______ ____
ROOT
ATOM      1  C   UNL     1      19.956  23.516  37.452  0.00  0.00    +0.000 C 
ATOM      2  C   UNL     1      19.500  22.672  36.320  0.00  0.00    +0.000 A 
ATOM      3  N   UNL     1      20.297  21.804  35.674  0.00  0.00    +0.000 NA
ATOM      4  N   UNL     1      19.879  21.050  34.657  0.00  0.00    +0.000 NA
ATOM      5  C   UNL     1      18.613  21.115  34.212  0.00  0.00    +0.000 A 
ATOM      6  C   UNL     1      18.141  20.278  33.082  0.00  0.00    +0.000 C 
ATOM      7  C   UNL     1      17.767  21.995  34.853  0.00  0.00    +0.000 A 
ATOM      8  C   UNL     1      16.433  22.301  34.650  0.00  0.00    +0.000 A 
ATOM      9  C   UNL     1      15.605  21.653  33.587  0.00  0.00    +0.000 C 
ATOM     10  N   UNL     1      16.049  23.234  35.540  0.00  0.00    +0.000 N 
ATOM     11  C   UNL     1      17.102  23.545  36.319  0.00  0.00    +0.000 A 
ATOM     12  C   UNL     1      17.130  24.528  37.430  0.00  0.00    +0.000 C 
ATOM     13  C   UNL     1      18.189  22.783  35.909  0.00  0.00    +0.000 A 
ENDROOT
BRANCH  10  14
ATOM     14  C   UNL     1      14.744  23.791  35.630  0.00  0.00    +0.000 A 
ATOM     15  C   UNL     1      13.831  23.384  36.586  0.00  0.00    +0.000 A 
ATOM     16  C   UNL     1      12.568  23.917  36.680  0.00  0.00    +0.000 A 
ATOM     17  C   UNL     1      12.207  24.898  35.780  0.00  0.00    +0.000 A 
ATOM     18  C   UNL     1      13.109  25.326  34.809  0.00  0.00    +0.000 A 
ATOM     19  C   UNL     1      14.386  24.774  34.727  0.00  0.00    +0.000 A 
ATOM     20  N   UNL     1      15.327  25.195  33.743  0.00  0.00    +0.000 NA
ENDBRANCH  10  14
TORSDOF 1
ENDMDL
MODEL 9
REMARK VINA RESULT:      -5.7     11.112     13.521
REMARK  Name = 
REMARK  1 active torsions:
REMARK  status: ('A' for Active; 'I' for Inactive)
REMARK    1  A    between atoms: N_10  and  C_11
REMARK                            x       y       z     vdW  Elec       q    Type
REMARK                         _______ _______ _______ _____ _____    ______ ____
ROOT
ATOM      1  C   UNL     1      18.243  20.234  33.243  0.00  0.00    +0.000 C 
ATOM      2  C   UNL     1      18.688  21.142  34.329  0.00  0.00    +0.000 A 
ATOM      3  N   UNL     1      19.935  21.142  34.831  0.00  0.00    +0.000 NA
ATOM      4  N   UNL     1      20.326  21.961  35.807  0.00  0.00    +0.000 NA
ATOM      5  C   UNL     1      19.482  22.850  36.356  0.00  0.00    +0.000 A 
ATOM      6  C   UNL     1      19.911  23.764  37.442  0.00  0.00    +0.000 C 
ATOM      7  C   UNL     1      18.193  22.877  35.865  0.00  0.00    +0.000 A 
ATOM      8  C   UNL     1      17.098  23.652  36.199  0.00  0.00    +0.000 A 
ATOM      9  C   UNL     1      17.141  24.701  37.264  0.00  0.00    +0.000 C 
ATOM     10  N   UNL     1      16.052  23.304  35.429  0.00  0.00    +0.000 N 
ATOM     11  C   UNL     1      16.439  22.318  34.598  0.00  0.00    +0.000 A 
ATOM     12  C   UNL     1      15.607  21.631  33.579  0.00  0.00    +0.000 C 
ATOM     13  C   UNL     1      17.775  22.033  34.851  0.00  0.00    +0.000 A 
ENDROOT
BRANCH  10  14
ATOM     14  C   UNL     1      14.757  23.888  35.492  0.00  0.00    +0.000 A 
ATOM     15  C   UNL     1      13.817  23.500  36.431  0.00  0.00    +0.000 A 
ATOM     16  C   UNL     1      12.564  24.059  36.499  0.00  0.00    +0.000 A 
ATOM     17  C   UNL     1      12.240  25.046  35.591  0.00  0.00    +0.000 A 
ATOM     18  C   UNL     1      13.169  25.453  34.637  0.00  0.00    +0.000 A 
ATOM     19  C   UNL     1      14.436  24.875  34.582  0.00  0.00    +0.000 A 
ATOM     20  N   UNL     1      15.405  25.276  33.615  0.00  0.00    +0.000 NA
ENDBRANCH  10  14
TORSDOF 1
ENDMDL
MODEL 10
REMARK VINA RESULT:      -5.6     33.253     34.846
REMARK  Name = 
REMARK  1 active torsions:
REMARK  status: ('A' for Active; 'I' for Inactive)
REMARK    1  A    between atoms: N_10  and  C_11
REMARK                            x       y       z     vdW  Elec       q    Type
REMARK                         _______ _______ _______ _____ _____    ______ ____
ROOT
ATOM      1  C   UNL     1      19.928  -5.837  25.732  0.00  0.00    +0.000 C 
ATOM      2  C   UNL     1      20.684  -7.107  25.861  0.00  0.00    +0.000 A 
ATOM      3  N   UNL     1      21.886  -7.315  25.295  0.00  0.00    +0.000 NA
ATOM      4  N   UNL     1      22.558  -8.459  25.415  0.00  0.00    +0.000 NA
ATOM      5  C   UNL     1      22.065  -9.490  26.120  0.00  0.00    +0.000 A 
ATOM      6  C   UNL     1      22.808 -10.767  26.257  0.00  0.00    +0.000 C 
ATOM      7  C   UNL     1      20.833  -9.312  26.714  0.00  0.00    +0.000 A 
ATOM      8  C   UNL     1      20.058 -10.152  27.492  0.00  0.00    +0.000 A 
ATOM      9  C   UNL     1      20.478 -11.541  27.854  0.00  0.00    +0.000 C 
ATOM     10  N   UNL     1      18.924  -9.518  27.840  0.00  0.00    +0.000 N 
ATOM     11  C   UNL     1      18.941  -8.282  27.307  0.00  0.00    +0.000 A 
ATOM     12  C   UNL     1      17.892  -7.240  27.434  0.00  0.00    +0.000 C 
ATOM     13  C   UNL     1      20.125  -8.129  26.598  0.00  0.00    +0.000 A 
ENDROOT
BRANCH  10  14
ATOM     14  C   UNL     1      17.887 -10.073  28.639  0.00  0.00    +0.000 A 
ATOM     15  C   UNL     1      17.860  -9.937  30.016  0.00  0.00    +0.000 A 
ATOM     16  C   UNL     1      16.862 -10.470  30.795  0.00  0.00    +0.000 A 
ATOM     17  C   UNL     1      15.850 -11.168  30.168  0.00  0.00    +0.000 A 
ATOM     18  C   UNL     1      15.854 -11.318  28.784  0.00  0.00    +0.000 A 
ATOM     19  C   UNL     1      16.874 -10.771  28.009  0.00  0.00    +0.000 A 
ATOM     20  N   UNL     1      16.900 -10.910  26.590  0.00  0.00    +0.000 NA
ENDBRANCH  10  14
TORSDOF 1
ENDMDL
