MODEL 1
REMARK VINA RESULT:      -6.2      0.000      0.000
REMARK  Name = 
REMARK  3 active torsions:
REMARK  status: ('A' for Active; 'I' for Inactive)
REMARK    1  A    between atoms: C_5  and  C_6
REMARK    2  A    between atoms: N_7  and  C_8
REMARK    3  A    between atoms: C_11  and  N_12
REMARK                            x       y       z     vdW  Elec       q    Type
REMARK                         _______ _______ _______ _____ _____    ______ ____
ROOT
ATOM      1  C   UNL     1      19.246  10.513  38.865  0.00  0.00    +0.000 A 
ATOM      2  C   UNL     1      19.696  11.780  38.553  0.00  0.00    +0.000 A 
ATOM      3  C   UNL     1      20.947  11.970  38.006  0.00  0.00    +0.000 A 
ATOM      4  C   UNL     1      21.819  10.922  37.740  0.00  0.00    +0.000 A 
ATOM      5  C   UNL     1      21.362   9.661  38.056  0.00  0.00    +0.000 A 
ATOM      6  C   UNL     1      20.111   9.468  38.602  0.00  0.00    +0.000 A 
ENDROOT
BRANCH   4   7
ATOM      7  N   UNL     1      23.105  11.137  37.176  0.00  0.00    +0.000 N 
ATOM      8  C   UNL     1      23.585  10.485  35.980  0.00  0.00    +0.000 C 
ATOM      9  C   UNL     1      25.095  10.450  35.971  0.00  0.00    +0.000 C 
ATOM     10  C   UNL     1      25.555  10.190  37.395  0.00  0.00    +0.000 C 
ATOM     11  C   UNL     1      25.304  11.432  38.220  0.00  0.00    +0.000 C 
ATOM     12  C   UNL     1      23.986  12.067  37.845  0.00  0.00    +0.000 C 
ENDBRANCH   4   7
BRANCH   1  14
ATOM     13  C   UNL     1      16.953  10.155  38.678  0.00  0.00    +0.000 C 
ATOM     14  N   UNL     1      17.966  10.269  39.426  0.00  0.00    +0.000 NA
BRANCH  13  19
ATOM     15  O   UNL     1      17.592  10.264  33.057  0.00  0.00    +0.000 OA
ATOM     16  C   UNL     1      17.430  10.249  34.442  0.00  0.00    +0.000 A 
ATOM     17  C   UNL     1      17.702   9.122  35.200  0.00  0.00    +0.000 A 
ATOM     18  C   UNL     1      17.537   9.126  36.570  0.00  0.00    +0.000 A 
ATOM     19  C   UNL     1      17.089  10.271  37.240  0.00  0.00    +0.000 A 
ATOM     20  C   UNL     1      16.826  11.371  36.487  0.00  0.00    +0.000 A 
ATOM     21  C   UNL     1      16.990  11.366  35.129  0.00  0.00    +0.000 A 
ENDBRANCH  13  19
ENDBRANCH   1  14
TORSDOF 3
ENDMDL
MODEL 2
REMARK VINA RESULT:      -6.0     18.123     20.009
REMARK  Name = 
REMARK  3 active torsions:
REMARK  status: ('A' for Active; 'I' for Inactive)
REMARK    1  A    between atoms: C_5  and  C_6
REMARK    2  A    between atoms: N_7  and  C_8
REMARK    3  A    between atoms: C_11  and  N_12
REMARK                            x       y       z     vdW  Elec       q    Type
REMARK                         _______ _______ _______ _____ _____    ______ ____
ROOT
ATOM      1  C   UNL     1      30.060  23.867  23.705  0.00  0.00    +0.000 A 
ATOM      2  C   UNL     1      30.593  24.998  24.289  0.00  0.00    +0.000 A 
ATOM      3  C   UNL     1      31.168  24.942  25.541  0.00  0.00    +0.000 A 
ATOM      4  C   UNL     1      31.247  23.769  26.280  0.00  0.00    +0.000 A 
ATOM      5  C   UNL     1      30.712  22.645  25.689  0.00  0.00    +0.000 A 
ATOM      6  C   UNL     1      30.137  22.699  24.438  0.00  0.00    +0.000 A 
ENDROOT
BRANCH   4   7
ATOM      7  N   UNL     1      31.844  23.730  27.569  0.00  0.00    +0.000 N 
ATOM      8  C   UNL     1      33.248  23.958  27.820  0.00  0.00    +0.000 C 
ATOM      9  C   UNL     1      33.665  23.296  29.112  0.00  0.00    +0.000 C 
ATOM     10  C   UNL     1      32.928  21.971  29.205  0.00  0.00    +0.000 C 
ATOM     11  C   UNL     1      31.468  22.247  29.486  0.00  0.00    +0.000 C 
ATOM     12  C   UNL     1      30.989  23.444  28.698  0.00  0.00    +0.000 C 
ENDBRANCH   4   7
BRANCH   1  14
ATOM     13  C   UNL     1      28.217  24.061  22.297  0.00  0.00    +0.000 C 
ATOM     14  N   UNL     1      29.461  23.876  22.419  0.00  0.00    +0.000 NA
BRANCH  13  19
ATOM     15  O   UNL     1      24.913  24.506  26.867  0.00  0.00    +0.000 OA
ATOM     16  C   UNL     1      25.730  24.409  25.742  0.00  0.00    +0.000 A 
ATOM     17  C   UNL     1      25.948  23.203  25.096  0.00  0.00    +0.000 A 
ATOM     18  C   UNL     1      26.759  23.126  23.983  0.00  0.00    +0.000 A 
ATOM     19  C   UNL     1      27.389  24.265  23.468  0.00  0.00    +0.000 A 
ATOM     20  C   UNL     1      27.168  25.443  24.108  0.00  0.00    +0.000 A 
ATOM     21  C   UNL     1      26.363  25.518  25.212  0.00  0.00    +0.000 A 
ENDBRANCH  13  19
ENDBRANCH   1  14
TORSDOF 3
ENDMDL
MODEL 3
REMARK VINA RESULT:      -6.0     19.418     21.564
REMARK  Name = 
REMARK  3 active torsions:
REMARK  status: ('A' for Active; 'I' for Inactive)
REMARK    1  A    between atoms: C_5  and  C_6
REMARK    2  A    between atoms: N_7  and  C_8
REMARK    3  A    between atoms: C_11  and  N_12
REMARK                            x       y       z     vdW  Elec       q    Type
REMARK                         _______ _______ _______ _____ _____    ______ ____
ROOT
ATOM      1  C   UNL     1      28.952  23.978  22.436  0.00  0.00    +0.000 A 
ATOM      2  C   UNL     1      27.601  23.781  22.642  0.00  0.00    +0.000 A 
ATOM      3  C   UNL     1      27.115  23.479  23.897  0.00  0.00    +0.000 A 
ATOM      4  C   UNL     1      27.935  23.356  25.011  0.00  0.00    +0.000 A 
ATOM      5  C   UNL     1      29.282  23.553  24.795  0.00  0.00    +0.000 A 
ATOM      6  C   UNL     1      29.770  23.855  23.542  0.00  0.00    +0.000 A 
ENDROOT
BRANCH   4   7
ATOM      7  N   UNL     1      27.417  23.045  26.296  0.00  0.00    +0.000 N 
ATOM      8  C   UNL     1      26.181  23.576  26.823  0.00  0.00    +0.000 C 
ATOM      9  C   UNL     1      26.199  23.551  28.333  0.00  0.00    +0.000 C 
ATOM     10  C   UNL     1      27.606  23.909  28.779  0.00  0.00    +0.000 C 
ATOM     11  C   UNL     1      28.525  22.751  28.464  0.00  0.00    +0.000 C 
ATOM     12  C   UNL     1      28.176  22.139  27.128  0.00  0.00    +0.000 C 
ENDBRANCH   4   7
BRANCH   1  14
ATOM     13  C   UNL     1      29.449  25.476  20.726  0.00  0.00    +0.000 C 
ATOM     14  N   UNL     1      29.496  24.292  21.164  0.00  0.00    +0.000 NA
BRANCH  13  19
ATOM     15  O   UNL     1      26.781  29.550  23.606  0.00  0.00    +0.000 OA
ATOM     16  C   UNL     1      27.449  28.547  22.905  0.00  0.00    +0.000 A 
ATOM     17  C   UNL     1      26.877  27.909  21.817  0.00  0.00    +0.000 A 
ATOM     18  C   UNL     1      27.552  26.919  21.133  0.00  0.00    +0.000 A 
ATOM     19  C   UNL     1      28.840  26.526  21.517  0.00  0.00    +0.000 A 
ATOM     20  C   UNL     1      29.392  27.159  22.586  0.00  0.00    +0.000 A 
ATOM     21  C   UNL     1      28.721  28.140  23.262  0.00  0.00    +0.000 A 
ENDBRANCH  13  19
ENDBRANCH   1  14
TORSDOF 3
ENDMDL
MODEL 4
REMARK VINA RESULT:      -5.9     18.850     20.781
REMARK  Name = 
REMARK  3 active torsions:
REMARK  status: ('A' for Active; 'I' for Inactive)
REMARK    1  A    between atoms: C_5  and  C_6
REMARK    2  A    between atoms: N_7  and  C_8
REMARK    3  A    between atoms: C_11  and  N_12
REMARK                            x       y       z     vdW  Elec       q    Type
REMARK                         _______ _______ _______ _____ _____    ______ ____
ROOT
ATOM      1  C   UNL     1      28.364  23.903  23.101  0.00  0.00    +0.000 A 
ATOM      2  C   UNL     1      28.611  25.253  23.242  0.00  0.00    +0.000 A 
ATOM      3  C   UNL     1      29.722  25.701  23.925  0.00  0.00    +0.000 A 
ATOM      4  C   UNL     1      30.645  24.840  24.503  0.00  0.00    +0.000 A 
ATOM      5  C   UNL     1      30.391  23.494  24.359  0.00  0.00    +0.000 A 
ATOM      6  C   UNL     1      29.280  23.044  23.676  0.00  0.00    +0.000 A 
ENDROOT
BRANCH   4   7
ATOM      7  N   UNL     1      31.785  25.319  25.203  0.00  0.00    +0.000 N 
ATOM      8  C   UNL     1      32.084  26.718  25.407  0.00  0.00    +0.000 C 
ATOM      9  C   UNL     1      33.564  26.912  25.634  0.00  0.00    +0.000 C 
ATOM     10  C   UNL     1      34.298  25.951  24.715  0.00  0.00    +0.000 C 
ATOM     11  C   UNL     1      34.112  24.544  25.236  0.00  0.00    +0.000 C 
ATOM     12  C   UNL     1      32.703  24.342  25.743  0.00  0.00    +0.000 C 
ENDBRANCH   4   7
BRANCH   1  14
ATOM     13  C   UNL     1      26.125  23.274  22.996  0.00  0.00    +0.000 C 
ATOM     14  N   UNL     1      27.236  23.397  22.406  0.00  0.00    +0.000 NA
BRANCH  13  19
ATOM     15  O   UNL     1      25.439  25.037  28.328  0.00  0.00    +0.000 OA
ATOM     16  C   UNL     1      25.613  24.591  27.018  0.00  0.00    +0.000 A 
ATOM     17  C   UNL     1      25.171  25.324  25.930  0.00  0.00    +0.000 A 
ATOM     18  C   UNL     1      25.353  24.869  24.640  0.00  0.00    +0.000 A 
ATOM     19  C   UNL     1      25.992  23.649  24.389  0.00  0.00    +0.000 A 
ATOM     20  C   UNL     1      26.423  22.938  25.464  0.00  0.00    +0.000 A 
ATOM     21  C   UNL     1      26.241  23.391  26.742  0.00  0.00    +0.000 A 
ENDBRANCH  13  19
ENDBRANCH   1  14
TORSDOF 3
ENDMDL
MODEL 5
REMARK VINA RESULT:      -5.6      2.906      4.222
REMARK  Name = 
REMARK  3 active torsions:
REMARK  status: ('A' for Active; 'I' for Inactive)
REMARK    1  A    between atoms: C_5  and  C_6
REMARK    2  A    between atoms: N_7  and  C_8
REMARK    3  A    between atoms: C_11  and  N_12
REMARK                            x       y       z     vdW  Elec       q    Type
REMARK                         _______ _______ _______ _____ _____    ______ ____
ROOT
ATOM      1  C   UNL     1      18.800  10.519  38.102  0.00  0.00    +0.000 A 
ATOM      2  C   UNL     1      19.399   9.709  37.159  0.00  0.00    +0.000 A 
ATOM      3  C   UNL     1      20.730   9.867  36.835  0.00  0.00    +0.000 A 
ATOM      4  C   UNL     1      21.537  10.831  37.425  0.00  0.00    +0.000 A 
ATOM      5  C   UNL     1      20.930  11.637  38.364  0.00  0.00    +0.000 A 
ATOM      6  C   UNL     1      19.600  11.479  38.689  0.00  0.00    +0.000 A 
ENDROOT
BRANCH   4   7
ATOM      7  N   UNL     1      22.907  10.980  37.079  0.00  0.00    +0.000 N 
ATOM      8  C   UNL     1      23.523  10.370  35.924  0.00  0.00    +0.000 C 
ATOM      9  C   UNL     1      25.010  10.217  36.141  0.00  0.00    +0.000 C 
ATOM     10  C   UNL     1      25.223   9.831  37.594  0.00  0.00    +0.000 C 
ATOM     11  C   UNL     1      24.932  11.034  38.462  0.00  0.00    +0.000 C 
ATOM     12  C   UNL     1      23.735  11.794  37.941  0.00  0.00    +0.000 C 
ENDBRANCH   4   7
BRANCH   1  14
ATOM     13  C   UNL     1      17.101   9.641  39.429  0.00  0.00    +0.000 C 
ATOM     14  N   UNL     1      17.435  10.391  38.468  0.00  0.00    +0.000 NA
BRANCH  13  19
ATOM     15  O   UNL     1      21.027   7.031  42.556  0.00  0.00    +0.000 OA
ATOM     16  C   UNL     1      20.059   7.664  41.777  0.00  0.00    +0.000 A 
ATOM     17  C   UNL     1      19.513   8.885  42.136  0.00  0.00    +0.000 A 
ATOM     18  C   UNL     1      18.557   9.498  41.353  0.00  0.00    +0.000 A 
ATOM     19  C   UNL     1      18.107   8.905  40.167  0.00  0.00    +0.000 A 
ATOM     20  C   UNL     1      18.649   7.707  39.824  0.00  0.00    +0.000 A 
ATOM     21  C   UNL     1      19.597   7.101  40.602  0.00  0.00    +0.000 A 
ENDBRANCH  13  19
ENDBRANCH   1  14
TORSDOF 3
ENDMDL
MODEL 6
REMARK VINA RESULT:      -5.6     21.141     22.858
REMARK  Name = 
REMARK  3 active torsions:
REMARK  status: ('A' for Active; 'I' for Inactive)
REMARK    1  A    between atoms: C_5  and  C_6
REMARK    2  A    between atoms: N_7  and  C_8
REMARK    3  A    between atoms: C_11  and  N_12
REMARK                            x       y       z     vdW  Elec       q    Type
REMARK                         _______ _______ _______ _____ _____    ______ ____
ROOT
ATOM      1  C   UNL     1      23.526   2.033  17.398  0.00  0.00    +0.000 A 
ATOM      2  C   UNL     1      24.367   2.593  18.338  0.00  0.00    +0.000 A 
ATOM      3  C   UNL     1      25.079   3.739  18.055  0.00  0.00    +0.000 A 
ATOM      4  C   UNL     1      24.998   4.391  16.831  0.00  0.00    +0.000 A 
ATOM      5  C   UNL     1      24.157   3.824  15.898  0.00  0.00    +0.000 A 
ATOM      6  C   UNL     1      23.444   2.679  16.180  0.00  0.00    +0.000 A 
ENDROOT
BRANCH   4   7
ATOM      7  N   UNL     1      25.739   5.571  16.556  0.00  0.00    +0.000 N 
ATOM      8  C   UNL     1      26.498   5.790  15.346  0.00  0.00    +0.000 C 
ATOM      9  C   UNL     1      27.593   6.802  15.589  0.00  0.00    +0.000 C 
ATOM     10  C   UNL     1      28.151   6.549  16.978  0.00  0.00    +0.000 C 
ATOM     11  C   UNL     1      27.127   6.988  18.000  0.00  0.00    +0.000 C 
ATOM     12  C   UNL     1      25.732   6.619  17.553  0.00  0.00    +0.000 C 
ENDBRANCH   4   7
BRANCH   1  14
ATOM     13  C   UNL     1      23.255  -0.279  17.374  0.00  0.00    +0.000 C 
ATOM     14  N   UNL     1      22.772   0.857  17.646  0.00  0.00    +0.000 NA
BRANCH  13  19
ATOM     15  O   UNL     1      28.567  -0.783  15.493  0.00  0.00    +0.000 OA
ATOM     16  C   UNL     1      27.253  -0.657  15.944  0.00  0.00    +0.000 A 
ATOM     17  C   UNL     1      26.924  -0.782  17.284  0.00  0.00    +0.000 A 
ATOM     18  C   UNL     1      25.619  -0.654  17.713  0.00  0.00    +0.000 A 
ATOM     19  C   UNL     1      24.583  -0.392  16.807  0.00  0.00    +0.000 A 
ATOM     20  C   UNL     1      24.918  -0.271  15.496  0.00  0.00    +0.000 A 
ATOM     21  C   UNL     1      26.212  -0.399  15.072  0.00  0.00    +0.000 A 
ENDBRANCH  13  19
ENDBRANCH   1  14
TORSDOF 3
ENDMDL
MODEL 7
REMARK VINA RESULT:      -5.6     18.334     20.549
REMARK  Name = 
REMARK  3 active torsions:
REMARK  status: ('A' for Active; 'I' for Inactive)
REMARK    1  A    between atoms: C_5  and  C_6
REMARK    2  A    between atoms: N_7  and  C_8
REMARK    3  A    between atoms: C_11  and  N_12
REMARK                            x       y       z     vdW  Elec       q    Type
REMARK                         _______ _______ _______ _____ _____    ______ ____
ROOT
ATOM      1  C   UNL     1      28.605  22.990  23.862  0.00  0.00    +0.000 A 
ATOM      2  C   UNL     1      27.737  23.059  24.933  0.00  0.00    +0.000 A 
ATOM      3  C   UNL     1      28.196  22.911  26.225  0.00  0.00    +0.000 A 
ATOM      4  C   UNL     1      29.533  22.687  26.526  0.00  0.00    +0.000 A 
ATOM      5  C   UNL     1      30.392  22.618  25.450  0.00  0.00    +0.000 A 
ATOM      6  C   UNL     1      29.935  22.767  24.158  0.00  0.00    +0.000 A 
ENDROOT
BRANCH   4   7
ATOM      7  N   UNL     1      29.989  22.537  27.863  0.00  0.00    +0.000 N 
ATOM      8  C   UNL     1      29.207  22.875  29.030  0.00  0.00    +0.000 C 
ATOM      9  C   UNL     1      30.112  23.163  30.204  0.00  0.00    +0.000 C 
ATOM     10  C   UNL     1      31.324  23.910  29.675  0.00  0.00    +0.000 C 
ATOM     11  C   UNL     1      32.181  22.946  28.885  0.00  0.00    +0.000 C 
ATOM     12  C   UNL     1      31.321  22.013  28.066  0.00  0.00    +0.000 C 
ENDBRANCH   4   7
BRANCH   1  14
ATOM     13  C   UNL     1      28.038  24.291  22.017  0.00  0.00    +0.000 C 
ATOM     14  N   UNL     1      28.177  23.139  22.518  0.00  0.00    +0.000 NA
BRANCH  13  19
ATOM     15  O   UNL     1      28.766  28.927  25.176  0.00  0.00    +0.000 OA
ATOM     16  C   UNL     1      28.600  27.783  24.396  0.00  0.00    +0.000 A 
ATOM     17  C   UNL     1      27.351  27.232  24.160  0.00  0.00    +0.000 A 
ATOM     18  C   UNL     1      27.205  26.101  23.385  0.00  0.00    +0.000 A 
ATOM     19  C   UNL     1      28.315  25.471  22.810  0.00  0.00    +0.000 A 
ATOM     20  C   UNL     1      29.535  26.020  23.047  0.00  0.00    +0.000 A 
ATOM     21  C   UNL     1      29.679  27.143  23.816  0.00  0.00    +0.000 A 
ENDBRANCH  13  19
ENDBRANCH   1  14
TORSDOF 3
ENDMDL
MODEL 8
REMARK VINA RESULT:      -5.5     18.081     20.463
REMARK  Name = 
REMARK  3 active torsions:
REMARK  status: ('A' for Active; 'I' for Inactive)
REMARK    1  A    between atoms: C_5  and  C_6
REMARK    2  A    between atoms: N_7  and  C_8
REMARK    3  A    between atoms: C_11  and  N_12
REMARK                            x       y       z     vdW  Elec       q    Type
REMARK                         _______ _______ _______ _____ _____    ______ ____
ROOT
ATOM      1  C   UNL     1      29.338  24.118  24.151  0.00  0.00    +0.000 A 
ATOM      2  C   UNL     1      28.285  23.231  24.057  0.00  0.00    +0.000 A 
ATOM      3  C   UNL     1      27.051  23.541  24.591  0.00  0.00    +0.000 A 
ATOM      4  C   UNL     1      26.794  24.740  25.243  0.00  0.00    +0.000 A 
ATOM      5  C   UNL     1      27.852  25.619  25.332  0.00  0.00    +0.000 A 
ATOM      6  C   UNL     1      29.085  25.311  24.799  0.00  0.00    +0.000 A 
ENDROOT
BRANCH   4   7
ATOM      7  N   UNL     1      25.517  25.042  25.785  0.00  0.00    +0.000 N 
ATOM      8  C   UNL     1      24.529  25.865  25.126  0.00  0.00    +0.000 C 
ATOM      9  C   UNL     1      23.584  26.466  26.140  0.00  0.00    +0.000 C 
ATOM     10  C   UNL     1      24.401  26.833  27.366  0.00  0.00    +0.000 C 
ATOM     11  C   UNL     1      24.810  25.562  28.076  0.00  0.00    +0.000 C 
ATOM     12  C   UNL     1      25.187  24.491  27.080  0.00  0.00    +0.000 C 
ENDBRANCH   4   7
BRANCH   1  14
ATOM     13  C   UNL     1      31.549  23.423  24.365  0.00  0.00    +0.000 C 
ATOM     14  N   UNL     1      30.622  23.842  23.615  0.00  0.00    +0.000 NA
BRANCH  13  19
ATOM     15  O   UNL     1      30.812  22.913  29.952  0.00  0.00    +0.000 OA
ATOM     16  C   UNL     1      30.986  23.029  28.573  0.00  0.00    +0.000 A 
ATOM     17  C   UNL     1      31.739  24.046  28.012  0.00  0.00    +0.000 A 
ATOM     18  C   UNL     1      31.902  24.145  26.645  0.00  0.00    +0.000 A 
ATOM     19  C   UNL     1      31.310  23.218  25.779  0.00  0.00    +0.000 A 
ATOM     20  C   UNL     1      30.573  22.223  26.340  0.00  0.00    +0.000 A 
ATOM     21  C   UNL     1      30.413  22.126  27.695  0.00  0.00    +0.000 A 
ENDBRANCH  13  19
ENDBRANCH   1  14
TORSDOF 3
ENDMDL
MODEL 9
REMARK VINA RESULT:      -5.4      2.704      6.898
REMARK  Name = 
REMARK  3 active torsions:
REMARK  status: ('A' for Active; 'I' for Inactive)
REMARK    1  A    between atoms: C_5  and  C_6
REMARK    2  A    between atoms: N_7  and  C_8
REMARK    3  A    between atoms: C_11  and  N_12
REMARK                            x       y       z     vdW  Elec       q    Type
REMARK                         _______ _______ _______ _____ _____    ______ ____
ROOT
ATOM      1  C   UNL     1      23.371   9.231  37.648  0.00  0.00    +0.000 A 
ATOM      2  C   UNL     1      22.669   9.558  36.505  0.00  0.00    +0.000 A 
ATOM      3  C   UNL     1      21.334   9.895  36.569  0.00  0.00    +0.000 A 
ATOM      4  C   UNL     1      20.623   9.926  37.762  0.00  0.00    +0.000 A 
ATOM      5  C   UNL     1      21.332   9.597  38.897  0.00  0.00    +0.000 A 
ATOM      6  C   UNL     1      22.667   9.260  38.835  0.00  0.00    +0.000 A 
ENDROOT
BRANCH   4   7
ATOM      7  N   UNL     1      19.247  10.276  37.809  0.00  0.00    +0.000 N 
ATOM      8  C   UNL     1      18.172   9.397  37.411  0.00  0.00    +0.000 C 
ATOM      9  C   UNL     1      16.953  10.200  37.022  0.00  0.00    +0.000 C 
ATOM     10  C   UNL     1      17.436  11.436  36.284  0.00  0.00    +0.000 C 
ATOM     11  C   UNL     1      18.087  12.371  37.278  0.00  0.00    +0.000 C 
ATOM     12  C   UNL     1      18.904  11.597  38.286  0.00  0.00    +0.000 C 
ENDBRANCH   4   7
BRANCH   1  14
ATOM     13  C   UNL     1      25.629   9.749  37.879  0.00  0.00    +0.000 C 
ATOM     14  N   UNL     1      24.746   8.880  37.630  0.00  0.00    +0.000 NA
BRANCH  13  19
ATOM     15  O   UNL     1      24.181  14.994  39.430  0.00  0.00    +0.000 OA
ATOM     16  C   UNL     1      24.537  13.705  39.035  0.00  0.00    +0.000 A 
ATOM     17  C   UNL     1      24.873  12.724  39.953  0.00  0.00    +0.000 A 
ATOM     18  C   UNL     1      25.222  11.453  39.545  0.00  0.00    +0.000 A 
ATOM     19  C   UNL     1      25.247  11.112  38.187  0.00  0.00    +0.000 A 
ATOM     20  C   UNL     1      24.914  12.082  37.295  0.00  0.00    +0.000 A 
ATOM     21  C   UNL     1      24.569  13.342  37.702  0.00  0.00    +0.000 A 
ENDBRANCH  13  19
ENDBRANCH   1  14
TORSDOF 3
ENDMDL
MODEL 10
REMARK VINA RESULT:      -5.4     18.555     20.694
REMARK  Name = 
REMARK  3 active torsions:
REMARK  status: ('A' for Active; 'I' for Inactive)
REMARK    1  A    between atoms: C_5  and  C_6
REMARK    2  A    between atoms: N_7  and  C_8
REMARK    3  A    between atoms: C_11  and  N_12
REMARK                            x       y       z     vdW  Elec       q    Type
REMARK                         _______ _______ _______ _____ _____    ______ ____
ROOT
ATOM      1  C   UNL     1      28.046  23.462  26.353  0.00  0.00    +0.000 A 
ATOM      2  C   UNL     1      28.193  24.764  26.784  0.00  0.00    +0.000 A 
ATOM      3  C   UNL     1      27.107  25.611  26.858  0.00  0.00    +0.000 A 
ATOM      4  C   UNL     1      25.822  25.216  26.510  0.00  0.00    +0.000 A 
ATOM      5  C   UNL     1      25.685  23.914  26.079  0.00  0.00    +0.000 A 
ATOM      6  C   UNL     1      26.770  23.066  26.005  0.00  0.00    +0.000 A 
ENDROOT
BRANCH   4   7
ATOM      7  N   UNL     1      24.714  26.101  26.592  0.00  0.00    +0.000 N 
ATOM      8  C   UNL     1      23.521  25.838  27.364  0.00  0.00    +0.000 C 
ATOM      9  C   UNL     1      22.354  26.620  26.809  0.00  0.00    +0.000 C 
ATOM     10  C   UNL     1      22.477  26.614  25.296  0.00  0.00    +0.000 C 
ATOM     11  C   UNL     1      23.632  27.507  24.899  0.00  0.00    +0.000 C 
ATOM     12  C   UNL     1      24.788  27.343  25.857  0.00  0.00    +0.000 C 
ENDBRANCH   4   7
BRANCH   1  14
ATOM     13  C   UNL     1      29.822  22.488  25.205  0.00  0.00    +0.000 C 
ATOM     14  N   UNL     1      29.134  22.555  26.263  0.00  0.00    +0.000 NA
BRANCH  13  19
ATOM     15  O   UNL     1      28.841  26.031  20.904  0.00  0.00    +0.000 OA
ATOM     16  C   UNL     1      29.075  25.149  21.959  0.00  0.00    +0.000 A 
ATOM     17  C   UNL     1      30.005  25.420  22.949  0.00  0.00    +0.000 A 
ATOM     18  C   UNL     1      30.222  24.536  23.986  0.00  0.00    +0.000 A 
ATOM     19  C   UNL     1      29.508  23.335  24.073  0.00  0.00    +0.000 A 
ATOM     20  C   UNL     1      28.598  23.080  23.097  0.00  0.00    +0.000 A 
ATOM     21  C   UNL     1      28.383  23.956  22.069  0.00  0.00    +0.000 A 
ENDBRANCH  13  19
ENDBRANCH   1  14
TORSDOF 3
ENDMDL
