MODEL 1
REMARK VINA RESULT:      -8.5      0.000      0.000
REMARK  Name = 
REMARK  7 active torsions:
REMARK  status: ('A' for Active; 'I' for Inactive)
REMARK    1  A    between atoms: C_2  and  C_3
REMARK    2  A    between atoms: C_2  and  C_18
REMARK    3  A    between atoms: C_6  and  O_7
REMARK    4  A    between atoms: O_7  and  C_8
REMARK    5  A    between atoms: C_8  and  C_9
REMARK    6  A    between atoms: C_9  and  N_10
REMARK    7  A    between atoms: C_19  and  C_20
REMARK                            x       y       z     vdW  Elec       q    Type
REMARK                         _______ _______ _______ _____ _____    ______ ____
ROOT
ATOM      1  C   UNL     1      35.428  -2.018  16.362  0.00  0.00    +0.000 A 
ATOM      2  C   UNL     1      36.160  -2.785  15.493  0.00  0.00    +0.000 A 
ATOM      3  S   UNL     1      35.052  -4.004  15.045  0.00  0.00    +0.000 S 
ATOM      4  C   UNL     1      33.701  -3.514  15.965  0.00  0.00    +0.000 A 
ATOM      5  C   UNL     1      32.395  -4.002  16.149  0.00  0.00    +0.000 A 
ATOM      6  C   UNL     1      31.506  -3.360  17.000  0.00  0.00    +0.000 A 
ATOM      7  O   UNL     1      30.216  -3.774  17.231  0.00  0.00    +0.000 OA
ATOM      8  C   UNL     1      31.976  -2.240  17.637  0.00  0.00    +0.000 A 
ATOM      9  C   UNL     1      33.229  -1.763  17.467  0.00  0.00    +0.000 A 
ATOM     10  C   UNL     1      34.158  -2.397  16.607  0.00  0.00    +0.000 A 
ENDROOT
BRANCH   2  11
ATOM     11  C   UNL     1      37.551  -2.595  15.053  0.00  0.00    +0.000 A 
ATOM     12  C   UNL     1      38.545  -3.005  15.924  0.00  0.00    +0.000 A 
ATOM     13  C   UNL     1      39.881  -2.846  15.605  0.00  0.00    +0.000 A 
ATOM     14  C   UNL     1      40.185  -2.267  14.394  0.00  0.00    +0.000 A 
ATOM     15  C   UNL     1      41.530  -2.118  14.095  0.00  0.00    +0.000 A 
ATOM     16  C   UNL     1      41.896  -1.552  12.911  0.00  0.00    +0.000 A 
ATOM     17  C   UNL     1      40.891  -1.136  12.028  0.00  0.00    +0.000 A 
ATOM     18  C   UNL     1      39.559  -1.274  12.303  0.00  0.00    +0.000 A 
ATOM     19  C   UNL     1      39.200  -1.846  13.501  0.00  0.00    +0.000 A 
ATOM     20  C   UNL     1      37.893  -2.032  13.875  0.00  0.00    +0.000 A 
ENDBRANCH   2  11
BRANCH   1  22
ATOM     21  O   UNL     1      36.725  -0.927  18.033  0.00  0.00    +0.000 OA
ATOM     22  C   UNL     1      36.058  -0.806  16.966  0.00  0.00    +0.000 C 
BRANCH  22  23
ATOM     23  C   UNL     1      35.941   0.510  16.384  0.00  0.00    +0.000 A 
ATOM     24  C   UNL     1      34.911   1.407  16.686  0.00  0.00    +0.000 A 
ATOM     25  C   UNL     1      34.887   2.653  16.072  0.00  0.00    +0.000 A 
ATOM     26  C   UNL     1      35.821   3.068  15.175  0.00  0.00    +0.000 A 
ATOM     27  C   UNL     1      36.858   2.174  14.866  0.00  0.00    +0.000 A 
ATOM     28  C   UNL     1      36.877   0.942  15.477  0.00  0.00    +0.000 A 
BRANCH  26  29
ATOM     29  O   UNL     1      35.797   4.324  14.556  0.00  0.00    +0.000 OA
BRANCH  29  30
ATOM     30  C   UNL     1      37.033   4.947  14.192  0.00  0.00    +0.000 C 
BRANCH  30  31
ATOM     31  C   UNL     1      37.370   5.963  15.269  0.00  0.00    +0.000 C 
BRANCH  31  32
ATOM     32  N   UNL     1      38.765   5.875  15.665  0.00  0.00    +0.000 NA
ATOM     33  C   UNL     1      39.041   4.585  16.293  0.00  0.00    +0.000 C 
ATOM     34  C   UNL     1      38.408   4.499  17.664  0.00  0.00    +0.000 C 
ATOM     35  C   UNL     1      39.134   5.442  18.591  0.00  0.00    +0.000 C 
ATOM     36  C   UNL     1      39.906   6.427  17.765  0.00  0.00    +0.000 C 
ATOM     37  C   UNL     1      39.143   6.958  16.568  0.00  0.00    +0.000 C 
ENDBRANCH  31  32
ENDBRANCH  30  31
ENDBRANCH  29  30
ENDBRANCH  26  29
ENDBRANCH  22  23
ENDBRANCH   1  22
TORSDOF 7
ENDMDL
MODEL 2
REMARK VINA RESULT:      -8.2     20.624     25.839
REMARK  Name = 
REMARK  7 active torsions:
REMARK  status: ('A' for Active; 'I' for Inactive)
REMARK    1  A    between atoms: C_2  and  C_3
REMARK    2  A    between atoms: C_2  and  C_18
REMARK    3  A    between atoms: C_6  and  O_7
REMARK    4  A    between atoms: O_7  and  C_8
REMARK    5  A    between atoms: C_8  and  C_9
REMARK    6  A    between atoms: C_9  and  N_10
REMARK    7  A    between atoms: C_19  and  C_20
REMARK                            x       y       z     vdW  Elec       q    Type
REMARK                         _______ _______ _______ _____ _____    ______ ____
ROOT
ATOM      1  C   UNL     1      12.941  -0.774  29.576  0.00  0.00    +0.000 A 
ATOM      2  C   UNL     1      12.247  -1.887  29.181  0.00  0.00    +0.000 A 
ATOM      3  S   UNL     1      11.878  -2.646  30.666  0.00  0.00    +0.000 S 
ATOM      4  C   UNL     1      12.609  -1.540  31.740  0.00  0.00    +0.000 A 
ATOM      5  C   UNL     1      12.748  -1.457  33.137  0.00  0.00    +0.000 A 
ATOM      6  C   UNL     1      13.427  -0.399  33.725  0.00  0.00    +0.000 A 
ATOM      7  O   UNL     1      13.605  -0.248  35.079  0.00  0.00    +0.000 OA
ATOM      8  C   UNL     1      13.943   0.541  32.871  0.00  0.00    +0.000 A 
ATOM      9  C   UNL     1      13.815   0.472  31.528  0.00  0.00    +0.000 A 
ATOM     10  C   UNL     1      13.128  -0.595  30.899  0.00  0.00    +0.000 A 
ENDROOT
BRANCH   2  11
ATOM     11  C   UNL     1      11.903  -2.315  27.816  0.00  0.00    +0.000 A 
ATOM     12  C   UNL     1      12.616  -3.378  27.292  0.00  0.00    +0.000 A 
ATOM     13  C   UNL     1      12.376  -3.834  26.010  0.00  0.00    +0.000 A 
ATOM     14  C   UNL     1      11.406  -3.195  25.274  0.00  0.00    +0.000 A 
ATOM     15  C   UNL     1      11.182  -3.669  23.991  0.00  0.00    +0.000 A 
ATOM     16  C   UNL     1      10.234  -3.077  23.212  0.00  0.00    +0.000 A 
ATOM     17  C   UNL     1       9.511  -1.999  23.739  0.00  0.00    +0.000 A 
ATOM     18  C   UNL     1       9.715  -1.516  25.002  0.00  0.00    +0.000 A 
ATOM     19  C   UNL     1      10.674  -2.120  25.780  0.00  0.00    +0.000 A 
ATOM     20  C   UNL     1      10.959  -1.714  27.060  0.00  0.00    +0.000 A 
ENDBRANCH   2  11
BRANCH   1  22
ATOM     21  O   UNL     1      12.699   1.176  28.232  0.00  0.00    +0.000 OA
ATOM     22  C   UNL     1      13.424   0.186  28.538  0.00  0.00    +0.000 C 
BRANCH  22  23
ATOM     23  C   UNL     1      14.692   0.036  27.863  0.00  0.00    +0.000 A 
ATOM     24  C   UNL     1      14.827  -0.458  26.562  0.00  0.00    +0.000 A 
ATOM     25  C   UNL     1      16.093  -0.563  25.998  0.00  0.00    +0.000 A 
ATOM     26  C   UNL     1      17.236  -0.209  26.645  0.00  0.00    +0.000 A 
ATOM     27  C   UNL     1      17.109   0.287  27.952  0.00  0.00    +0.000 A 
ATOM     28  C   UNL     1      15.853   0.390  28.504  0.00  0.00    +0.000 A 
BRANCH  26  29
ATOM     29  O   UNL     1      18.512  -0.314  26.078  0.00  0.00    +0.000 OA
BRANCH  29  30
ATOM     30  C   UNL     1      19.087   0.826  25.434  0.00  0.00    +0.000 C 
BRANCH  30  31
ATOM     31  C   UNL     1      19.254   0.488  23.962  0.00  0.00    +0.000 C 
BRANCH  31  32
ATOM     32  N   UNL     1      20.258  -0.544  23.764  0.00  0.00    +0.000 NA
ATOM     33  C   UNL     1      21.216  -0.139  22.738  0.00  0.00    +0.000 C 
ATOM     34  C   UNL     1      20.586  -0.166  21.363  0.00  0.00    +0.000 C 
ATOM     35  C   UNL     1      20.327  -1.602  20.979  0.00  0.00    +0.000 C 
ATOM     36  C   UNL     1      20.366  -2.444  22.218  0.00  0.00    +0.000 C 
ATOM     37  C   UNL     1      19.658  -1.825  23.406  0.00  0.00    +0.000 C 
ENDBRANCH  31  32
ENDBRANCH  30  31
ENDBRANCH  29  30
ENDBRANCH  26  29
ENDBRANCH  22  23
ENDBRANCH   1  22
TORSDOF 7
ENDMDL
MODEL 3
REMARK VINA RESULT:      -8.2      3.641      8.261
REMARK  Name = 
REMARK  7 active torsions:
REMARK  status: ('A' for Active; 'I' for Inactive)
REMARK    1  A    between atoms: C_2  and  C_3
REMARK    2  A    between atoms: C_2  and  C_18
REMARK    3  A    between atoms: C_6  and  O_7
REMARK    4  A    between atoms: O_7  and  C_8
REMARK    5  A    between atoms: C_8  and  C_9
REMARK    6  A    between atoms: C_9  and  N_10
REMARK    7  A    between atoms: C_19  and  C_20
REMARK                            x       y       z     vdW  Elec       q    Type
REMARK                         _______ _______ _______ _____ _____    ______ ____
ROOT
ATOM      1  C   UNL     1      37.691   4.541  14.806  0.00  0.00    +0.000 A 
ATOM      2  C   UNL     1      38.278   4.723  13.581  0.00  0.00    +0.000 A 
ATOM      3  S   UNL     1      39.797   5.388  13.988  0.00  0.00    +0.000 S 
ATOM      4  C   UNL     1      39.649   5.419  15.687  0.00  0.00    +0.000 A 
ATOM      5  C   UNL     1      40.473   5.833  16.749  0.00  0.00    +0.000 A 
ATOM      6  C   UNL     1      40.047   5.731  18.065  0.00  0.00    +0.000 A 
ATOM      7  O   UNL     1      40.793   6.113  19.155  0.00  0.00    +0.000 OA
ATOM      8  C   UNL     1      38.793   5.212  18.260  0.00  0.00    +0.000 A 
ATOM      9  C   UNL     1      37.993   4.810  17.248  0.00  0.00    +0.000 A 
ATOM     10  C   UNL     1      38.400   4.902  15.894  0.00  0.00    +0.000 A 
ENDROOT
BRANCH   2  11
ATOM     11  C   UNL     1      37.733   4.413  12.250  0.00  0.00    +0.000 A 
ATOM     12  C   UNL     1      37.005   5.409  11.623  0.00  0.00    +0.000 A 
ATOM     13  C   UNL     1      36.436   5.200  10.380  0.00  0.00    +0.000 A 
ATOM     14  C   UNL     1      36.620   3.971   9.791  0.00  0.00    +0.000 A 
ATOM     15  C   UNL     1      36.042   3.784   8.546  0.00  0.00    +0.000 A 
ATOM     16  C   UNL     1      36.187   2.587   7.910  0.00  0.00    +0.000 A 
ATOM     17  C   UNL     1      36.923   1.577   8.543  0.00  0.00    +0.000 A 
ATOM     18  C   UNL     1      37.502   1.741   9.771  0.00  0.00    +0.000 A 
ATOM     19  C   UNL     1      37.349   2.952  10.404  0.00  0.00    +0.000 A 
ATOM     20  C   UNL     1      37.889   3.220  11.637  0.00  0.00    +0.000 A 
ENDBRANCH   2  11
BRANCH   1  22
ATOM     21  O   UNL     1      35.323   4.656  14.599  0.00  0.00    +0.000 OA
ATOM     22  C   UNL     1      36.327   3.937  14.874  0.00  0.00    +0.000 C 
BRANCH  22  23
ATOM     23  C   UNL     1      36.097   2.560  15.240  0.00  0.00    +0.000 A 
ATOM     24  C   UNL     1      36.621   1.469  14.538  0.00  0.00    +0.000 A 
ATOM     25  C   UNL     1      36.342   0.179  14.972  0.00  0.00    +0.000 A 
ATOM     26  C   UNL     1      35.575  -0.099  16.060  0.00  0.00    +0.000 A 
ATOM     27  C   UNL     1      35.045   0.989  16.770  0.00  0.00    +0.000 A 
ATOM     28  C   UNL     1      35.325   2.264  16.336  0.00  0.00    +0.000 A 
BRANCH  26  29
ATOM     29  O   UNL     1      35.293  -1.400  16.498  0.00  0.00    +0.000 OA
BRANCH  29  30
ATOM     30  C   UNL     1      35.426  -2.489  15.581  0.00  0.00    +0.000 C 
BRANCH  30  31
ATOM     31  C   UNL     1      36.094  -3.636  16.321  0.00  0.00    +0.000 C 
BRANCH  31  32
ATOM     32  N   UNL     1      37.367  -3.989  15.717  0.00  0.00    +0.000 NA
ATOM     33  C   UNL     1      38.451  -3.857  16.689  0.00  0.00    +0.000 C 
ATOM     34  C   UNL     1      38.737  -2.402  16.993  0.00  0.00    +0.000 C 
ATOM     35  C   UNL     1      39.353  -1.767  15.771  0.00  0.00    +0.000 C 
ATOM     36  C   UNL     1      39.069  -2.636  14.583  0.00  0.00    +0.000 C 
ATOM     37  C   UNL     1      37.654  -3.176  14.539  0.00  0.00    +0.000 C 
ENDBRANCH  31  32
ENDBRANCH  30  31
ENDBRANCH  29  30
ENDBRANCH  26  29
ENDBRANCH  22  23
ENDBRANCH   1  22
TORSDOF 7
ENDMDL
MODEL 4
REMARK VINA RESULT:      -8.2      3.636      9.327
REMARK  Name = 
REMARK  7 active torsions:
REMARK  status: ('A' for Active; 'I' for Inactive)
REMARK    1  A    between atoms: C_2  and  C_3
REMARK    2  A    between atoms: C_2  and  C_18
REMARK    3  A    between atoms: C_6  and  O_7
REMARK    4  A    between atoms: O_7  and  C_8
REMARK    5  A    between atoms: C_8  and  C_9
REMARK    6  A    between atoms: C_9  and  N_10
REMARK    7  A    between atoms: C_19  and  C_20
REMARK                            x       y       z     vdW  Elec       q    Type
REMARK                         _______ _______ _______ _____ _____    ______ ____
ROOT
ATOM      1  C   UNL     1      37.470   6.980  14.845  0.00  0.00    +0.000 A 
ATOM      2  C   UNL     1      37.911   7.749  15.890  0.00  0.00    +0.000 A 
ATOM      3  S   UNL     1      37.145   9.248  15.601  0.00  0.00    +0.000 S 
ATOM      4  C   UNL     1      36.293   8.862  14.174  0.00  0.00    +0.000 A 
ATOM      5  C   UNL     1      35.433   9.564  13.310  0.00  0.00    +0.000 A 
ATOM      6  C   UNL     1      34.889   8.950  12.191  0.00  0.00    +0.000 A 
ATOM      7  O   UNL     1      34.042   9.568  11.302  0.00  0.00    +0.000 OA
ATOM      8  C   UNL     1      35.239   7.641  11.986  0.00  0.00    +0.000 A 
ATOM      9  C   UNL     1      36.063   6.957  12.809  0.00  0.00    +0.000 A 
ATOM     10  C   UNL     1      36.634   7.556  13.958  0.00  0.00    +0.000 A 
ENDROOT
BRANCH   2  11
ATOM     11  C   UNL     1      38.814   7.371  16.987  0.00  0.00    +0.000 A 
ATOM     12  C   UNL     1      38.228   7.042  18.197  0.00  0.00    +0.000 A 
ATOM     13  C   UNL     1      38.999   6.696  19.291  0.00  0.00    +0.000 A 
ATOM     14  C   UNL     1      40.366   6.691  19.135  0.00  0.00    +0.000 A 
ATOM     15  C   UNL     1      41.118   6.340  20.245  0.00  0.00    +0.000 A 
ATOM     16  C   UNL     1      42.478   6.317  20.154  0.00  0.00    +0.000 A 
ATOM     17  C   UNL     1      43.074   6.652  18.931  0.00  0.00    +0.000 A 
ATOM     18  C   UNL     1      42.350   7.000  17.825  0.00  0.00    +0.000 A 
ATOM     19  C   UNL     1      40.979   7.020  17.926  0.00  0.00    +0.000 A 
ATOM     20  C   UNL     1      40.160   7.355  16.877  0.00  0.00    +0.000 A 
ENDBRANCH   2  11
BRANCH   1  22
ATOM     21  O   UNL     1      38.977   5.279  14.137  0.00  0.00    +0.000 OA
ATOM     22  C   UNL     1      37.910   5.555  14.758  0.00  0.00    +0.000 C 
BRANCH  22  23
ATOM     23  C   UNL     1      37.169   4.469  15.353  0.00  0.00    +0.000 A 
ATOM     24  C   UNL     1      37.477   3.906  16.596  0.00  0.00    +0.000 A 
ATOM     25  C   UNL     1      36.701   2.861  17.085  0.00  0.00    +0.000 A 
ATOM     26  C   UNL     1      35.638   2.338  16.417  0.00  0.00    +0.000 A 
ATOM     27  C   UNL     1      35.323   2.897  15.169  0.00  0.00    +0.000 A 
ATOM     28  C   UNL     1      36.094   3.931  14.691  0.00  0.00    +0.000 A 
BRANCH  26  29
ATOM     29  O   UNL     1      34.856   1.285  16.909  0.00  0.00    +0.000 OA
BRANCH  29  30
ATOM     30  C   UNL     1      35.434   0.357  17.831  0.00  0.00    +0.000 C 
BRANCH  30  31
ATOM     31  C   UNL     1      35.962  -0.820  17.029  0.00  0.00    +0.000 C 
BRANCH  31  32
ATOM     32  N   UNL     1      37.407  -0.762  16.888  0.00  0.00    +0.000 NA
ATOM     33  C   UNL     1      37.780  -0.580  15.486  0.00  0.00    +0.000 C 
ATOM     34  C   UNL     1      37.521  -1.838  14.686  0.00  0.00    +0.000 C 
ATOM     35  C   UNL     1      38.504  -2.896  15.121  0.00  0.00    +0.000 C 
ATOM     36  C   UNL     1      39.077  -2.503  16.449  0.00  0.00    +0.000 C 
ATOM     37  C   UNL     1      38.054  -1.956  17.423  0.00  0.00    +0.000 C 
ENDBRANCH  31  32
ENDBRANCH  30  31
ENDBRANCH  29  30
ENDBRANCH  26  29
ENDBRANCH  22  23
ENDBRANCH   1  22
TORSDOF 7
ENDMDL
MODEL 5
REMARK VINA RESULT:      -8.2     20.972     26.132
REMARK  Name = 
REMARK  7 active torsions:
REMARK  status: ('A' for Active; 'I' for Inactive)
REMARK    1  A    between atoms: C_2  and  C_3
REMARK    2  A    between atoms: C_2  and  C_18
REMARK    3  A    between atoms: C_6  and  O_7
REMARK    4  A    between atoms: O_7  and  C_8
REMARK    5  A    between atoms: C_8  and  C_9
REMARK    6  A    between atoms: C_9  and  N_10
REMARK    7  A    between atoms: C_19  and  C_20
REMARK                            x       y       z     vdW  Elec       q    Type
REMARK                         _______ _______ _______ _____ _____    ______ ____
ROOT
ATOM      1  C   UNL     1      11.845  -0.268  28.635  0.00  0.00    +0.000 A 
ATOM      2  C   UNL     1      11.240  -1.475  28.404  0.00  0.00    +0.000 A 
ATOM      3  S   UNL     1       9.643  -1.024  27.998  0.00  0.00    +0.000 S 
ATOM      4  C   UNL     1       9.784   0.671  28.133  0.00  0.00    +0.000 A 
ATOM      5  C   UNL     1       8.907   1.757  27.964  0.00  0.00    +0.000 A 
ATOM      6  C   UNL     1       9.338   3.061  28.160  0.00  0.00    +0.000 A 
ATOM      7  O   UNL     1       8.543   4.173  28.014  0.00  0.00    +0.000 OA
ATOM      8  C   UNL     1      10.651   3.219  28.524  0.00  0.00    +0.000 A 
ATOM      9  C   UNL     1      11.503   2.183  28.689  0.00  0.00    +0.000 A 
ATOM     10  C   UNL     1      11.091   0.842  28.496  0.00  0.00    +0.000 A 
ENDROOT
BRANCH   2  11
ATOM     11  C   UNL     1      11.826  -2.822  28.480  0.00  0.00    +0.000 A 
ATOM     12  C   UNL     1      11.959  -3.517  27.290  0.00  0.00    +0.000 A 
ATOM     13  C   UNL     1      12.479  -4.797  27.268  0.00  0.00    +0.000 A 
ATOM     14  C   UNL     1      12.858  -5.355  28.467  0.00  0.00    +0.000 A 
ATOM     15  C   UNL     1      13.377  -6.639  28.421  0.00  0.00    +0.000 A 
ATOM     16  C   UNL     1      13.770  -7.248  29.575  0.00  0.00    +0.000 A 
ATOM     17  C   UNL     1      13.635  -6.546  30.781  0.00  0.00    +0.000 A 
ATOM     18  C   UNL     1      13.127  -5.280  30.849  0.00  0.00    +0.000 A 
ATOM     19  C   UNL     1      12.733  -4.675  29.678  0.00  0.00    +0.000 A 
ATOM     20  C   UNL     1      12.210  -3.407  29.635  0.00  0.00    +0.000 A 
ENDBRANCH   2  11
BRANCH   1  22
ATOM     21  O   UNL     1      13.622  -0.341  30.216  0.00  0.00    +0.000 OA
ATOM     22  C   UNL     1      13.293  -0.240  28.999  0.00  0.00    +0.000 C 
BRANCH  22  23
ATOM     23  C   UNL     1      14.345  -0.103  28.020  0.00  0.00    +0.000 A 
ATOM     24  C   UNL     1      15.592   0.469  28.292  0.00  0.00    +0.000 A 
ATOM     25  C   UNL     1      16.540   0.554  27.279  0.00  0.00    +0.000 A 
ATOM     26  C   UNL     1      16.329   0.109  26.012  0.00  0.00    +0.000 A 
ATOM     27  C   UNL     1      15.080  -0.466  25.731  0.00  0.00    +0.000 A 
ATOM     28  C   UNL     1      14.146  -0.548  26.737  0.00  0.00    +0.000 A 
BRANCH  26  29
ATOM     29  O   UNL     1      17.284   0.195  24.991  0.00  0.00    +0.000 OA
BRANCH  29  30
ATOM     30  C   UNL     1      18.673   0.195  25.332  0.00  0.00    +0.000 C 
BRANCH  30  31
ATOM     31  C   UNL     1      19.444   0.696  24.123  0.00  0.00    +0.000 C 
BRANCH  31  32
ATOM     32  N   UNL     1      20.506  -0.223  23.750  0.00  0.00    +0.000 NA
ATOM     33  C   UNL     1      21.277   0.309  22.628  0.00  0.00    +0.000 C 
ATOM     34  C   UNL     1      20.474   0.264  21.346  0.00  0.00    +0.000 C 
ATOM     35  C   UNL     1      20.305  -1.178  20.934  0.00  0.00    +0.000 C 
ATOM     36  C   UNL     1      20.588  -2.051  22.118  0.00  0.00    +0.000 C 
ATOM     37  C   UNL     1      19.988  -1.545  23.415  0.00  0.00    +0.000 C 
ENDBRANCH  31  32
ENDBRANCH  30  31
ENDBRANCH  29  30
ENDBRANCH  26  29
ENDBRANCH  22  23
ENDBRANCH   1  22
TORSDOF 7
ENDMDL
MODEL 6
REMARK VINA RESULT:      -8.1      3.794      7.413
REMARK  Name = 
REMARK  7 active torsions:
REMARK  status: ('A' for Active; 'I' for Inactive)
REMARK    1  A    between atoms: C_2  and  C_3
REMARK    2  A    between atoms: C_2  and  C_18
REMARK    3  A    between atoms: C_6  and  O_7
REMARK    4  A    between atoms: O_7  and  C_8
REMARK    5  A    between atoms: C_8  and  C_9
REMARK    6  A    between atoms: C_9  and  N_10
REMARK    7  A    between atoms: C_19  and  C_20
REMARK                            x       y       z     vdW  Elec       q    Type
REMARK                         _______ _______ _______ _____ _____    ______ ____
ROOT
ATOM      1  C   UNL     1      37.072   4.757  14.909  0.00  0.00    +0.000 A 
ATOM      2  C   UNL     1      36.051   3.849  15.021  0.00  0.00    +0.000 A 
ATOM      3  S   UNL     1      34.721   4.700  14.371  0.00  0.00    +0.000 S 
ATOM      4  C   UNL     1      35.488   6.172  13.978  0.00  0.00    +0.000 A 
ATOM      5  C   UNL     1      35.071   7.388  13.408  0.00  0.00    +0.000 A 
ATOM      6  C   UNL     1      35.965   8.432  13.219  0.00  0.00    +0.000 A 
ATOM      7  O   UNL     1      35.635   9.648  12.669  0.00  0.00    +0.000 OA
ATOM      8  C   UNL     1      37.257   8.205  13.617  0.00  0.00    +0.000 A 
ATOM      9  C   UNL     1      37.669   7.040  14.164  0.00  0.00    +0.000 A 
ATOM     10  C   UNL     1      36.780   5.957  14.370  0.00  0.00    +0.000 A 
ENDROOT
BRANCH   2  11
ATOM     11  C   UNL     1      36.097   2.482  15.562  0.00  0.00    +0.000 A 
ATOM     12  C   UNL     1      35.936   2.342  16.929  0.00  0.00    +0.000 A 
ATOM     13  C   UNL     1      35.987   1.098  17.528  0.00  0.00    +0.000 A 
ATOM     14  C   UNL     1      36.203   0.006  16.720  0.00  0.00    +0.000 A 
ATOM     15  C   UNL     1      36.250  -1.231  17.342  0.00  0.00    +0.000 A 
ATOM     16  C   UNL     1      36.461  -2.351  16.595  0.00  0.00    +0.000 A 
ATOM     17  C   UNL     1      36.626  -2.212  15.211  0.00  0.00    +0.000 A 
ATOM     18  C   UNL     1      36.583  -1.002  14.577  0.00  0.00    +0.000 A 
ATOM     19  C   UNL     1      36.369   0.123  15.340  0.00  0.00    +0.000 A 
ATOM     20  C   UNL     1      36.308   1.385  14.804  0.00  0.00    +0.000 A 
ENDBRANCH   2  11
BRANCH   1  22
ATOM     21  O   UNL     1      39.048   3.439  14.747  0.00  0.00    +0.000 OA
ATOM     22  C   UNL     1      38.442   4.366  15.358  0.00  0.00    +0.000 C 
BRANCH  22  23
ATOM     23  C   UNL     1      39.114   5.002  16.466  0.00  0.00    +0.000 A 
ATOM     24  C   UNL     1      40.278   5.768  16.336  0.00  0.00    +0.000 A 
ATOM     25  C   UNL     1      40.850   6.340  17.466  0.00  0.00    +0.000 A 
ATOM     26  C   UNL     1      40.340   6.202  18.718  0.00  0.00    +0.000 A 
ATOM     27  C   UNL     1      39.173   5.435  18.858  0.00  0.00    +0.000 A 
ATOM     28  C   UNL     1      38.611   4.871  17.737  0.00  0.00    +0.000 A 
BRANCH  26  29
ATOM     29  O   UNL     1      40.916   6.779  19.858  0.00  0.00    +0.000 OA
BRANCH  29  30
ATOM     30  C   UNL     1      41.097   8.197  19.907  0.00  0.00    +0.000 C 
BRANCH  30  31
ATOM     31  C   UNL     1      39.859   8.797  20.551  0.00  0.00    +0.000 C 
BRANCH  31  32
ATOM     32  N   UNL     1      39.244   9.796  19.694  0.00  0.00    +0.000 NA
ATOM     33  C   UNL     1      37.787   9.692  19.746  0.00  0.00    +0.000 C 
ATOM     34  C   UNL     1      37.303   8.449  19.032  0.00  0.00    +0.000 C 
ATOM     35  C   UNL     1      37.537   8.622  17.552  0.00  0.00    +0.000 C 
ATOM     36  C   UNL     1      38.533   9.723  17.348  0.00  0.00    +0.000 C 
ATOM     37  C   UNL     1      39.702   9.683  18.312  0.00  0.00    +0.000 C 
ENDBRANCH  31  32
ENDBRANCH  30  31
ENDBRANCH  29  30
ENDBRANCH  26  29
ENDBRANCH  22  23
ENDBRANCH   1  22
TORSDOF 7
ENDMDL
MODEL 7
REMARK VINA RESULT:      -7.9      3.590      6.590
REMARK  Name = 
REMARK  7 active torsions:
REMARK  status: ('A' for Active; 'I' for Inactive)
REMARK    1  A    between atoms: C_2  and  C_3
REMARK    2  A    between atoms: C_2  and  C_18
REMARK    3  A    between atoms: C_6  and  O_7
REMARK    4  A    between atoms: O_7  and  C_8
REMARK    5  A    between atoms: C_8  and  C_9
REMARK    6  A    between atoms: C_9  and  N_10
REMARK    7  A    between atoms: C_19  and  C_20
REMARK                            x       y       z     vdW  Elec       q    Type
REMARK                         _______ _______ _______ _____ _____    ______ ____
ROOT
ATOM      1  C   UNL     1      37.225   4.072  14.647  0.00  0.00    +0.000 A 
ATOM      2  C   UNL     1      37.660   3.056  13.836  0.00  0.00    +0.000 A 
ATOM      3  S   UNL     1      37.232   3.610  12.278  0.00  0.00    +0.000 S 
ATOM      4  C   UNL     1      36.519   5.103  12.693  0.00  0.00    +0.000 A 
ATOM      5  C   UNL     1      35.917   6.150  11.972  0.00  0.00    +0.000 A 
ATOM      6  C   UNL     1      35.411   7.266  12.624  0.00  0.00    +0.000 A 
ATOM      7  O   UNL     1      34.809   8.328  11.991  0.00  0.00    +0.000 OA
ATOM      8  C   UNL     1      35.532   7.280  13.989  0.00  0.00    +0.000 A 
ATOM      9  C   UNL     1      36.110   6.281  14.691  0.00  0.00    +0.000 A 
ATOM     10  C   UNL     1      36.635   5.130  14.055  0.00  0.00    +0.000 A 
ENDROOT
BRANCH   2  11
ATOM     11  C   UNL     1      38.332   1.805  14.218  0.00  0.00    +0.000 A 
ATOM     12  C   UNL     1      39.706   1.756  14.058  0.00  0.00    +0.000 A 
ATOM     13  C   UNL     1      40.419   0.614  14.369  0.00  0.00    +0.000 A 
ATOM     14  C   UNL     1      39.717  -0.470  14.842  0.00  0.00    +0.000 A 
ATOM     15  C   UNL     1      40.453  -1.604  15.148  0.00  0.00    +0.000 A 
ATOM     16  C   UNL     1      39.815  -2.712  15.621  0.00  0.00    +0.000 A 
ATOM     17  C   UNL     1      38.424  -2.666  15.782  0.00  0.00    +0.000 A 
ATOM     18  C   UNL     1      37.679  -1.558  15.487  0.00  0.00    +0.000 A 
ATOM     19  C   UNL     1      38.333  -0.445  15.011  0.00  0.00    +0.000 A 
ATOM     20  C   UNL     1      37.681   0.717  14.685  0.00  0.00    +0.000 A 
ENDBRANCH   2  11
BRANCH   1  22
ATOM     21  O   UNL     1      36.691   3.223  16.805  0.00  0.00    +0.000 OA
ATOM     22  C   UNL     1      37.448   3.970  16.120  0.00  0.00    +0.000 C 
BRANCH  22  23
ATOM     23  C   UNL     1      38.495   4.689  16.806  0.00  0.00    +0.000 A 
ATOM     24  C   UNL     1      38.602   4.768  18.199  0.00  0.00    +0.000 A 
ATOM     25  C   UNL     1      39.649   5.486  18.764  0.00  0.00    +0.000 A 
ATOM     26  C   UNL     1      40.598   6.131  18.035  0.00  0.00    +0.000 A 
ATOM     27  C   UNL     1      40.499   6.057  16.638  0.00  0.00    +0.000 A 
ATOM     28  C   UNL     1      39.460   5.345  16.083  0.00  0.00    +0.000 A 
BRANCH  26  29
ATOM     29  O   UNL     1      41.654   6.855  18.605  0.00  0.00    +0.000 OA
BRANCH  29  30
ATOM     30  C   UNL     1      41.700   8.274  18.435  0.00  0.00    +0.000 C 
BRANCH  30  31
ATOM     31  C   UNL     1      40.658   8.882  19.359  0.00  0.00    +0.000 C 
BRANCH  31  32
ATOM     32  N   UNL     1      39.798   9.815  18.651  0.00  0.00    +0.000 NA
ATOM     33  C   UNL     1      38.433   9.750  19.168  0.00  0.00    +0.000 C 
ATOM     34  C   UNL     1      37.756   8.459  18.760  0.00  0.00    +0.000 C 
ATOM     35  C   UNL     1      37.510   8.495  17.272  0.00  0.00    +0.000 C 
ATOM     36  C   UNL     1      38.384   9.550  16.665  0.00  0.00    +0.000 C 
ATOM     37  C   UNL     1      39.797   9.569  17.213  0.00  0.00    +0.000 C 
ENDBRANCH  31  32
ENDBRANCH  30  31
ENDBRANCH  29  30
ENDBRANCH  26  29
ENDBRANCH  22  23
ENDBRANCH   1  22
TORSDOF 7
ENDMDL
MODEL 8
REMARK VINA RESULT:      -7.9      3.186      7.082
REMARK  Name = 
REMARK  7 active torsions:
REMARK  status: ('A' for Active; 'I' for Inactive)
REMARK    1  A    between atoms: C_2  and  C_3
REMARK    2  A    between atoms: C_2  and  C_18
REMARK    3  A    between atoms: C_6  and  O_7
REMARK    4  A    between atoms: O_7  and  C_8
REMARK    5  A    between atoms: C_8  and  C_9
REMARK    6  A    between atoms: C_9  and  N_10
REMARK    7  A    between atoms: C_19  and  C_20
REMARK                            x       y       z     vdW  Elec       q    Type
REMARK                         _______ _______ _______ _____ _____    ______ ____
ROOT
ATOM      1  C   UNL     1      37.300   3.736  13.390  0.00  0.00    +0.000 A 
ATOM      2  C   UNL     1      38.047   3.164  12.394  0.00  0.00    +0.000 A 
ATOM      3  S   UNL     1      37.559   4.040  11.011  0.00  0.00    +0.000 S 
ATOM      4  C   UNL     1      36.429   5.098  11.727  0.00  0.00    +0.000 A 
ATOM      5  C   UNL     1      35.591   6.123  11.255  0.00  0.00    +0.000 A 
ATOM      6  C   UNL     1      34.754   6.816  12.118  0.00  0.00    +0.000 A 
ATOM      7  O   UNL     1      33.908   7.829  11.734  0.00  0.00    +0.000 OA
ATOM      8  C   UNL     1      34.797   6.443  13.437  0.00  0.00    +0.000 A 
ATOM      9  C   UNL     1      35.599   5.460  13.902  0.00  0.00    +0.000 A 
ATOM     10  C   UNL     1      36.463   4.735  13.045  0.00  0.00    +0.000 A 
ENDROOT
BRANCH   2  11
ATOM     11  C   UNL     1      39.028   2.073  12.496  0.00  0.00    +0.000 A 
ATOM     12  C   UNL     1      40.210   2.353  13.160  0.00  0.00    +0.000 A 
ATOM     13  C   UNL     1      41.199   1.395  13.286  0.00  0.00    +0.000 A 
ATOM     14  C   UNL     1      40.968   0.159  12.729  0.00  0.00    +0.000 A 
ATOM     15  C   UNL     1      41.973  -0.785  12.868  0.00  0.00    +0.000 A 
ATOM     16  C   UNL     1      41.805  -2.029  12.338  0.00  0.00    +0.000 A 
ATOM     17  C   UNL     1      40.610  -2.314  11.664  0.00  0.00    +0.000 A 
ATOM     18  C   UNL     1      39.606  -1.398  11.516  0.00  0.00    +0.000 A 
ATOM     19  C   UNL     1      39.786  -0.145  12.055  0.00  0.00    +0.000 A 
ATOM     20  C   UNL     1      38.842   0.847  11.964  0.00  0.00    +0.000 A 
ENDBRANCH   2  11
BRANCH   1  22
ATOM     21  O   UNL     1      38.292   3.833  15.552  0.00  0.00    +0.000 OA
ATOM     22  C   UNL     1      37.467   3.248  14.792  0.00  0.00    +0.000 C 
BRANCH  22  23
ATOM     23  C   UNL     1      36.724   2.131  15.327  0.00  0.00    +0.000 A 
ATOM     24  C   UNL     1      36.393   0.991  14.588  0.00  0.00    +0.000 A 
ATOM     25  C   UNL     1      35.675  -0.033  15.194  0.00  0.00    +0.000 A 
ATOM     26  C   UNL     1      35.264   0.003  16.490  0.00  0.00    +0.000 A 
ATOM     27  C   UNL     1      35.591   1.144  17.239  0.00  0.00    +0.000 A 
ATOM     28  C   UNL     1      36.303   2.154  16.633  0.00  0.00    +0.000 A 
BRANCH  26  29
ATOM     29  O   UNL     1      34.540  -1.028  17.102  0.00  0.00    +0.000 OA
BRANCH  29  30
ATOM     30  C   UNL     1      34.921  -2.386  16.865  0.00  0.00    +0.000 C 
BRANCH  30  31
ATOM     31  C   UNL     1      36.190  -2.653  17.656  0.00  0.00    +0.000 C 
BRANCH  31  32
ATOM     32  N   UNL     1      37.134  -3.454  16.894  0.00  0.00    +0.000 NA
ATOM     33  C   UNL     1      38.506  -3.033  17.170  0.00  0.00    +0.000 C 
ATOM     34  C   UNL     1      38.797  -1.684  16.549  0.00  0.00    +0.000 C 
ATOM     35  C   UNL     1      38.829  -1.841  15.049  0.00  0.00    +0.000 C 
ATOM     36  C   UNL     1      38.147  -3.126  14.686  0.00  0.00    +0.000 C 
ATOM     37  C   UNL     1      36.871  -3.386  15.460  0.00  0.00    +0.000 C 
ENDBRANCH  31  32
ENDBRANCH  30  31
ENDBRANCH  29  30
ENDBRANCH  26  29
ENDBRANCH  22  23
ENDBRANCH   1  22
TORSDOF 7
ENDMDL
MODEL 9
REMARK VINA RESULT:      -7.9      2.918      3.769
REMARK  Name = 
REMARK  7 active torsions:
REMARK  status: ('A' for Active; 'I' for Inactive)
REMARK    1  A    between atoms: C_2  and  C_3
REMARK    2  A    between atoms: C_2  and  C_18
REMARK    3  A    between atoms: C_6  and  O_7
REMARK    4  A    between atoms: O_7  and  C_8
REMARK    5  A    between atoms: C_8  and  C_9
REMARK    6  A    between atoms: C_9  and  N_10
REMARK    7  A    between atoms: C_19  and  C_20
REMARK                            x       y       z     vdW  Elec       q    Type
REMARK                         _______ _______ _______ _____ _____    ______ ____
ROOT
ATOM      1  C   UNL     1      38.142  -1.257  15.630  0.00  0.00    +0.000 A 
ATOM      2  C   UNL     1      39.137  -1.928  14.969  0.00  0.00    +0.000 A 
ATOM      3  S   UNL     1      39.737  -2.987  16.168  0.00  0.00    +0.000 S 
ATOM      4  C   UNL     1      38.718  -2.553  17.466  0.00  0.00    +0.000 A 
ATOM      5  C   UNL     1      38.583  -2.965  18.804  0.00  0.00    +0.000 A 
ATOM      6  C   UNL     1      37.630  -2.394  19.634  0.00  0.00    +0.000 A 
ATOM      7  O   UNL     1      37.437  -2.743  20.950  0.00  0.00    +0.000 OA
ATOM      8  C   UNL     1      36.843  -1.420  19.076  0.00  0.00    +0.000 A 
ATOM      9  C   UNL     1      36.962  -1.016  17.793  0.00  0.00    +0.000 A 
ATOM     10  C   UNL     1      37.926  -1.580  16.921  0.00  0.00    +0.000 A 
ENDROOT
BRANCH   2  11
ATOM     11  C   UNL     1      39.572  -1.776  13.572  0.00  0.00    +0.000 A 
ATOM     12  C   UNL     1      39.284  -2.818  12.708  0.00  0.00    +0.000 A 
ATOM     13  C   UNL     1      39.674  -2.772  11.382  0.00  0.00    +0.000 A 
ATOM     14  C   UNL     1      40.357  -1.657  10.954  0.00  0.00    +0.000 A 
ATOM     15  C   UNL     1      40.737  -1.633   9.622  0.00  0.00    +0.000 A 
ATOM     16  C   UNL     1      41.418  -0.556   9.137  0.00  0.00    +0.000 A 
ATOM     17  C   UNL     1      41.712   0.499  10.010  0.00  0.00    +0.000 A 
ATOM     18  C   UNL     1      41.346   0.495  11.327  0.00  0.00    +0.000 A 
ATOM     19  C   UNL     1      40.660  -0.596  11.807  0.00  0.00    +0.000 A 
ATOM     20  C   UNL     1      40.246  -0.700  13.111  0.00  0.00    +0.000 A 
ENDBRANCH   2  11
BRANCH   1  22
ATOM     21  O   UNL     1      36.438  -0.623  14.094  0.00  0.00    +0.000 OA
ATOM     22  C   UNL     1      37.341  -0.236  14.891  0.00  0.00    +0.000 C 
BRANCH  22  23
ATOM     23  C   UNL     1      37.549   1.184  15.044  0.00  0.00    +0.000 A 
ATOM     24  C   UNL     1      36.641   2.040  15.676  0.00  0.00    +0.000 A 
ATOM     25  C   UNL     1      36.934   3.396  15.774  0.00  0.00    +0.000 A 
ATOM     26  C   UNL     1      38.072   3.956  15.284  0.00  0.00    +0.000 A 
ATOM     27  C   UNL     1      38.988   3.104  14.648  0.00  0.00    +0.000 A 
ATOM     28  C   UNL     1      38.693   1.763  14.554  0.00  0.00    +0.000 A 
BRANCH  26  29
ATOM     29  O   UNL     1      38.368   5.322  15.382  0.00  0.00    +0.000 OA
BRANCH  29  30
ATOM     30  C   UNL     1      39.735   5.742  15.393  0.00  0.00    +0.000 C 
BRANCH  30  31
ATOM     31  C   UNL     1      39.943   6.601  16.628  0.00  0.00    +0.000 C 
BRANCH  31  32
ATOM     32  N   UNL     1      40.449   5.818  17.743  0.00  0.00    +0.000 NA
ATOM     33  C   UNL     1      39.398   5.591  18.732  0.00  0.00    +0.000 C 
ATOM     34  C   UNL     1      39.068   6.865  19.478  0.00  0.00    +0.000 C 
ATOM     35  C   UNL     1      40.237   7.222  20.362  0.00  0.00    +0.000 C 
ATOM     36  C   UNL     1      41.446   6.477  19.884  0.00  0.00    +0.000 C 
ATOM     37  C   UNL     1      41.599   6.455  18.376  0.00  0.00    +0.000 C 
ENDBRANCH  31  32
ENDBRANCH  30  31
ENDBRANCH  29  30
ENDBRANCH  26  29
ENDBRANCH  22  23
ENDBRANCH   1  22
TORSDOF 7
ENDMDL
MODEL 10
REMARK VINA RESULT:      -7.8      3.241      7.871
REMARK  Name = 
REMARK  7 active torsions:
REMARK  status: ('A' for Active; 'I' for Inactive)
REMARK    1  A    between atoms: C_2  and  C_3
REMARK    2  A    between atoms: C_2  and  C_18
REMARK    3  A    between atoms: C_6  and  O_7
REMARK    4  A    between atoms: O_7  and  C_8
REMARK    5  A    between atoms: C_8  and  C_9
REMARK    6  A    between atoms: C_9  and  N_10
REMARK    7  A    between atoms: C_19  and  C_20
REMARK                            x       y       z     vdW  Elec       q    Type
REMARK                         _______ _______ _______ _____ _____    ______ ____
ROOT
ATOM      1  C   UNL     1      37.409   0.315  15.148  0.00  0.00    +0.000 A 
ATOM      2  C   UNL     1      36.657  -0.390  16.052  0.00  0.00    +0.000 A 
ATOM      3  S   UNL     1      36.134   0.825  17.132  0.00  0.00    +0.000 S 
ATOM      4  C   UNL     1      36.877   2.183  16.415  0.00  0.00    +0.000 A 
ATOM      5  C   UNL     1      36.931   3.557  16.711  0.00  0.00    +0.000 A 
ATOM      6  C   UNL     1      37.650   4.432  15.909  0.00  0.00    +0.000 A 
ATOM      7  O   UNL     1      37.750   5.785  16.131  0.00  0.00    +0.000 OA
ATOM      8  C   UNL     1      38.294   3.880  14.832  0.00  0.00    +0.000 A 
ATOM      9  C   UNL     1      38.248   2.562  14.538  0.00  0.00    +0.000 A 
ATOM     10  C   UNL     1      37.523   1.645  15.337  0.00  0.00    +0.000 A 
ENDROOT
BRANCH   2  11
ATOM     11  C   UNL     1      36.371  -1.832  16.077  0.00  0.00    +0.000 A 
ATOM     12  C   UNL     1      37.282  -2.642  16.732  0.00  0.00    +0.000 A 
ATOM     13  C   UNL     1      37.106  -4.012  16.787  0.00  0.00    +0.000 A 
ATOM     14  C   UNL     1      35.996  -4.540  16.169  0.00  0.00    +0.000 A 
ATOM     15  C   UNL     1      35.840  -5.916  16.237  0.00  0.00    +0.000 A 
ATOM     16  C   UNL     1      34.761  -6.500  15.645  0.00  0.00    +0.000 A 
ATOM     17  C   UNL     1      33.838  -5.682  14.980  0.00  0.00    +0.000 A 
ATOM     18  C   UNL     1      33.972  -4.324  14.901  0.00  0.00    +0.000 A 
ATOM     19  C   UNL     1      35.065  -3.744  15.502  0.00  0.00    +0.000 A 
ATOM     20  C   UNL     1      35.295  -2.391  15.483  0.00  0.00    +0.000 A 
ENDBRANCH   2  11
BRANCH   1  22
ATOM     21  O   UNL     1      37.331  -0.667  12.981  0.00  0.00    +0.000 OA
ATOM     22  C   UNL     1      38.033  -0.411  14.002  0.00  0.00    +0.000 C 
BRANCH  22  23
ATOM     23  C   UNL     1      39.412  -0.838  14.003  0.00  0.00    +0.000 A 
ATOM     24  C   UNL     1      40.500   0.041  13.963  0.00  0.00    +0.000 A 
ATOM     25  C   UNL     1      41.793  -0.470  13.968  0.00  0.00    +0.000 A 
ATOM     26  C   UNL     1      42.075  -1.799  14.011  0.00  0.00    +0.000 A 
ATOM     27  C   UNL     1      40.990  -2.688  14.050  0.00  0.00    +0.000 A 
ATOM     28  C   UNL     1      39.713  -2.177  14.046  0.00  0.00    +0.000 A 
BRANCH  26  29
ATOM     29  O   UNL     1      43.378  -2.314  14.016  0.00  0.00    +0.000 OA
BRANCH  29  30
ATOM     30  C   UNL     1      43.826  -3.091  12.902  0.00  0.00    +0.000 C 
BRANCH  30  31
ATOM     31  C   UNL     1      43.982  -2.152  11.718  0.00  0.00    +0.000 C 
BRANCH  31  32
ATOM     32  N   UNL     1      43.354  -2.692  10.524  0.00  0.00    +0.000 NA
ATOM     33  C   UNL     1      42.744  -1.622   9.736  0.00  0.00    +0.000 C 
ATOM     34  C   UNL     1      41.509  -1.077  10.419  0.00  0.00    +0.000 C 
ATOM     35  C   UNL     1      40.430  -2.132  10.376  0.00  0.00    +0.000 C 
ATOM     36  C   UNL     1      41.066  -3.457  10.085  0.00  0.00    +0.000 C 
ATOM     37  C   UNL     1      42.353  -3.704  10.847  0.00  0.00    +0.000 C 
ENDBRANCH  31  32
ENDBRANCH  30  31
ENDBRANCH  29  30
ENDBRANCH  26  29
ENDBRANCH  22  23
ENDBRANCH   1  22
TORSDOF 7
ENDMDL
