MODEL 1
REMARK VINA RESULT:      -8.5      0.000      0.000
REMARK  Name = 
REMARK  8 active torsions:
REMARK  status: ('A' for Active; 'I' for Inactive)
REMARK    1  A    between atoms: C_2  and  O_3
REMARK    2  A    between atoms: O_3  and  C_4
REMARK    3  A    between atoms: C_7  and  N_8
REMARK    4  A    between atoms: C_11  and  N_12
REMARK    5  A    between atoms: N_12  and  C_13
REMARK    6  A    between atoms: C_18  and  C_19
REMARK    7  A    between atoms: C_21  and  S_22
REMARK    8  A    between atoms: S_22  and  C_23
REMARK                            x       y       z     vdW  Elec       q    Type
REMARK                         _______ _______ _______ _____ _____    ______ ____
ROOT
ATOM      1  N   UNL     1      36.587   1.887  15.136  0.00  0.00    +0.000 N 
ATOM      2  C   UNL     1      35.646   2.929  14.794  0.00  0.00    +0.000 C 
ATOM      3  O   UNL     1      34.410   2.711  14.675  0.00  0.00    +0.000 OA
ATOM      4  C   UNL     1      36.369   4.185  14.632  0.00  0.00    +0.000 C 
ATOM      5  C   UNL     1      37.685   3.960  14.854  0.00  0.00    +0.000 C 
ATOM      6  C   UNL     1      37.836   2.560  15.165  0.00  0.00    +0.000 C 
ATOM      7  O   UNL     1      38.965   2.035  15.425  0.00  0.00    +0.000 OA
ENDROOT
BRANCH   1  11
ATOM      8  C   UNL     1      35.607  -2.089  16.016  0.00  0.00    +0.000 A 
ATOM      9  C   UNL     1      35.210  -1.056  16.834  0.00  0.00    +0.000 A 
ATOM     10  C   UNL     1      35.556   0.218  16.505  0.00  0.00    +0.000 A 
ATOM     11  C   UNL     1      36.293   0.521  15.378  0.00  0.00    +0.000 A 
ATOM     12  C   UNL     1      36.689  -0.508  14.563  0.00  0.00    +0.000 A 
ATOM     13  C   UNL     1      36.336  -1.794  14.901  0.00  0.00    +0.000 A 
BRANCH   8  14
ATOM     14  O   UNL     1      35.281  -3.419  16.298  0.00  0.00    +0.000 OA
BRANCH  14  16
ATOM     15  C   UNL     1      33.508  -4.364  14.975  0.00  0.00    +0.000 C 
ATOM     16  C   UNL     1      35.005  -4.266  15.197  0.00  0.00    +0.000 C 
ENDBRANCH  14  16
ENDBRANCH   8  14
ENDBRANCH   1  11
BRANCH   4  17
ATOM     17  N   UNL     1      35.867   5.463  14.303  0.00  0.00    +0.000 NA
BRANCH  17  18
ATOM     18  C   UNL     1      35.448   5.973  13.083  0.00  0.00    +0.000 A 
ATOM     19  C   UNL     1      36.007   5.641  11.880  0.00  0.00    +0.000 A 
ATOM     20  C   UNL     1      35.592   6.151  10.689  0.00  0.00    +0.000 A 
ATOM     21  C   UNL     1      34.559   7.050  10.647  0.00  0.00    +0.000 A 
ATOM     22  C   UNL     1      33.970   7.409  11.836  0.00  0.00    +0.000 A 
ATOM     23  C   UNL     1      34.391   6.891  13.040  0.00  0.00    +0.000 A 
BRANCH  23  24
ATOM     24  C   UNL     1      33.711   7.317  14.275  0.00  0.00    +0.000 C 
ATOM     25  C   UNL     1      34.087   8.709  14.690  0.00  0.00    +0.000 C 
ENDBRANCH  23  24
ENDBRANCH  17  18
ENDBRANCH   4  17
BRANCH   5  26
ATOM     26  S   UNL     1      38.958   5.228  14.763  0.00  0.00    +0.000 S 
BRANCH  26  27
ATOM     27  C   UNL     1      39.547   5.582  16.386  0.00  0.00    +0.000 A 
ATOM     28  C   UNL     1      38.833   5.306  17.529  0.00  0.00    +0.000 A 
ATOM     29  C   UNL     1      39.316   5.592  18.802  0.00  0.00    +0.000 A 
ATOM     30  C   UNL     1      40.555   6.173  18.944  0.00  0.00    +0.000 A 
ATOM     31  C   UNL     1      41.132   6.507  20.289  0.00  0.00    +0.000 C 
ATOM     32  C   UNL     1      41.287   6.457  17.806  0.00  0.00    +0.000 A 
ATOM     33  C   UNL     1      40.805   6.173  16.550  0.00  0.00    +0.000 A 
ENDBRANCH  26  27
ENDBRANCH   5  26
TORSDOF 8
ENDMDL
MODEL 2
REMARK VINA RESULT:      -8.2      2.195      5.721
REMARK  Name = 
REMARK  8 active torsions:
REMARK  status: ('A' for Active; 'I' for Inactive)
REMARK    1  A    between atoms: C_2  and  O_3
REMARK    2  A    between atoms: O_3  and  C_4
REMARK    3  A    between atoms: C_7  and  N_8
REMARK    4  A    between atoms: C_11  and  N_12
REMARK    5  A    between atoms: N_12  and  C_13
REMARK    6  A    between atoms: C_18  and  C_19
REMARK    7  A    between atoms: C_21  and  S_22
REMARK    8  A    between atoms: S_22  and  C_23
REMARK                            x       y       z     vdW  Elec       q    Type
REMARK                         _______ _______ _______ _____ _____    ______ ____
ROOT
ATOM      1  N   UNL     1      37.062   3.517  15.876  0.00  0.00    +0.000 N 
ATOM      2  C   UNL     1      37.796   4.252  16.882  0.00  0.00    +0.000 C 
ATOM      3  O   UNL     1      38.093   3.754  18.000  0.00  0.00    +0.000 OA
ATOM      4  C   UNL     1      38.096   5.583  16.369  0.00  0.00    +0.000 C 
ATOM      5  C   UNL     1      37.587   5.693  15.119  0.00  0.00    +0.000 C 
ATOM      6  C   UNL     1      36.952   4.438  14.801  0.00  0.00    +0.000 C 
ATOM      7  O   UNL     1      36.377   4.225  13.688  0.00  0.00    +0.000 OA
ENDROOT
BRANCH   1  11
ATOM      8  C   UNL     1      35.469  -0.335  16.275  0.00  0.00    +0.000 A 
ATOM      9  C   UNL     1      34.846   0.758  16.831  0.00  0.00    +0.000 A 
ATOM     10  C   UNL     1      35.405   1.988  16.675  0.00  0.00    +0.000 A 
ATOM     11  C   UNL     1      36.580   2.188  15.977  0.00  0.00    +0.000 A 
ATOM     12  C   UNL     1      37.201   1.098  15.423  0.00  0.00    +0.000 A 
ATOM     13  C   UNL     1      36.630  -0.143  15.584  0.00  0.00    +0.000 A 
BRANCH   8  14
ATOM     14  O   UNL     1      34.943  -1.625  16.399  0.00  0.00    +0.000 OA
BRANCH  14  16
ATOM     15  C   UNL     1      34.432  -3.746  15.384  0.00  0.00    +0.000 C 
ATOM     16  C   UNL     1      35.431  -2.612  15.507  0.00  0.00    +0.000 C 
ENDBRANCH  14  16
ENDBRANCH   8  14
ENDBRANCH   1  11
BRANCH   4  17
ATOM     17  N   UNL     1      38.793   6.641  16.995  0.00  0.00    +0.000 NA
BRANCH  17  18
ATOM     18  C   UNL     1      38.510   7.330  18.165  0.00  0.00    +0.000 A 
ATOM     19  C   UNL     1      37.507   8.250  18.289  0.00  0.00    +0.000 A 
ATOM     20  C   UNL     1      37.240   8.925  19.440  0.00  0.00    +0.000 A 
ATOM     21  C   UNL     1      37.995   8.699  20.562  0.00  0.00    +0.000 A 
ATOM     22  C   UNL     1      39.013   7.780  20.477  0.00  0.00    +0.000 A 
ATOM     23  C   UNL     1      39.281   7.097  19.311  0.00  0.00    +0.000 A 
BRANCH  23  24
ATOM     24  C   UNL     1      40.385   6.123  19.294  0.00  0.00    +0.000 C 
ATOM     25  C   UNL     1      41.468   6.462  20.276  0.00  0.00    +0.000 C 
ENDBRANCH  23  24
ENDBRANCH  17  18
ENDBRANCH   4  17
BRANCH   5  26
ATOM     26  S   UNL     1      37.721   7.168  14.098  0.00  0.00    +0.000 S 
BRANCH  26  27
ATOM     27  C   UNL     1      36.616   8.400  14.704  0.00  0.00    +0.000 A 
ATOM     28  C   UNL     1      37.020   9.658  15.088  0.00  0.00    +0.000 A 
ATOM     29  C   UNL     1      36.132  10.618  15.562  0.00  0.00    +0.000 A 
ATOM     30  C   UNL     1      34.793  10.317  15.659  0.00  0.00    +0.000 A 
ATOM     31  C   UNL     1      33.785  11.308  16.165  0.00  0.00    +0.000 C 
ATOM     32  C   UNL     1      34.368   9.058  15.278  0.00  0.00    +0.000 A 
ATOM     33  C   UNL     1      35.250   8.112  14.810  0.00  0.00    +0.000 A 
ENDBRANCH  26  27
ENDBRANCH   5  26
TORSDOF 8
ENDMDL
MODEL 3
REMARK VINA RESULT:      -8.1      2.217      7.068
REMARK  Name = 
REMARK  8 active torsions:
REMARK  status: ('A' for Active; 'I' for Inactive)
REMARK    1  A    between atoms: C_2  and  O_3
REMARK    2  A    between atoms: O_3  and  C_4
REMARK    3  A    between atoms: C_7  and  N_8
REMARK    4  A    between atoms: C_11  and  N_12
REMARK    5  A    between atoms: N_12  and  C_13
REMARK    6  A    between atoms: C_18  and  C_19
REMARK    7  A    between atoms: C_21  and  S_22
REMARK    8  A    between atoms: S_22  and  C_23
REMARK                            x       y       z     vdW  Elec       q    Type
REMARK                         _______ _______ _______ _____ _____    ______ ____
ROOT
ATOM      1  N   UNL     1      36.213   5.254  14.099  0.00  0.00    +0.000 N 
ATOM      2  C   UNL     1      35.859   4.011  14.747  0.00  0.00    +0.000 C 
ATOM      3  O   UNL     1      34.858   3.330  14.399  0.00  0.00    +0.000 OA
ATOM      4  C   UNL     1      36.827   3.734  15.801  0.00  0.00    +0.000 C 
ATOM      5  C   UNL     1      37.739   4.735  15.826  0.00  0.00    +0.000 C 
ATOM      6  C   UNL     1      37.380   5.672  14.791  0.00  0.00    +0.000 C 
ATOM      7  O   UNL     1      38.050   6.728  14.562  0.00  0.00    +0.000 OA
ENDROOT
BRANCH   1  11
ATOM      8  C   UNL     1      34.333   7.018  10.799  0.00  0.00    +0.000 A 
ATOM      9  C   UNL     1      35.497   6.298  10.659  0.00  0.00    +0.000 A 
ATOM     10  C   UNL     1      36.069   5.746  11.763  0.00  0.00    +0.000 A 
ATOM     11  C   UNL     1      35.529   5.879  13.027  0.00  0.00    +0.000 A 
ATOM     12  C   UNL     1      34.369   6.598  13.166  0.00  0.00    +0.000 A 
ATOM     13  C   UNL     1      33.795   7.153  12.046  0.00  0.00    +0.000 A 
BRANCH   8  14
ATOM     14  O   UNL     1      33.695   7.608   9.703  0.00  0.00    +0.000 OA
BRANCH  14  16
ATOM     15  C   UNL     1      33.280   6.431   7.646  0.00  0.00    +0.000 C 
ATOM     16  C   UNL     1      34.225   7.330   8.419  0.00  0.00    +0.000 C 
ENDBRANCH  14  16
ENDBRANCH   8  14
ENDBRANCH   1  11
BRANCH   4  17
ATOM     17  N   UNL     1      36.885   2.638  16.689  0.00  0.00    +0.000 NA
BRANCH  17  18
ATOM     18  C   UNL     1      36.302   1.383  16.600  0.00  0.00    +0.000 A 
ATOM     19  C   UNL     1      35.184   1.005  17.290  0.00  0.00    +0.000 A 
ATOM     20  C   UNL     1      34.622  -0.231  17.199  0.00  0.00    +0.000 A 
ATOM     21  C   UNL     1      35.177  -1.181  16.381  0.00  0.00    +0.000 A 
ATOM     22  C   UNL     1      36.302  -0.839  15.669  0.00  0.00    +0.000 A 
ATOM     23  C   UNL     1      36.869   0.413  15.763  0.00  0.00    +0.000 A 
BRANCH  23  24
ATOM     24  C   UNL     1      38.072   0.711  14.968  0.00  0.00    +0.000 C 
ATOM     25  C   UNL     1      37.764   0.931  13.516  0.00  0.00    +0.000 C 
ENDBRANCH  23  24
ENDBRANCH  17  18
ENDBRANCH   4  17
BRANCH   5  26
ATOM     26  S   UNL     1      39.125   4.811  16.971  0.00  0.00    +0.000 S 
BRANCH  26  27
ATOM     27  C   UNL     1      38.860   6.119  18.123  0.00  0.00    +0.000 A 
ATOM     28  C   UNL     1      37.909   7.098  17.952  0.00  0.00    +0.000 A 
ATOM     29  C   UNL     1      37.714   8.122  18.874  0.00  0.00    +0.000 A 
ATOM     30  C   UNL     1      38.493   8.174  20.007  0.00  0.00    +0.000 A 
ATOM     31  C   UNL     1      38.334   9.253  21.039  0.00  0.00    +0.000 C 
ATOM     32  C   UNL     1      39.454   7.198  20.195  0.00  0.00    +0.000 A 
ATOM     33  C   UNL     1      39.643   6.188  19.281  0.00  0.00    +0.000 A 
ENDBRANCH  26  27
ENDBRANCH   5  26
TORSDOF 8
ENDMDL
MODEL 4
REMARK VINA RESULT:      -7.9      2.142      5.752
REMARK  Name = 
REMARK  8 active torsions:
REMARK  status: ('A' for Active; 'I' for Inactive)
REMARK    1  A    between atoms: C_2  and  O_3
REMARK    2  A    between atoms: O_3  and  C_4
REMARK    3  A    between atoms: C_7  and  N_8
REMARK    4  A    between atoms: C_11  and  N_12
REMARK    5  A    between atoms: N_12  and  C_13
REMARK    6  A    between atoms: C_18  and  C_19
REMARK    7  A    between atoms: C_21  and  S_22
REMARK    8  A    between atoms: S_22  and  C_23
REMARK                            x       y       z     vdW  Elec       q    Type
REMARK                         _______ _______ _______ _____ _____    ______ ____
ROOT
ATOM      1  N   UNL     1      36.778   3.593  15.844  0.00  0.00    +0.000 N 
ATOM      2  C   UNL     1      37.702   4.297  16.703  0.00  0.00    +0.000 C 
ATOM      3  O   UNL     1      38.219   3.763  17.721  0.00  0.00    +0.000 OA
ATOM      4  C   UNL     1      37.896   5.645  16.184  0.00  0.00    +0.000 C 
ATOM      5  C   UNL     1      37.145   5.794  15.068  0.00  0.00    +0.000 C 
ATOM      6  C   UNL     1      36.455   4.547  14.845  0.00  0.00    +0.000 C 
ATOM      7  O   UNL     1      35.664   4.369  13.864  0.00  0.00    +0.000 OA
ENDROOT
BRANCH   1  11
ATOM      8  C   UNL     1      35.588  -0.409  16.176  0.00  0.00    +0.000 A 
ATOM      9  C   UNL     1      36.646  -0.041  15.377  0.00  0.00    +0.000 A 
ATOM     10  C   UNL     1      36.991   1.273  15.302  0.00  0.00    +0.000 A 
ATOM     11  C   UNL     1      36.321   2.259  15.997  0.00  0.00    +0.000 A 
ATOM     12  C   UNL     1      35.266   1.892  16.794  0.00  0.00    +0.000 A 
ATOM     13  C   UNL     1      34.922   0.562  16.866  0.00  0.00    +0.000 A 
BRANCH   8  14
ATOM     14  O   UNL     1      35.186  -1.743  16.297  0.00  0.00    +0.000 OA
BRANCH  14  16
ATOM     15  C   UNL     1      36.709  -2.486  18.004  0.00  0.00    +0.000 C 
ATOM     16  C   UNL     1      36.189  -2.697  16.596  0.00  0.00    +0.000 C 
ENDBRANCH  14  16
ENDBRANCH   8  14
ENDBRANCH   1  11
BRANCH   4  17
ATOM     17  N   UNL     1      38.709   6.684  16.690  0.00  0.00    +0.000 NA
BRANCH  17  18
ATOM     18  C   UNL     1      39.476   6.738  17.844  0.00  0.00    +0.000 A 
ATOM     19  C   UNL     1      40.744   6.237  17.947  0.00  0.00    +0.000 A 
ATOM     20  C   UNL     1      41.486   6.291  19.086  0.00  0.00    +0.000 A 
ATOM     21  C   UNL     1      40.972   6.871  20.217  0.00  0.00    +0.000 A 
ATOM     22  C   UNL     1      39.700   7.387  20.153  0.00  0.00    +0.000 A 
ATOM     23  C   UNL     1      38.950   7.332  18.999  0.00  0.00    +0.000 A 
BRANCH  23  24
ATOM     24  C   UNL     1      37.596   7.909  19.002  0.00  0.00    +0.000 C 
ATOM     25  C   UNL     1      37.416   8.953  20.066  0.00  0.00    +0.000 C 
ENDBRANCH  23  24
ENDBRANCH  17  18
ENDBRANCH   4  17
BRANCH   5  26
ATOM     26  S   UNL     1      37.073   7.301  14.090  0.00  0.00    +0.000 S 
BRANCH  26  27
ATOM     27  C   UNL     1      36.003   8.460  14.879  0.00  0.00    +0.000 A 
ATOM     28  C   UNL     1      34.645   8.505  14.665  0.00  0.00    +0.000 A 
ATOM     29  C   UNL     1      33.817   9.427  15.298  0.00  0.00    +0.000 A 
ATOM     30  C   UNL     1      34.359  10.336  16.178  0.00  0.00    +0.000 A 
ATOM     31  C   UNL     1      33.521  11.356  16.892  0.00  0.00    +0.000 C 
ATOM     32  C   UNL     1      35.723  10.305  16.405  0.00  0.00    +0.000 A 
ATOM     33  C   UNL     1      36.537   9.392  15.776  0.00  0.00    +0.000 A 
ENDBRANCH  26  27
ENDBRANCH   5  26
TORSDOF 8
ENDMDL
MODEL 5
REMARK VINA RESULT:      -7.9      3.592      8.729
REMARK  Name = 
REMARK  8 active torsions:
REMARK  status: ('A' for Active; 'I' for Inactive)
REMARK    1  A    between atoms: C_2  and  O_3
REMARK    2  A    between atoms: O_3  and  C_4
REMARK    3  A    between atoms: C_7  and  N_8
REMARK    4  A    between atoms: C_11  and  N_12
REMARK    5  A    between atoms: N_12  and  C_13
REMARK    6  A    between atoms: C_18  and  C_19
REMARK    7  A    between atoms: C_21  and  S_22
REMARK    8  A    between atoms: S_22  and  C_23
REMARK                            x       y       z     vdW  Elec       q    Type
REMARK                         _______ _______ _______ _____ _____    ______ ____
ROOT
ATOM      1  N   UNL     1      38.235   3.913  16.046  0.00  0.00    +0.000 N 
ATOM      2  C   UNL     1      39.046   3.367  14.981  0.00  0.00    +0.000 C 
ATOM      3  O   UNL     1      40.135   3.891  14.625  0.00  0.00    +0.000 OA
ATOM      4  C   UNL     1      38.391   2.177  14.451  0.00  0.00    +0.000 C 
ATOM      5  C   UNL     1      37.237   1.977  15.131  0.00  0.00    +0.000 C 
ATOM      6  C   UNL     1      37.126   3.029  16.111  0.00  0.00    +0.000 C 
ATOM      7  O   UNL     1      36.143   3.117  16.912  0.00  0.00    +0.000 OA
ENDROOT
BRANCH   1  11
ATOM      8  C   UNL     1      39.123   7.197  18.489  0.00  0.00    +0.000 A 
ATOM      9  C   UNL     1      39.258   5.906  18.947  0.00  0.00    +0.000 A 
ATOM     10  C   UNL     1      38.955   4.874  18.115  0.00  0.00    +0.000 A 
ATOM     11  C   UNL     1      38.514   5.067  16.821  0.00  0.00    +0.000 A 
ATOM     12  C   UNL     1      38.379   6.354  16.364  0.00  0.00    +0.000 A 
ATOM     13  C   UNL     1      38.688   7.393  17.211  0.00  0.00    +0.000 A 
BRANCH   8  14
ATOM     14  O   UNL     1      39.421   8.299  19.296  0.00  0.00    +0.000 OA
BRANCH  14  16
ATOM     15  C   UNL     1      37.766   9.511  20.553  0.00  0.00    +0.000 C 
ATOM     16  C   UNL     1      38.771   8.377  20.552  0.00  0.00    +0.000 C 
ENDBRANCH  14  16
ENDBRANCH   8  14
ENDBRANCH   1  11
BRANCH   4  17
ATOM     17  N   UNL     1      38.813   1.319  13.412  0.00  0.00    +0.000 NA
BRANCH  17  18
ATOM     18  C   UNL     1      39.482   0.106  13.470  0.00  0.00    +0.000 A 
ATOM     19  C   UNL     1      40.152  -0.349  14.572  0.00  0.00    +0.000 A 
ATOM     20  C   UNL     1      40.809  -1.539  14.617  0.00  0.00    +0.000 A 
ATOM     21  C   UNL     1      40.827  -2.359  13.519  0.00  0.00    +0.000 A 
ATOM     22  C   UNL     1      40.164  -1.937  12.391  0.00  0.00    +0.000 A 
ATOM     23  C   UNL     1      39.499  -0.732  12.347  0.00  0.00    +0.000 A 
BRANCH  23  24
ATOM     24  C   UNL     1      38.806  -0.346  11.107  0.00  0.00    +0.000 C 
ATOM     25  C   UNL     1      39.746   0.185  10.063  0.00  0.00    +0.000 C 
ENDBRANCH  23  24
ENDBRANCH  17  18
ENDBRANCH   4  17
BRANCH   5  26
ATOM     26  S   UNL     1      36.099   0.620  14.815  0.00  0.00    +0.000 S 
BRANCH  26  27
ATOM     27  C   UNL     1      36.770  -0.870  15.475  0.00  0.00    +0.000 A 
ATOM     28  C   UNL     1      37.264  -0.978  16.755  0.00  0.00    +0.000 A 
ATOM     29  C   UNL     1      37.788  -2.165  17.258  0.00  0.00    +0.000 A 
ATOM     30  C   UNL     1      37.823  -3.286  16.460  0.00  0.00    +0.000 A 
ATOM     31  C   UNL     1      38.376  -4.594  16.943  0.00  0.00    +0.000 C 
ATOM     32  C   UNL     1      37.330  -3.196  15.171  0.00  0.00    +0.000 A 
ATOM     33  C   UNL     1      36.813  -2.021  14.678  0.00  0.00    +0.000 A 
ENDBRANCH  26  27
ENDBRANCH   5  26
TORSDOF 8
ENDMDL
MODEL 6
REMARK VINA RESULT:      -7.8      3.468      8.556
REMARK  Name = 
REMARK  8 active torsions:
REMARK  status: ('A' for Active; 'I' for Inactive)
REMARK    1  A    between atoms: C_2  and  O_3
REMARK    2  A    between atoms: O_3  and  C_4
REMARK    3  A    between atoms: C_7  and  N_8
REMARK    4  A    between atoms: C_11  and  N_12
REMARK    5  A    between atoms: N_12  and  C_13
REMARK    6  A    between atoms: C_18  and  C_19
REMARK    7  A    between atoms: C_21  and  S_22
REMARK    8  A    between atoms: S_22  and  C_23
REMARK                            x       y       z     vdW  Elec       q    Type
REMARK                         _______ _______ _______ _____ _____    ______ ____
ROOT
ATOM      1  N   UNL     1      38.357   4.347  16.162  0.00  0.00    +0.000 N 
ATOM      2  C   UNL     1      37.522   3.181  16.339  0.00  0.00    +0.000 C 
ATOM      3  O   UNL     1      36.851   2.983  17.387  0.00  0.00    +0.000 OA
ATOM      4  C   UNL     1      37.613   2.350  15.144  0.00  0.00    +0.000 C 
ATOM      5  C   UNL     1      38.451   2.945  14.263  0.00  0.00    +0.000 C 
ATOM      6  C   UNL     1      38.914   4.169  14.869  0.00  0.00    +0.000 C 
ATOM      7  O   UNL     1      39.721   4.959  14.285  0.00  0.00    +0.000 OA
ENDROOT
BRANCH   1  11
ATOM      8  C   UNL     1      39.031   7.332  19.022  0.00  0.00    +0.000 A 
ATOM      9  C   UNL     1      39.426   6.031  19.238  0.00  0.00    +0.000 A 
ATOM     10  C   UNL     1      39.182   5.098  18.279  0.00  0.00    +0.000 A 
ATOM     11  C   UNL     1      38.550   5.403  17.089  0.00  0.00    +0.000 A 
ATOM     12  C   UNL     1      38.157   6.699  16.874  0.00  0.00    +0.000 A 
ATOM     13  C   UNL     1      38.407   7.637  17.848  0.00  0.00    +0.000 A 
BRANCH   8  14
ATOM     14  O   UNL     1      39.255   8.336  19.969  0.00  0.00    +0.000 OA
BRANCH  14  16
ATOM     15  C   UNL     1      38.522  10.297  21.153  0.00  0.00    +0.000 C 
ATOM     16  C   UNL     1      38.117   8.990  20.501  0.00  0.00    +0.000 C 
ENDBRANCH  14  16
ENDBRANCH   8  14
ENDBRANCH   1  11
BRANCH   4  17
ATOM     17  N   UNL     1      36.972   1.122  14.865  0.00  0.00    +0.000 NA
BRANCH  17  18
ATOM     18  C   UNL     1      36.428   0.181  15.726  0.00  0.00    +0.000 A 
ATOM     19  C   UNL     1      35.177   0.272  16.270  0.00  0.00    +0.000 A 
ATOM     20  C   UNL     1      34.653  -0.655  17.118  0.00  0.00    +0.000 A 
ATOM     21  C   UNL     1      35.388  -1.756  17.473  0.00  0.00    +0.000 A 
ATOM     22  C   UNL     1      36.652  -1.883  16.947  0.00  0.00    +0.000 A 
ATOM     23  C   UNL     1      37.179  -0.945  16.089  0.00  0.00    +0.000 A 
BRANCH  23  24
ATOM     24  C   UNL     1      38.538  -1.148  15.560  0.00  0.00    +0.000 C 
ATOM     25  C   UNL     1      39.229  -2.326  16.181  0.00  0.00    +0.000 C 
ENDBRANCH  23  24
ENDBRANCH  17  18
ENDBRANCH   4  17
BRANCH   5  26
ATOM     26  S   UNL     1      38.862   2.274  12.646  0.00  0.00    +0.000 S 
BRANCH  26  27
ATOM     27  C   UNL     1      39.877   0.846  12.846  0.00  0.00    +0.000 A 
ATOM     28  C   UNL     1      39.675  -0.330  12.161  0.00  0.00    +0.000 A 
ATOM     29  C   UNL     1      40.489  -1.445  12.332  0.00  0.00    +0.000 A 
ATOM     30  C   UNL     1      41.542  -1.390  13.217  0.00  0.00    +0.000 A 
ATOM     31  C   UNL     1      42.455  -2.559  13.447  0.00  0.00    +0.000 C 
ATOM     32  C   UNL     1      41.760  -0.216  13.913  0.00  0.00    +0.000 A 
ATOM     33  C   UNL     1      40.953   0.884  13.741  0.00  0.00    +0.000 A 
ENDBRANCH  26  27
ENDBRANCH   5  26
TORSDOF 8
ENDMDL
MODEL 7
REMARK VINA RESULT:      -7.7      2.064      7.043
REMARK  Name = 
REMARK  8 active torsions:
REMARK  status: ('A' for Active; 'I' for Inactive)
REMARK    1  A    between atoms: C_2  and  O_3
REMARK    2  A    between atoms: O_3  and  C_4
REMARK    3  A    between atoms: C_7  and  N_8
REMARK    4  A    between atoms: C_11  and  N_12
REMARK    5  A    between atoms: N_12  and  C_13
REMARK    6  A    between atoms: C_18  and  C_19
REMARK    7  A    between atoms: C_21  and  S_22
REMARK    8  A    between atoms: S_22  and  C_23
REMARK                            x       y       z     vdW  Elec       q    Type
REMARK                         _______ _______ _______ _____ _____    ______ ____
ROOT
ATOM      1  N   UNL     1      38.345   4.983  15.898  0.00  0.00    +0.000 N 
ATOM      2  C   UNL     1      37.317   5.698  15.177  0.00  0.00    +0.000 C 
ATOM      3  O   UNL     1      37.048   6.908  15.406  0.00  0.00    +0.000 OA
ATOM      4  C   UNL     1      36.707   4.797  14.206  0.00  0.00    +0.000 C 
ATOM      5  C   UNL     1      37.304   3.587  14.302  0.00  0.00    +0.000 C 
ATOM      6  C   UNL     1      38.310   3.682  15.331  0.00  0.00    +0.000 C 
ATOM      7  O   UNL     1      39.050   2.701  15.658  0.00  0.00    +0.000 OA
ENDROOT
BRANCH   1  11
ATOM      8  C   UNL     1      40.930   6.558  18.792  0.00  0.00    +0.000 A 
ATOM      9  C   UNL     1      41.262   6.565  17.457  0.00  0.00    +0.000 A 
ATOM     10  C   UNL     1      40.388   6.040  16.556  0.00  0.00    +0.000 A 
ATOM     11  C   UNL     1      39.175   5.495  16.927  0.00  0.00    +0.000 A 
ATOM     12  C   UNL     1      38.845   5.487  18.259  0.00  0.00    +0.000 A 
ATOM     13  C   UNL     1      39.733   6.021  19.164  0.00  0.00    +0.000 A 
BRANCH   8  14
ATOM     14  O   UNL     1      41.785   7.085  19.766  0.00  0.00    +0.000 OA
BRANCH  14  16
ATOM     15  C   UNL     1      43.350   6.039  21.264  0.00  0.00    +0.000 C 
ATOM     16  C   UNL     1      43.085   6.530  19.855  0.00  0.00    +0.000 C 
ENDBRANCH  14  16
ENDBRANCH   8  14
ENDBRANCH   1  11
BRANCH   4  17
ATOM     17  N   UNL     1      35.668   5.056  13.285  0.00  0.00    +0.000 NA
BRANCH  17  18
ATOM     18  C   UNL     1      35.555   6.045  12.319  0.00  0.00    +0.000 A 
ATOM     19  C   UNL     1      36.422   6.200  11.274  0.00  0.00    +0.000 A 
ATOM     20  C   UNL     1      36.304   7.177  10.335  0.00  0.00    +0.000 A 
ATOM     21  C   UNL     1      35.273   8.078  10.402  0.00  0.00    +0.000 A 
ATOM     22  C   UNL     1      34.379   7.954  11.439  0.00  0.00    +0.000 A 
ATOM     23  C   UNL     1      34.499   6.964  12.389  0.00  0.00    +0.000 A 
BRANCH  23  24
ATOM     24  C   UNL     1      33.502   6.889  13.470  0.00  0.00    +0.000 C 
ATOM     25  C   UNL     1      33.768   7.876  14.569  0.00  0.00    +0.000 C 
ENDBRANCH  23  24
ENDBRANCH  17  18
ENDBRANCH   4  17
BRANCH   5  26
ATOM     26  S   UNL     1      36.872   2.162  13.291  0.00  0.00    +0.000 S 
BRANCH  26  27
ATOM     27  C   UNL     1      36.414   0.820  14.339  0.00  0.00    +0.000 A 
ATOM     28  C   UNL     1      35.639   0.968  15.466  0.00  0.00    +0.000 A 
ATOM     29  C   UNL     1      35.287  -0.104  16.279  0.00  0.00    +0.000 A 
ATOM     30  C   UNL     1      35.721  -1.371  15.961  0.00  0.00    +0.000 A 
ATOM     31  C   UNL     1      35.377  -2.568  16.797  0.00  0.00    +0.000 C 
ATOM     32  C   UNL     1      36.500  -1.538  14.831  0.00  0.00    +0.000 A 
ATOM     33  C   UNL     1      36.846  -0.475  14.030  0.00  0.00    +0.000 A 
ENDBRANCH  26  27
ENDBRANCH   5  26
TORSDOF 8
ENDMDL
MODEL 8
REMARK VINA RESULT:      -7.6      2.382      8.130
REMARK  Name = 
REMARK  8 active torsions:
REMARK  status: ('A' for Active; 'I' for Inactive)
REMARK    1  A    between atoms: C_2  and  O_3
REMARK    2  A    between atoms: O_3  and  C_4
REMARK    3  A    between atoms: C_7  and  N_8
REMARK    4  A    between atoms: C_11  and  N_12
REMARK    5  A    between atoms: N_12  and  C_13
REMARK    6  A    between atoms: C_18  and  C_19
REMARK    7  A    between atoms: C_21  and  S_22
REMARK    8  A    between atoms: S_22  and  C_23
REMARK                            x       y       z     vdW  Elec       q    Type
REMARK                         _______ _______ _______ _____ _____    ______ ____
ROOT
ATOM      1  N   UNL     1      38.427   5.491  16.598  0.00  0.00    +0.000 N 
ATOM      2  C   UNL     1      37.651   4.273  16.638  0.00  0.00    +0.000 C 
ATOM      3  O   UNL     1      37.804   3.403  17.536  0.00  0.00    +0.000 OA
ATOM      4  C   UNL     1      36.727   4.264  15.510  0.00  0.00    +0.000 C 
ATOM      5  C   UNL     1      36.902   5.401  14.797  0.00  0.00    +0.000 C 
ATOM      6  C   UNL     1      37.937   6.164  15.449  0.00  0.00    +0.000 C 
ATOM      7  O   UNL     1      38.332   7.292  15.015  0.00  0.00    +0.000 OA
ENDROOT
BRANCH   1  11
ATOM      8  C   UNL     1      41.265   6.652  19.451  0.00  0.00    +0.000 A 
ATOM      9  C   UNL     1      39.943   6.472  19.788  0.00  0.00    +0.000 A 
ATOM     10  C   UNL     1      39.060   6.097  18.824  0.00  0.00    +0.000 A 
ATOM     11  C   UNL     1      39.436   5.887  17.512  0.00  0.00    +0.000 A 
ATOM     12  C   UNL     1      40.753   6.067  17.176  0.00  0.00    +0.000 A 
ATOM     13  C   UNL     1      41.642   6.446  18.156  0.00  0.00    +0.000 A 
BRANCH   8  14
ATOM     14  O   UNL     1      42.221   7.035  20.397  0.00  0.00    +0.000 OA
BRANCH  14  16
ATOM     15  C   UNL     1      43.701   6.583  22.238  0.00  0.00    +0.000 C 
ATOM     16  C   UNL     1      42.889   6.002  21.098  0.00  0.00    +0.000 C 
ENDBRANCH  14  16
ENDBRANCH   8  14
ENDBRANCH   1  11
BRANCH   4  17
ATOM     17  N   UNL     1      35.777   3.284  15.147  0.00  0.00    +0.000 NA
BRANCH  17  18
ATOM     18  C   UNL     1      35.636   1.973  15.576  0.00  0.00    +0.000 A 
ATOM     19  C   UNL     1      34.860   1.592  16.635  0.00  0.00    +0.000 A 
ATOM     20  C   UNL     1      34.731   0.303  17.052  0.00  0.00    +0.000 A 
ATOM     21  C   UNL     1      35.400  -0.701  16.401  0.00  0.00    +0.000 A 
ATOM     22  C   UNL     1      36.191  -0.358  15.331  0.00  0.00    +0.000 A 
ATOM     23  C   UNL     1      36.319   0.947  14.910  0.00  0.00    +0.000 A 
BRANCH  23  24
ATOM     24  C   UNL     1      37.180   1.241  13.752  0.00  0.00    +0.000 C 
ATOM     25  C   UNL     1      38.634   1.304  14.116  0.00  0.00    +0.000 C 
ENDBRANCH  23  24
ENDBRANCH  17  18
ENDBRANCH   4  17
BRANCH   5  26
ATOM     26  S   UNL     1      35.971   5.819  13.315  0.00  0.00    +0.000 S 
BRANCH  26  27
ATOM     27  C   UNL     1      35.346   7.461  13.461  0.00  0.00    +0.000 A 
ATOM     28  C   UNL     1      35.794   8.513  12.696  0.00  0.00    +0.000 A 
ATOM     29  C   UNL     1      35.286   9.803  12.825  0.00  0.00    +0.000 A 
ATOM     30  C   UNL     1      34.297  10.055  13.748  0.00  0.00    +0.000 A 
ATOM     31  C   UNL     1      33.710  11.423  13.937  0.00  0.00    +0.000 C 
ATOM     32  C   UNL     1      33.835   9.009  14.525  0.00  0.00    +0.000 A 
ATOM     33  C   UNL     1      34.340   7.737  14.394  0.00  0.00    +0.000 A 
ENDBRANCH  26  27
ENDBRANCH   5  26
TORSDOF 8
ENDMDL
MODEL 9
REMARK VINA RESULT:      -7.6      2.469      7.393
REMARK  Name = 
REMARK  8 active torsions:
REMARK  status: ('A' for Active; 'I' for Inactive)
REMARK    1  A    between atoms: C_2  and  O_3
REMARK    2  A    between atoms: O_3  and  C_4
REMARK    3  A    between atoms: C_7  and  N_8
REMARK    4  A    between atoms: C_11  and  N_12
REMARK    5  A    between atoms: N_12  and  C_13
REMARK    6  A    between atoms: C_18  and  C_19
REMARK    7  A    between atoms: C_21  and  S_22
REMARK    8  A    between atoms: S_22  and  C_23
REMARK                            x       y       z     vdW  Elec       q    Type
REMARK                         _______ _______ _______ _____ _____    ______ ____
ROOT
ATOM      1  N   UNL     1      38.642   5.283  16.858  0.00  0.00    +0.000 N 
ATOM      2  C   UNL     1      38.324   5.731  15.521  0.00  0.00    +0.000 C 
ATOM      3  O   UNL     1      38.851   6.754  15.008  0.00  0.00    +0.000 OA
ATOM      4  C   UNL     1      37.345   4.821  14.939  0.00  0.00    +0.000 C 
ATOM      5  C   UNL     1      37.055   3.857  15.844  0.00  0.00    +0.000 C 
ATOM      6  C   UNL     1      37.841   4.124  17.024  0.00  0.00    +0.000 C 
ATOM      7  O   UNL     1      37.791   3.388  18.060  0.00  0.00    +0.000 OA
ENDROOT
BRANCH   1  11
ATOM      8  C   UNL     1      41.165   7.078  19.679  0.00  0.00    +0.000 A 
ATOM      9  C   UNL     1      39.835   6.851  19.950  0.00  0.00    +0.000 A 
ATOM     10  C   UNL     1      39.057   6.267  18.999  0.00  0.00    +0.000 A 
ATOM     11  C   UNL     1      39.548   5.889  17.765  0.00  0.00    +0.000 A 
ATOM     12  C   UNL     1      40.873   6.117  17.494  0.00  0.00    +0.000 A 
ATOM     13  C   UNL     1      41.655   6.708  18.460  0.00  0.00    +0.000 A 
BRANCH   8  14
ATOM     14  O   UNL     1      42.016   7.673  20.615  0.00  0.00    +0.000 OA
BRANCH  14  16
ATOM     15  C   UNL     1      43.458   5.954  21.483  0.00  0.00    +0.000 C 
ATOM     16  C   UNL     1      43.357   7.218  20.652  0.00  0.00    +0.000 C 
ENDBRANCH  14  16
ENDBRANCH   8  14
ENDBRANCH   1  11
BRANCH   4  17
ATOM     17  N   UNL     1      36.747   4.859  13.659  0.00  0.00    +0.000 NA
BRANCH  17  18
ATOM     18  C   UNL     1      35.714   5.649  13.178  0.00  0.00    +0.000 A 
ATOM     19  C   UNL     1      34.650   6.062  13.929  0.00  0.00    +0.000 A 
ATOM     20  C   UNL     1      33.638   6.833  13.446  0.00  0.00    +0.000 A 
ATOM     21  C   UNL     1      33.649   7.242  12.137  0.00  0.00    +0.000 A 
ATOM     22  C   UNL     1      34.704   6.848  11.349  0.00  0.00    +0.000 A 
ATOM     23  C   UNL     1      35.726   6.067  11.841  0.00  0.00    +0.000 A 
BRANCH  23  24
ATOM     24  C   UNL     1      36.827   5.686  10.940  0.00  0.00    +0.000 C 
ATOM     25  C   UNL     1      36.394   4.722   9.875  0.00  0.00    +0.000 C 
ENDBRANCH  23  24
ENDBRANCH  17  18
ENDBRANCH   4  17
BRANCH   5  26
ATOM     26  S   UNL     1      35.893   2.515  15.556  0.00  0.00    +0.000 S 
BRANCH  26  27
ATOM     27  C   UNL     1      36.719   0.972  15.760  0.00  0.00    +0.000 A 
ATOM     28  C   UNL     1      37.794   0.580  14.995  0.00  0.00    +0.000 A 
ATOM     29  C   UNL     1      38.434  -0.642  15.173  0.00  0.00    +0.000 A 
ATOM     30  C   UNL     1      37.990  -1.508  16.147  0.00  0.00    +0.000 A 
ATOM     31  C   UNL     1      38.637  -2.840  16.387  0.00  0.00    +0.000 C 
ATOM     32  C   UNL     1      36.912  -1.131  16.925  0.00  0.00    +0.000 A 
ATOM     33  C   UNL     1      36.282   0.079  16.746  0.00  0.00    +0.000 A 
ENDBRANCH  26  27
ENDBRANCH   5  26
TORSDOF 8
ENDMDL
MODEL 10
REMARK VINA RESULT:      -7.5      3.596      6.545
REMARK  Name = 
REMARK  8 active torsions:
REMARK  status: ('A' for Active; 'I' for Inactive)
REMARK    1  A    between atoms: C_2  and  O_3
REMARK    2  A    between atoms: O_3  and  C_4
REMARK    3  A    between atoms: C_7  and  N_8
REMARK    4  A    between atoms: C_11  and  N_12
REMARK    5  A    between atoms: N_12  and  C_13
REMARK    6  A    between atoms: C_18  and  C_19
REMARK    7  A    between atoms: C_21  and  S_22
REMARK    8  A    between atoms: S_22  and  C_23
REMARK                            x       y       z     vdW  Elec       q    Type
REMARK                         _______ _______ _______ _____ _____    ______ ____
ROOT
ATOM      1  N   UNL     1      36.394  -2.946  15.031  0.00  0.00    +0.000 N 
ATOM      2  C   UNL     1      36.233  -1.702  15.750  0.00  0.00    +0.000 C 
ATOM      3  O   UNL     1      35.375  -1.555  16.661  0.00  0.00    +0.000 OA
ATOM      4  C   UNL     1      37.195  -0.733  15.240  0.00  0.00    +0.000 C 
ATOM      5  C   UNL     1      37.923  -1.318  14.260  0.00  0.00    +0.000 C 
ATOM      6  C   UNL     1      37.447  -2.672  14.119  0.00  0.00    +0.000 C 
ATOM      7  O   UNL     1      37.935  -3.485  13.272  0.00  0.00    +0.000 OA
ENDROOT
BRANCH   1  11
ATOM      8  C   UNL     1      34.064  -6.400  15.452  0.00  0.00    +0.000 A 
ATOM      9  C   UNL     1      33.649  -5.348  14.669  0.00  0.00    +0.000 A 
ATOM     10  C   UNL     1      34.441  -4.247  14.566  0.00  0.00    +0.000 A 
ATOM     11  C   UNL     1      35.653  -4.139  15.220  0.00  0.00    +0.000 A 
ATOM     12  C   UNL     1      36.066  -5.188  16.001  0.00  0.00    +0.000 A 
ATOM     13  C   UNL     1      35.260  -6.299  16.100  0.00  0.00    +0.000 A 
BRANCH   8  14
ATOM     14  O   UNL     1      33.295  -7.559  15.596  0.00  0.00    +0.000 OA
BRANCH  14  16
ATOM     15  C   UNL     1      31.399  -8.795  16.412  0.00  0.00    +0.000 C 
ATOM     16  C   UNL     1      32.143  -7.475  16.417  0.00  0.00    +0.000 C 
ENDBRANCH  14  16
ENDBRANCH   8  14
ENDBRANCH   1  11
BRANCH   4  17
ATOM     17  N   UNL     1      37.406   0.605  15.640  0.00  0.00    +0.000 NA
BRANCH  17  18
ATOM     18  C   UNL     1      36.736   1.763  15.276  0.00  0.00    +0.000 A 
ATOM     19  C   UNL     1      35.375   1.891  15.264  0.00  0.00    +0.000 A 
ATOM     20  C   UNL     1      34.727   3.031  14.901  0.00  0.00    +0.000 A 
ATOM     21  C   UNL     1      35.441   4.136  14.517  0.00  0.00    +0.000 A 
ATOM     22  C   UNL     1      36.812   4.047  14.516  0.00  0.00    +0.000 A 
ATOM     23  C   UNL     1      37.466   2.893  14.885  0.00  0.00    +0.000 A 
BRANCH  23  24
ATOM     24  C   UNL     1      38.938   2.871  14.864  0.00  0.00    +0.000 C 
ATOM     25  C   UNL     1      39.505   3.396  13.577  0.00  0.00    +0.000 C 
ENDBRANCH  23  24
ENDBRANCH  17  18
ENDBRANCH   4  17
BRANCH   5  26
ATOM     26  S   UNL     1      39.233  -0.494  13.343  0.00  0.00    +0.000 S 
BRANCH  26  27
ATOM     27  C   UNL     1      38.558   0.238  11.889  0.00  0.00    +0.000 A 
ATOM     28  C   UNL     1      39.296   0.493  10.756  0.00  0.00    +0.000 A 
ATOM     29  C   UNL     1      38.744   1.070   9.616  0.00  0.00    +0.000 A 
ATOM     30  C   UNL     1      37.410   1.407   9.603  0.00  0.00    +0.000 A 
ATOM     31  C   UNL     1      36.755   2.033   8.406  0.00  0.00    +0.000 C 
ATOM     32  C   UNL     1      36.653   1.157  10.732  0.00  0.00    +0.000 A 
ATOM     33  C   UNL     1      37.203   0.586  11.856  0.00  0.00    +0.000 A 
ENDBRANCH  26  27
ENDBRANCH   5  26
TORSDOF 8
ENDMDL
