MODEL 1
REMARK VINA RESULT:      -8.0      0.000      0.000
REMARK  Name = 
REMARK  3 active torsions:
REMARK  status: ('A' for Active; 'I' for Inactive)
REMARK    1  A    between atoms: C_2  and  C_13
REMARK    2  A    between atoms: N_3  and  N_4
REMARK    3  A    between atoms: C_5  and  C_6
REMARK                            x       y       z     vdW  Elec       q    Type
REMARK                         _______ _______ _______ _____ _____    ______ ____
ROOT
ATOM      1  O   UNL     1      13.677  12.176  36.330  0.00  0.00    +0.000 OA
ATOM      2  C   UNL     1      14.549  12.748  35.628  0.00  0.00    +0.000 C 
ATOM      3  N   UNL     1      15.915  12.684  35.981  0.00  0.00    +0.000 NA
ENDROOT
BRANCH   2   4
ATOM      4  C   UNL     1      14.104  13.469  34.449  0.00  0.00    +0.000 A 
ATOM      5  N   UNL     1      13.428  14.625  34.380  0.00  0.00    +0.000 NA
ATOM      6  N   UNL     1      13.215  14.944  33.098  0.00  0.00    +0.000 NA
ATOM      7  C   UNL     1      13.749  13.999  32.297  0.00  0.00    +0.000 A 
ATOM      8  C   UNL     1      14.307  13.073  33.154  0.00  0.00    +0.000 A 
ATOM      9  C   UNL     1      14.989  11.881  32.537  0.00  0.00    +0.000 C 
ATOM     10  C   UNL     1      15.907  12.436  31.468  0.00  0.00    +0.000 C 
ATOM     11  C   UNL     1      15.184  13.216  30.420  0.00  0.00    +0.000 C 
ATOM     12  C   UNL     1      13.860  13.757  30.853  0.00  0.00    +0.000 C 
ENDBRANCH   2   4
BRANCH   3  13
ATOM     13  N   UNL     1      16.278  11.961  37.147  0.00  0.00    +0.000 NA
ATOM     14  C   UNL     1      16.903  10.860  37.066  0.00  0.00    +0.000 C 
BRANCH  14  15
ATOM     15  C   UNL     1      17.323  10.038  38.182  0.00  0.00    +0.000 A 
ATOM     16  C   UNL     1      18.444   9.235  38.190  0.00  0.00    +0.000 A 
ATOM     17  C   UNL     1      18.788   8.475  39.291  0.00  0.00    +0.000 A 
ATOM     18  C   UNL     1      17.988   8.510  40.433  0.00  0.00    +0.000 A 
ATOM     19  F   UNL     1      18.298   7.776  41.527  0.00  0.00    +0.000 F 
ATOM     20  C   UNL     1      16.881   9.303  40.422  0.00  0.00    +0.000 A 
ATOM     21  C   UNL     1      16.550  10.053  39.324  0.00  0.00    +0.000 A 
ENDBRANCH  14  15
ENDBRANCH   3  13
TORSDOF 3
ENDMDL
MODEL 2
REMARK VINA RESULT:      -7.1     22.585     25.611
REMARK  Name = 
REMARK  3 active torsions:
REMARK  status: ('A' for Active; 'I' for Inactive)
REMARK    1  A    between atoms: C_2  and  C_13
REMARK    2  A    between atoms: N_3  and  N_4
REMARK    3  A    between atoms: C_5  and  C_6
REMARK                            x       y       z     vdW  Elec       q    Type
REMARK                         _______ _______ _______ _____ _____    ______ ____
ROOT
ATOM      1  O   UNL     1      29.605  24.184  21.133  0.00  0.00    +0.000 OA
ATOM      2  C   UNL     1      28.584  24.843  21.454  0.00  0.00    +0.000 C 
ATOM      3  N   UNL     1      28.526  26.235  21.232  0.00  0.00    +0.000 NA
ENDROOT
BRANCH   2   4
ATOM      4  C   UNL     1      27.475  24.123  22.056  0.00  0.00    +0.000 A 
ATOM      5  N   UNL     1      26.459  23.491  21.451  0.00  0.00    +0.000 NA
ATOM      6  N   UNL     1      25.651  22.956  22.375  0.00  0.00    +0.000 NA
ATOM      7  C   UNL     1      26.123  23.228  23.608  0.00  0.00    +0.000 A 
ATOM      8  C   UNL     1      27.273  23.964  23.401  0.00  0.00    +0.000 A 
ATOM      9  C   UNL     1      28.032  24.419  24.618  0.00  0.00    +0.000 C 
ATOM     10  C   UNL     1      28.176  23.195  25.499  0.00  0.00    +0.000 C 
ATOM     11  C   UNL     1      26.865  22.604  25.901  0.00  0.00    +0.000 C 
ATOM     12  C   UNL     1      25.727  22.943  24.993  0.00  0.00    +0.000 C 
ENDBRANCH   2   4
BRANCH   3  13
ATOM     13  N   UNL     1      29.646  26.873  20.639  0.00  0.00    +0.000 NA
ATOM     14  C   UNL     1      29.502  27.697  19.685  0.00  0.00    +0.000 C 
BRANCH  14  15
ATOM     15  C   UNL     1      30.568  28.404  19.006  0.00  0.00    +0.000 A 
ATOM     16  C   UNL     1      30.892  29.727  19.216  0.00  0.00    +0.000 A 
ATOM     17  C   UNL     1      31.924  30.342  18.532  0.00  0.00    +0.000 A 
ATOM     18  C   UNL     1      32.665  29.616  17.600  0.00  0.00    +0.000 A 
ATOM     19  F   UNL     1      33.680  30.189  16.913  0.00  0.00    +0.000 F 
ATOM     20  C   UNL     1      32.341  28.309  17.394  0.00  0.00    +0.000 A 
ATOM     21  C   UNL     1      31.316  27.710  18.078  0.00  0.00    +0.000 A 
ENDBRANCH  14  15
ENDBRANCH   3  13
TORSDOF 3
ENDMDL
MODEL 3
REMARK VINA RESULT:      -7.0      4.088      5.752
REMARK  Name = 
REMARK  3 active torsions:
REMARK  status: ('A' for Active; 'I' for Inactive)
REMARK    1  A    between atoms: C_2  and  C_13
REMARK    2  A    between atoms: N_3  and  N_4
REMARK    3  A    between atoms: C_5  and  C_6
REMARK                            x       y       z     vdW  Elec       q    Type
REMARK                         _______ _______ _______ _____ _____    ______ ____
ROOT
ATOM      1  O   UNL     1      17.462  10.772  35.768  0.00  0.00    +0.000 OA
ATOM      2  C   UNL     1      17.280  10.759  37.012  0.00  0.00    +0.000 C 
ATOM      3  N   UNL     1      18.362  10.558  37.897  0.00  0.00    +0.000 NA
ENDROOT
BRANCH   2   4
ATOM      4  C   UNL     1      15.927  10.957  37.501  0.00  0.00    +0.000 A 
ATOM      5  N   UNL     1      15.425  10.679  38.713  0.00  0.00    +0.000 NA
ATOM      6  N   UNL     1      14.130  11.015  38.750  0.00  0.00    +0.000 NA
ATOM      7  C   UNL     1      13.755  11.520  37.558  0.00  0.00    +0.000 A 
ATOM      8  C   UNL     1      14.891  11.481  36.775  0.00  0.00    +0.000 A 
ATOM      9  C   UNL     1      14.778  11.990  35.363  0.00  0.00    +0.000 C 
ATOM     10  C   UNL     1      14.085  13.333  35.461  0.00  0.00    +0.000 C 
ATOM     11  C   UNL     1      12.733  13.252  36.089  0.00  0.00    +0.000 C 
ATOM     12  C   UNL     1      12.525  12.055  36.960  0.00  0.00    +0.000 C 
ENDBRANCH   2   4
BRANCH   3  13
ATOM     13  N   UNL     1      19.657  10.372  37.349  0.00  0.00    +0.000 NA
ATOM     14  C   UNL     1      20.680  10.888  37.894  0.00  0.00    +0.000 C 
BRANCH  14  15
ATOM     15  C   UNL     1      22.045  10.766  37.426  0.00  0.00    +0.000 A 
ATOM     16  C   UNL     1      23.079  11.602  37.790  0.00  0.00    +0.000 A 
ATOM     17  C   UNL     1      24.362  11.428  37.305  0.00  0.00    +0.000 A 
ATOM     18  C   UNL     1      24.631  10.384  36.421  0.00  0.00    +0.000 A 
ATOM     19  F   UNL     1      25.876  10.188  35.927  0.00  0.00    +0.000 F 
ATOM     20  C   UNL     1      23.607   9.561  36.063  0.00  0.00    +0.000 A 
ATOM     21  C   UNL     1      22.339   9.742  36.551  0.00  0.00    +0.000 A 
ENDBRANCH  14  15
ENDBRANCH   3  13
TORSDOF 3
ENDMDL
MODEL 4
REMARK VINA RESULT:      -6.9      3.767      8.796
REMARK  Name = 
REMARK  3 active torsions:
REMARK  status: ('A' for Active; 'I' for Inactive)
REMARK    1  A    between atoms: C_2  and  C_13
REMARK    2  A    between atoms: N_3  and  N_4
REMARK    3  A    between atoms: C_5  and  C_6
REMARK                            x       y       z     vdW  Elec       q    Type
REMARK                         _______ _______ _______ _____ _____    ______ ____
ROOT
ATOM      1  O   UNL     1      18.318  11.847  37.363  0.00  0.00    +0.000 OA
ATOM      2  C   UNL     1      18.202  10.596  37.405  0.00  0.00    +0.000 C 
ATOM      3  N   UNL     1      17.399   9.915  36.465  0.00  0.00    +0.000 NA
ENDROOT
BRANCH   2   4
ATOM      4  C   UNL     1      18.919   9.883  38.447  0.00  0.00    +0.000 A 
ATOM      5  N   UNL     1      20.231   9.620  38.532  0.00  0.00    +0.000 NA
ATOM      6  N   UNL     1      20.479   8.937  39.656  0.00  0.00    +0.000 NA
ATOM      7  C   UNL     1      19.330   8.737  40.333  0.00  0.00    +0.000 A 
ATOM      8  C   UNL     1      18.350   9.335  39.567  0.00  0.00    +0.000 A 
ATOM      9  C   UNL     1      16.936   9.273  40.078  0.00  0.00    +0.000 C 
ATOM     10  C   UNL     1      17.001   9.704  41.529  0.00  0.00    +0.000 C 
ATOM     11  C   UNL     1      17.888   8.837  42.360  0.00  0.00    +0.000 C 
ATOM     12  C   UNL     1      18.925   8.088  41.586  0.00  0.00    +0.000 C 
ENDBRANCH   2   4
BRANCH   3  13
ATOM     13  N   UNL     1      16.726  10.676  35.474  0.00  0.00    +0.000 NA
ATOM     14  C   UNL     1      16.688  10.289  34.265  0.00  0.00    +0.000 C 
BRANCH  14  15
ATOM     15  C   UNL     1      16.035  10.981  33.173  0.00  0.00    +0.000 A 
ATOM     16  C   UNL     1      16.184  10.663  31.840  0.00  0.00    +0.000 A 
ATOM     17  C   UNL     1      15.530  11.365  30.846  0.00  0.00    +0.000 A 
ATOM     18  C   UNL     1      14.694  12.429  31.186  0.00  0.00    +0.000 A 
ATOM     19  F   UNL     1      14.041  13.137  30.235  0.00  0.00    +0.000 F 
ATOM     20  C   UNL     1      14.550  12.740  32.504  0.00  0.00    +0.000 A 
ATOM     21  C   UNL     1      15.204  12.036  33.481  0.00  0.00    +0.000 A 
ENDBRANCH  14  15
ENDBRANCH   3  13
TORSDOF 3
ENDMDL
MODEL 5
REMARK VINA RESULT:      -6.7     23.741     26.926
REMARK  Name = 
REMARK  3 active torsions:
REMARK  status: ('A' for Active; 'I' for Inactive)
REMARK    1  A    between atoms: C_2  and  C_13
REMARK    2  A    between atoms: N_3  and  N_4
REMARK    3  A    between atoms: C_5  and  C_6
REMARK                            x       y       z     vdW  Elec       q    Type
REMARK                         _______ _______ _______ _____ _____    ______ ____
ROOT
ATOM      1  O   UNL     1      29.012  26.966  21.572  0.00  0.00    +0.000 OA
ATOM      2  C   UNL     1      29.234  25.807  21.137  0.00  0.00    +0.000 C 
ATOM      3  N   UNL     1      29.846  25.615  19.879  0.00  0.00    +0.000 NA
ENDROOT
BRANCH   2   4
ATOM      4  C   UNL     1      28.842  24.684  21.969  0.00  0.00    +0.000 A 
ATOM      5  N   UNL     1      27.863  23.791  21.763  0.00  0.00    +0.000 NA
ATOM      6  N   UNL     1      27.836  22.915  22.775  0.00  0.00    +0.000 NA
ATOM      7  C   UNL     1      28.799  23.219  23.668  0.00  0.00    +0.000 A 
ATOM      8  C   UNL     1      29.430  24.334  23.155  0.00  0.00    +0.000 A 
ATOM      9  C   UNL     1      30.570  24.913  23.949  0.00  0.00    +0.000 C 
ATOM     10  C   UNL     1      31.467  23.744  24.298  0.00  0.00    +0.000 C 
ATOM     11  C   UNL     1      30.773  22.685  25.090  0.00  0.00    +0.000 C 
ATOM     12  C   UNL     1      29.285  22.679  24.945  0.00  0.00    +0.000 C 
ENDBRANCH   2   4
BRANCH   3  13
ATOM     13  N   UNL     1      30.203  26.759  19.119  0.00  0.00    +0.000 NA
ATOM     14  C   UNL     1      29.819  26.893  17.917  0.00  0.00    +0.000 C 
BRANCH  14  15
ATOM     15  C   UNL     1      30.121  28.012  17.049  0.00  0.00    +0.000 A 
ATOM     16  C   UNL     1      30.813  29.141  17.433  0.00  0.00    +0.000 A 
ATOM     17  C   UNL     1      31.068  30.174  16.551  0.00  0.00    +0.000 A 
ATOM     18  C   UNL     1      30.617  30.087  15.234  0.00  0.00    +0.000 A 
ATOM     19  F   UNL     1      30.850  31.083  14.348  0.00  0.00    +0.000 F 
ATOM     20  C   UNL     1      29.934  28.971  14.859  0.00  0.00    +0.000 A 
ATOM     21  C   UNL     1      29.687  27.952  15.742  0.00  0.00    +0.000 A 
ENDBRANCH  14  15
ENDBRANCH   3  13
TORSDOF 3
ENDMDL
MODEL 6
REMARK VINA RESULT:      -6.5     22.240     23.379
REMARK  Name = 
REMARK  3 active torsions:
REMARK  status: ('A' for Active; 'I' for Inactive)
REMARK    1  A    between atoms: C_2  and  C_13
REMARK    2  A    between atoms: N_3  and  N_4
REMARK    3  A    between atoms: C_5  and  C_6
REMARK                            x       y       z     vdW  Elec       q    Type
REMARK                         _______ _______ _______ _____ _____    ______ ____
ROOT
ATOM      1  O   UNL     1      15.937  -9.481  27.044  0.00  0.00    +0.000 OA
ATOM      2  C   UNL     1      16.131  -8.784  26.016  0.00  0.00    +0.000 C 
ATOM      3  N   UNL     1      15.045  -8.209  25.320  0.00  0.00    +0.000 NA
ENDROOT
BRANCH   2   4
ATOM      4  C   UNL     1      17.501  -8.592  25.575  0.00  0.00    +0.000 A 
ATOM      5  N   UNL     1      18.196  -9.296  24.669  0.00  0.00    +0.000 NA
ATOM      6  N   UNL     1      19.429  -8.789  24.558  0.00  0.00    +0.000 NA
ATOM      7  C   UNL     1      19.569  -7.739  25.392  0.00  0.00    +0.000 A 
ATOM      8  C   UNL     1      18.351  -7.619  26.030  0.00  0.00    +0.000 A 
ATOM      9  C   UNL     1      18.202  -6.513  27.039  0.00  0.00    +0.000 C 
ATOM     10  C   UNL     1      18.723  -5.262  26.362  0.00  0.00    +0.000 C 
ATOM     11  C   UNL     1      20.147  -5.377  25.929  0.00  0.00    +0.000 C 
ATOM     12  C   UNL     1      20.626  -6.781  25.741  0.00  0.00    +0.000 C 
ENDBRANCH   2   4
BRANCH   3  13
ATOM     13  N   UNL     1      13.733  -8.438  25.808  0.00  0.00    +0.000 NA
ATOM     14  C   UNL     1      12.763  -8.635  25.013  0.00  0.00    +0.000 C 
BRANCH  14  15
ATOM     15  C   UNL     1      11.388  -8.878  25.395  0.00  0.00    +0.000 A 
ATOM     16  C   UNL     1      10.337  -9.004  24.511  0.00  0.00    +0.000 A 
ATOM     17  C   UNL     1       9.045  -9.235  24.945  0.00  0.00    +0.000 A 
ATOM     18  C   UNL     1       8.783  -9.346  26.310  0.00  0.00    +0.000 A 
ATOM     19  F   UNL     1       7.528  -9.571  26.765  0.00  0.00    +0.000 F 
ATOM     20  C   UNL     1       9.823  -9.220  27.179  0.00  0.00    +0.000 A 
ATOM     21  C   UNL     1      11.100  -8.991  26.738  0.00  0.00    +0.000 A 
ENDBRANCH  14  15
ENDBRANCH   3  13
TORSDOF 3
ENDMDL
MODEL 7
REMARK VINA RESULT:      -6.3     22.962     23.968
REMARK  Name = 
REMARK  3 active torsions:
REMARK  status: ('A' for Active; 'I' for Inactive)
REMARK    1  A    between atoms: C_2  and  C_13
REMARK    2  A    between atoms: N_3  and  N_4
REMARK    3  A    between atoms: C_5  and  C_6
REMARK                            x       y       z     vdW  Elec       q    Type
REMARK                         _______ _______ _______ _____ _____    ______ ____
ROOT
ATOM      1  O   UNL     1      22.075  -8.234  25.805  0.00  0.00    +0.000 OA
ATOM      2  C   UNL     1      21.634  -7.290  25.102  0.00  0.00    +0.000 C 
ATOM      3  N   UNL     1      22.300  -6.899  23.921  0.00  0.00    +0.000 NA
ENDROOT
BRANCH   2   4
ATOM      4  C   UNL     1      20.424  -6.621  25.548  0.00  0.00    +0.000 A 
ATOM      5  N   UNL     1      20.149  -5.309  25.562  0.00  0.00    +0.000 NA
ATOM      6  N   UNL     1      18.918  -5.114  26.052  0.00  0.00    +0.000 NA
ATOM      7  C   UNL     1      18.360  -6.300  26.369  0.00  0.00    +0.000 A 
ATOM      8  C   UNL     1      19.313  -7.246  26.050  0.00  0.00    +0.000 A 
ATOM      9  C   UNL     1      18.969  -8.689  26.300  0.00  0.00    +0.000 C 
ATOM     10  C   UNL     1      17.596  -8.898  25.695  0.00  0.00    +0.000 C 
ATOM     11  C   UNL     1      16.552  -8.009  26.285  0.00  0.00    +0.000 C 
ATOM     12  C   UNL     1      17.085  -6.768  26.926  0.00  0.00    +0.000 C 
ENDBRANCH   2   4
BRANCH   3  13
ATOM     13  N   UNL     1      23.477  -7.597  23.546  0.00  0.00    +0.000 NA
ATOM     14  C   UNL     1      24.625  -7.082  23.712  0.00  0.00    +0.000 C 
BRANCH  14  15
ATOM     15  C   UNL     1      25.890  -7.697  23.369  0.00  0.00    +0.000 A 
ATOM     16  C   UNL     1      26.323  -8.919  23.839  0.00  0.00    +0.000 A 
ATOM     17  C   UNL     1      27.545  -9.450  23.470  0.00  0.00    +0.000 A 
ATOM     18  C   UNL     1      28.372  -8.741  22.600  0.00  0.00    +0.000 A 
ATOM     19  F   UNL     1      29.575  -9.234  22.221  0.00  0.00    +0.000 F 
ATOM     20  C   UNL     1      27.941  -7.535  22.138  0.00  0.00    +0.000 A 
ATOM     21  C   UNL     1      26.728  -7.018  22.510  0.00  0.00    +0.000 A 
ENDBRANCH  14  15
ENDBRANCH   3  13
TORSDOF 3
ENDMDL
MODEL 8
REMARK VINA RESULT:      -6.2     22.790     25.997
REMARK  Name = 
REMARK  3 active torsions:
REMARK  status: ('A' for Active; 'I' for Inactive)
REMARK    1  A    between atoms: C_2  and  C_13
REMARK    2  A    between atoms: N_3  and  N_4
REMARK    3  A    between atoms: C_5  and  C_6
REMARK                            x       y       z     vdW  Elec       q    Type
REMARK                         _______ _______ _______ _____ _____    ______ ____
ROOT
ATOM      1  O   UNL     1      29.675  24.151  20.944  0.00  0.00    +0.000 OA
ATOM      2  C   UNL     1      29.499  25.127  21.717  0.00  0.00    +0.000 C 
ATOM      3  N   UNL     1      29.535  26.450  21.227  0.00  0.00    +0.000 NA
ENDROOT
BRANCH   2   4
ATOM      4  C   UNL     1      29.258  24.845  23.121  0.00  0.00    +0.000 A 
ATOM      5  N   UNL     1      29.926  25.294  24.193  0.00  0.00    +0.000 NA
ATOM      6  N   UNL     1      29.378  24.792  25.306  0.00  0.00    +0.000 NA
ATOM      7  C   UNL     1      28.336  23.999  24.985  0.00  0.00    +0.000 A 
ATOM      8  C   UNL     1      28.265  24.036  23.607  0.00  0.00    +0.000 A 
ATOM      9  C   UNL     1      27.178  23.230  22.947  0.00  0.00    +0.000 C 
ATOM     10  C   UNL     1      25.902  23.571  23.688  0.00  0.00    +0.000 C 
ATOM     11  C   UNL     1      25.966  23.254  25.145  0.00  0.00    +0.000 C 
ATOM     12  C   UNL     1      27.351  23.181  25.704  0.00  0.00    +0.000 C 
ENDBRANCH   2   4
BRANCH   3  13
ATOM     13  N   UNL     1      29.776  26.652  19.843  0.00  0.00    +0.000 NA
ATOM     14  C   UNL     1      29.399  27.715  19.261  0.00  0.00    +0.000 C 
BRANCH  14  15
ATOM     15  C   UNL     1      29.588  28.028  17.860  0.00  0.00    +0.000 A 
ATOM     16  C   UNL     1      28.722  28.783  17.099  0.00  0.00    +0.000 A 
ATOM     17  C   UNL     1      28.964  29.045  15.763  0.00  0.00    +0.000 A 
ATOM     18  C   UNL     1      30.112  28.537  15.156  0.00  0.00    +0.000 A 
ATOM     19  F   UNL     1      30.377  28.775  13.850  0.00  0.00    +0.000 F 
ATOM     20  C   UNL     1      30.965  27.792  15.911  0.00  0.00    +0.000 A 
ATOM     21  C   UNL     1      30.715  27.539  17.234  0.00  0.00    +0.000 A 
ENDBRANCH  14  15
ENDBRANCH   3  13
TORSDOF 3
ENDMDL
MODEL 9
REMARK VINA RESULT:      -6.2      2.315      2.791
REMARK  Name = 
REMARK  3 active torsions:
REMARK  status: ('A' for Active; 'I' for Inactive)
REMARK    1  A    between atoms: C_2  and  C_13
REMARK    2  A    between atoms: N_3  and  N_4
REMARK    3  A    between atoms: C_5  and  C_6
REMARK                            x       y       z     vdW  Elec       q    Type
REMARK                         _______ _______ _______ _____ _____    ______ ____
ROOT
ATOM      1  O   UNL     1      17.937   9.906  34.055  0.00  0.00    +0.000 OA
ATOM      2  C   UNL     1      16.839  10.518  34.088  0.00  0.00    +0.000 C 
ATOM      3  N   UNL     1      16.224  10.829  35.320  0.00  0.00    +0.000 NA
ENDROOT
BRANCH   2   4
ATOM      4  C   UNL     1      16.233  10.891  32.823  0.00  0.00    +0.000 A 
ATOM      5  N   UNL     1      16.200  10.201  31.674  0.00  0.00    +0.000 NA
ATOM      6  N   UNL     1      15.539  10.905  30.747  0.00  0.00    +0.000 NA
ATOM      7  C   UNL     1      15.125  12.076  31.271  0.00  0.00    +0.000 A 
ATOM      8  C   UNL     1      15.564  12.062  32.579  0.00  0.00    +0.000 A 
ATOM      9  C   UNL     1      15.244  13.261  33.431  0.00  0.00    +0.000 C 
ATOM     10  C   UNL     1      13.768  13.530  33.229  0.00  0.00    +0.000 C 
ATOM     11  C   UNL     1      13.409  13.799  31.805  0.00  0.00    +0.000 C 
ATOM     12  C   UNL     1      14.379  13.253  30.808  0.00  0.00    +0.000 C 
ENDBRANCH   2   4
BRANCH   3  13
ATOM     13  N   UNL     1      16.874  10.433  36.518  0.00  0.00    +0.000 NA
ATOM     14  C   UNL     1      16.286  10.516  37.640  0.00  0.00    +0.000 C 
BRANCH  14  15
ATOM     15  C   UNL     1      16.847  10.144  38.922  0.00  0.00    +0.000 A 
ATOM     16  C   UNL     1      18.196  10.042  39.190  0.00  0.00    +0.000 A 
ATOM     17  C   UNL     1      18.665   9.681  40.440  0.00  0.00    +0.000 A 
ATOM     18  C   UNL     1      17.761   9.409  41.466  0.00  0.00    +0.000 A 
ATOM     19  F   UNL     1      18.189   9.052  42.699  0.00  0.00    +0.000 F 
ATOM     20  C   UNL     1      16.430   9.510  41.197  0.00  0.00    +0.000 A 
ATOM     21  C   UNL     1      15.976   9.869  39.955  0.00  0.00    +0.000 A 
ENDBRANCH  14  15
ENDBRANCH   3  13
TORSDOF 3
ENDMDL
MODEL 10
REMARK VINA RESULT:      -6.2     22.132     23.162
REMARK  Name = 
REMARK  3 active torsions:
REMARK  status: ('A' for Active; 'I' for Inactive)
REMARK    1  A    between atoms: C_2  and  C_13
REMARK    2  A    between atoms: N_3  and  N_4
REMARK    3  A    between atoms: C_5  and  C_6
REMARK                            x       y       z     vdW  Elec       q    Type
REMARK                         _______ _______ _______ _____ _____    ______ ____
ROOT
ATOM      1  O   UNL     1      16.621  -9.003  27.305  0.00  0.00    +0.000 OA
ATOM      2  C   UNL     1      16.512  -8.014  26.535  0.00  0.00    +0.000 C 
ATOM      3  N   UNL     1      15.303  -7.765  25.850  0.00  0.00    +0.000 NA
ENDROOT
BRANCH   2   4
ATOM      4  C   UNL     1      17.665  -7.146  26.379  0.00  0.00    +0.000 A 
ATOM      5  N   UNL     1      17.806  -5.865  26.750  0.00  0.00    +0.000 NA
ATOM      6  N   UNL     1      19.030  -5.435  26.421  0.00  0.00    +0.000 NA
ATOM      7  C   UNL     1      19.718  -6.429  25.824  0.00  0.00    +0.000 A 
ATOM      8  C   UNL     1      18.854  -7.504  25.801  0.00  0.00    +0.000 A 
ATOM      9  C   UNL     1      19.353  -8.782  25.182  0.00  0.00    +0.000 C 
ATOM     10  C   UNL     1      20.713  -9.036  25.798  0.00  0.00    +0.000 C 
ATOM     11  C   UNL     1      21.686  -7.931  25.553  0.00  0.00    +0.000 C 
ATOM     12  C   UNL     1      21.057  -6.609  25.249  0.00  0.00    +0.000 C 
ENDBRANCH   2   4
BRANCH   3  13
ATOM     13  N   UNL     1      14.217  -8.656  26.050  0.00  0.00    +0.000 NA
ATOM     14  C   UNL     1      13.026  -8.227  26.142  0.00  0.00    +0.000 C 
BRANCH  14  15
ATOM     15  C   UNL     1      11.844  -9.038  26.346  0.00  0.00    +0.000 A 
ATOM     16  C   UNL     1      11.043  -9.528  25.337  0.00  0.00    +0.000 A 
ATOM     17  C   UNL     1       9.927 -10.299  25.602  0.00  0.00    +0.000 A 
ATOM     18  C   UNL     1       9.589 -10.596  26.922  0.00  0.00    +0.000 A 
ATOM     19  F   UNL     1       8.502 -11.347  27.214  0.00  0.00    +0.000 F 
ATOM     20  C   UNL     1      10.383 -10.110  27.916  0.00  0.00    +0.000 A 
ATOM     21  C   UNL     1      11.487  -9.347  27.641  0.00  0.00    +0.000 A 
ENDBRANCH  14  15
ENDBRANCH   3  13
TORSDOF 3
ENDMDL
