MODEL 1
REMARK VINA RESULT:      -7.6      0.000      0.000
REMARK  Name = 
REMARK  3 active torsions:
REMARK  status: ('A' for Active; 'I' for Inactive)
REMARK    1  A    between atoms: C_2  and  N_4
REMARK    2  A    between atoms: C_11  and  C_12
REMARK    3  A    between atoms: C_16  and  N_17
REMARK                            x       y       z     vdW  Elec       q    Type
REMARK                         _______ _______ _______ _____ _____    ______ ____
ROOT
ATOM      1  N   UNL     1      29.339  24.073  23.372  0.00  0.00    +0.000 N 
ATOM      2  C   UNL     1      28.939  23.971  22.089  0.00  0.00    +0.000 A 
ATOM      3  O   UNL     1      29.633  24.166  21.037  0.00  0.00    +0.000 OA
ATOM      4  N   UNL     1      27.638  23.618  22.092  0.00  0.00    +0.000 NA
ATOM      5  C   UNL     1      27.214  23.496  23.350  0.00  0.00    +0.000 A 
ATOM      6  C   UNL     1      26.004  23.164  23.925  0.00  0.00    +0.000 A 
ATOM      7  C   UNL     1      25.891  23.125  25.293  0.00  0.00    +0.000 A 
ATOM      8  C   UNL     1      26.951  23.407  26.134  0.00  0.00    +0.000 A 
ATOM      9  C   UNL     1      28.151  23.737  25.544  0.00  0.00    +0.000 A 
ATOM     10  C   UNL     1      28.308  23.788  24.172  0.00  0.00    +0.000 A 
ENDROOT
BRANCH   8  11
ATOM     11  C   UNL     1      26.785  23.353  27.603  0.00  0.00    +0.000 A 
ATOM     12  C   UNL     1      27.383  22.341  28.277  0.00  0.00    +0.000 A 
ATOM     13  C   UNL     1      27.264  22.240  29.670  0.00  0.00    +0.000 A 
ATOM     14  C   UNL     1      26.527  23.191  30.334  0.00  0.00    +0.000 A 
ATOM     15  C   UNL     1      25.911  24.226  29.678  0.00  0.00    +0.000 A 
ATOM     16  C   UNL     1      26.052  24.294  28.293  0.00  0.00    +0.000 A 
BRANCH  15  17
ATOM     17  N   UNL     1      25.148  25.221  30.328  0.00  0.00    +0.000 N 
ATOM     18  O   UNL     1      25.146  25.290  31.570  0.00  0.00    +0.000 OA
ATOM     19  O   UNL     1      24.403  26.126  29.622  0.00  0.00    +0.000 OA
ENDBRANCH  15  17
ENDBRANCH   8  11
BRANCH   1  21
ATOM     20  C   UNL     1      31.404  23.327  24.473  0.00  0.00    +0.000 C 
ATOM     21  C   UNL     1      30.690  24.441  23.749  0.00  0.00    +0.000 C 
ATOM     22  C   UNL     1      30.726  25.750  24.509  0.00  0.00    +0.000 C 
ENDBRANCH   1  21
TORSDOF 3
ENDMDL
MODEL 2
REMARK VINA RESULT:      -6.9     22.137     24.133
REMARK  Name = 
REMARK  3 active torsions:
REMARK  status: ('A' for Active; 'I' for Inactive)
REMARK    1  A    between atoms: C_2  and  N_4
REMARK    2  A    between atoms: C_11  and  C_12
REMARK    3  A    between atoms: C_16  and  N_17
REMARK                            x       y       z     vdW  Elec       q    Type
REMARK                         _______ _______ _______ _____ _____    ______ ____
ROOT
ATOM      1  N   UNL     1      35.368   5.926  36.742  0.00  0.00    +0.000 N 
ATOM      2  C   UNL     1      35.001   7.222  36.738  0.00  0.00    +0.000 A 
ATOM      3  O   UNL     1      35.454   8.165  37.468  0.00  0.00    +0.000 OA
ATOM      4  N   UNL     1      34.040   7.374  35.804  0.00  0.00    +0.000 NA
ATOM      5  C   UNL     1      33.798   6.200  35.222  0.00  0.00    +0.000 A 
ATOM      6  C   UNL     1      32.937   5.783  34.227  0.00  0.00    +0.000 A 
ATOM      7  C   UNL     1      32.931   4.464  33.843  0.00  0.00    +0.000 A 
ATOM      8  C   UNL     1      33.761   3.520  34.418  0.00  0.00    +0.000 A 
ATOM      9  C   UNL     1      34.613   3.952  35.409  0.00  0.00    +0.000 A 
ATOM     10  C   UNL     1      34.652   5.270  35.825  0.00  0.00    +0.000 A 
ENDROOT
BRANCH   8  11
ATOM     11  C   UNL     1      33.721   2.110  33.974  0.00  0.00    +0.000 A 
ATOM     12  C   UNL     1      34.284   1.798  32.781  0.00  0.00    +0.000 A 
ATOM     13  C   UNL     1      34.281   0.478  32.310  0.00  0.00    +0.000 A 
ATOM     14  C   UNL     1      33.692  -0.492  33.086  0.00  0.00    +0.000 A 
ATOM     15  C   UNL     1      33.115  -0.205  34.297  0.00  0.00    +0.000 A 
ATOM     16  C   UNL     1      33.138   1.118  34.732  0.00  0.00    +0.000 A 
BRANCH  15  17
ATOM     17  N   UNL     1      32.503  -1.176  35.121  0.00  0.00    +0.000 N 
ATOM     18  O   UNL     1      32.204  -0.894  36.295  0.00  0.00    +0.000 OA
ATOM     19  O   UNL     1      32.224  -2.433  34.659  0.00  0.00    +0.000 OA
ENDBRANCH  15  17
ENDBRANCH   8  11
BRANCH   1  21
ATOM     20  C   UNL     1      37.596   4.902  36.880  0.00  0.00    +0.000 C 
ATOM     21  C   UNL     1      36.385   5.398  37.631  0.00  0.00    +0.000 C 
ATOM     22  C   UNL     1      35.821   4.363  38.580  0.00  0.00    +0.000 C 
ENDBRANCH   1  21
TORSDOF 3
ENDMDL
MODEL 3
REMARK VINA RESULT:      -6.9      2.137      3.065
REMARK  Name = 
REMARK  3 active torsions:
REMARK  status: ('A' for Active; 'I' for Inactive)
REMARK    1  A    between atoms: C_2  and  N_4
REMARK    2  A    between atoms: C_11  and  C_12
REMARK    3  A    between atoms: C_16  and  N_17
REMARK                            x       y       z     vdW  Elec       q    Type
REMARK                         _______ _______ _______ _____ _____    ______ ____
ROOT
ATOM      1  N   UNL     1      28.588  25.342  23.743  0.00  0.00    +0.000 N 
ATOM      2  C   UNL     1      29.092  25.059  22.525  0.00  0.00    +0.000 A 
ATOM      3  O   UNL     1      28.906  25.695  21.436  0.00  0.00    +0.000 OA
ATOM      4  N   UNL     1      29.855  23.954  22.644  0.00  0.00    +0.000 NA
ATOM      5  C   UNL     1      29.840  23.538  23.910  0.00  0.00    +0.000 A 
ATOM      6  C   UNL     1      30.429  22.485  24.580  0.00  0.00    +0.000 A 
ATOM      7  C   UNL     1      30.208  22.329  25.927  0.00  0.00    +0.000 A 
ATOM      8  C   UNL     1      29.410  23.192  26.653  0.00  0.00    +0.000 A 
ATOM      9  C   UNL     1      28.829  24.237  25.970  0.00  0.00    +0.000 A 
ATOM     10  C   UNL     1      29.025  24.431  24.615  0.00  0.00    +0.000 A 
ENDROOT
BRANCH   8  11
ATOM     11  C   UNL     1      29.199  22.986  28.103  0.00  0.00    +0.000 A 
ATOM     12  C   UNL     1      30.291  22.879  28.899  0.00  0.00    +0.000 A 
ATOM     13  C   UNL     1      30.154  22.688  30.281  0.00  0.00    +0.000 A 
ATOM     14  C   UNL     1      28.886  22.610  30.808  0.00  0.00    +0.000 A 
ATOM     15  C   UNL     1      27.764  22.714  30.026  0.00  0.00    +0.000 A 
ATOM     16  C   UNL     1      27.940  22.905  28.657  0.00  0.00    +0.000 A 
BRANCH  15  17
ATOM     17  N   UNL     1      26.447  22.641  30.533  0.00  0.00    +0.000 N 
ATOM     18  O   UNL     1      25.799  23.684  30.728  0.00  0.00    +0.000 OA
ATOM     19  O   UNL     1      25.857  21.440  30.817  0.00  0.00    +0.000 OA
ENDBRANCH  15  17
ENDBRANCH   8  11
BRANCH   1  21
ATOM     20  C   UNL     1      28.302  27.444  24.980  0.00  0.00    +0.000 C 
ATOM     21  C   UNL     1      27.712  26.471  23.989  0.00  0.00    +0.000 C 
ATOM     22  C   UNL     1      26.314  26.029  24.364  0.00  0.00    +0.000 C 
ENDBRANCH   1  21
TORSDOF 3
ENDMDL
MODEL 4
REMARK VINA RESULT:      -6.8     19.080     21.189
REMARK  Name = 
REMARK  3 active torsions:
REMARK  status: ('A' for Active; 'I' for Inactive)
REMARK    1  A    between atoms: C_2  and  N_4
REMARK    2  A    between atoms: C_11  and  C_12
REMARK    3  A    between atoms: C_16  and  N_17
REMARK                            x       y       z     vdW  Elec       q    Type
REMARK                         _______ _______ _______ _____ _____    ______ ____
ROOT
ATOM      1  N   UNL     1      21.078   9.662  38.860  0.00  0.00    +0.000 N 
ATOM      2  C   UNL     1      21.547   8.834  39.815  0.00  0.00    +0.000 A 
ATOM      3  O   UNL     1      22.758   8.504  40.038  0.00  0.00    +0.000 OA
ATOM      4  N   UNL     1      20.491   8.389  40.527  0.00  0.00    +0.000 NA
ATOM      5  C   UNL     1      19.371   8.922  40.038  0.00  0.00    +0.000 A 
ATOM      6  C   UNL     1      18.036   8.817  40.371  0.00  0.00    +0.000 A 
ATOM      7  C   UNL     1      17.099   9.517  39.650  0.00  0.00    +0.000 A 
ATOM      8  C   UNL     1      17.439  10.333  38.587  0.00  0.00    +0.000 A 
ATOM      9  C   UNL     1      18.775  10.426  38.267  0.00  0.00    +0.000 A 
ATOM     10  C   UNL     1      19.750   9.740  38.967  0.00  0.00    +0.000 A 
ENDROOT
BRANCH   8  11
ATOM     11  C   UNL     1      16.398  11.068  37.837  0.00  0.00    +0.000 A 
ATOM     12  C   UNL     1      16.795  11.976  36.913  0.00  0.00    +0.000 A 
ATOM     13  C   UNL     1      15.854  12.700  36.168  0.00  0.00    +0.000 A 
ATOM     14  C   UNL     1      14.519  12.468  36.398  0.00  0.00    +0.000 A 
ATOM     15  C   UNL     1      14.088  11.555  37.327  0.00  0.00    +0.000 A 
ATOM     16  C   UNL     1      15.053  10.854  38.047  0.00  0.00    +0.000 A 
BRANCH  15  17
ATOM     17  N   UNL     1      12.725  11.289  37.589  0.00  0.00    +0.000 N 
ATOM     18  O   UNL     1      11.842  11.932  36.993  0.00  0.00    +0.000 OA
ATOM     19  O   UNL     1      12.343  10.331  38.488  0.00  0.00    +0.000 OA
ENDBRANCH  15  17
ENDBRANCH   8  11
BRANCH   1  21
ATOM     20  C   UNL     1      21.839  11.828  37.988  0.00  0.00    +0.000 C 
ATOM     21  C   UNL     1      21.941  10.325  37.902  0.00  0.00    +0.000 C 
ATOM     22  C   UNL     1      21.726   9.804  36.497  0.00  0.00    +0.000 C 
ENDBRANCH   1  21
TORSDOF 3
ENDMDL
MODEL 5
REMARK VINA RESULT:      -6.7     18.282     20.690
REMARK  Name = 
REMARK  3 active torsions:
REMARK  status: ('A' for Active; 'I' for Inactive)
REMARK    1  A    between atoms: C_2  and  N_4
REMARK    2  A    between atoms: C_11  and  C_12
REMARK    3  A    between atoms: C_16  and  N_17
REMARK                            x       y       z     vdW  Elec       q    Type
REMARK                         _______ _______ _______ _____ _____    ______ ____
ROOT
ATOM      1  N   UNL     1      21.120   9.763  38.841  0.00  0.00    +0.000 N 
ATOM      2  C   UNL     1      21.554   9.112  39.939  0.00  0.00    +0.000 A 
ATOM      3  O   UNL     1      22.758   8.861  40.273  0.00  0.00    +0.000 OA
ATOM      4  N   UNL     1      20.471   8.750  40.656  0.00  0.00    +0.000 NA
ATOM      5  C   UNL     1      19.367   9.162  40.032  0.00  0.00    +0.000 A 
ATOM      6  C   UNL     1      18.018   9.068  40.309  0.00  0.00    +0.000 A 
ATOM      7  C   UNL     1      17.108   9.614  39.437  0.00  0.00    +0.000 A 
ATOM      8  C   UNL     1      17.486  10.263  38.277  0.00  0.00    +0.000 A 
ATOM      9  C   UNL     1      18.835  10.348  38.016  0.00  0.00    +0.000 A 
ATOM     10  C   UNL     1      19.786   9.813  38.866  0.00  0.00    +0.000 A 
ENDROOT
BRANCH   8  11
ATOM     11  C   UNL     1      16.471  10.837  37.367  0.00  0.00    +0.000 A 
ATOM     12  C   UNL     1      15.334  11.336  37.909  0.00  0.00    +0.000 A 
ATOM     13  C   UNL     1      14.338  11.895  37.097  0.00  0.00    +0.000 A 
ATOM     14  C   UNL     1      14.543  11.925  35.738  0.00  0.00    +0.000 A 
ATOM     15  C   UNL     1      15.684  11.426  35.162  0.00  0.00    +0.000 A 
ATOM     16  C   UNL     1      16.651  10.879  36.001  0.00  0.00    +0.000 A 
BRANCH  15  17
ATOM     17  N   UNL     1      15.928  11.441  33.770  0.00  0.00    +0.000 N 
ATOM     18  O   UNL     1      15.223  12.143  33.024  0.00  0.00    +0.000 OA
ATOM     19  O   UNL     1      16.933  10.698  33.213  0.00  0.00    +0.000 OA
ENDBRANCH  15  17
ENDBRANCH   8  11
BRANCH   1  21
ATOM     20  C   UNL     1      22.117  11.798  37.897  0.00  0.00    +0.000 C 
ATOM     21  C   UNL     1      22.018  10.294  37.835  0.00  0.00    +0.000 C 
ATOM     22  C   UNL     1      21.676   9.787  36.450  0.00  0.00    +0.000 C 
ENDBRANCH   1  21
TORSDOF 3
ENDMDL
MODEL 6
REMARK VINA RESULT:      -6.7     31.993     32.959
REMARK  Name = 
REMARK  3 active torsions:
REMARK  status: ('A' for Active; 'I' for Inactive)
REMARK    1  A    between atoms: C_2  and  N_4
REMARK    2  A    between atoms: C_11  and  C_12
REMARK    3  A    between atoms: C_16  and  N_17
REMARK                            x       y       z     vdW  Elec       q    Type
REMARK                         _______ _______ _______ _____ _____    ______ ____
ROOT
ATOM      1  N   UNL     1      24.045  -9.705  24.439  0.00  0.00    +0.000 N 
ATOM      2  C   UNL     1      25.119  -9.387  23.690  0.00  0.00    +0.000 A 
ATOM      3  O   UNL     1      26.078 -10.149  23.335  0.00  0.00    +0.000 OA
ATOM      4  N   UNL     1      25.019  -8.083  23.361  0.00  0.00    +0.000 NA
ATOM      5  C   UNL     1      23.903  -7.578  23.888  0.00  0.00    +0.000 A 
ATOM      6  C   UNL     1      23.316  -6.329  23.871  0.00  0.00    +0.000 A 
ATOM      7  C   UNL     1      22.129  -6.128  24.532  0.00  0.00    +0.000 A 
ATOM      8  C   UNL     1      21.485  -7.136  25.224  0.00  0.00    +0.000 A 
ATOM      9  C   UNL     1      22.084  -8.376  25.232  0.00  0.00    +0.000 A 
ATOM     10  C   UNL     1      23.278  -8.621  24.580  0.00  0.00    +0.000 A 
ENDROOT
BRANCH   8  11
ATOM     11  C   UNL     1      20.207  -6.876  25.922  0.00  0.00    +0.000 A 
ATOM     12  C   UNL     1      19.735  -5.606  25.940  0.00  0.00    +0.000 A 
ATOM     13  C   UNL     1      18.527  -5.300  26.582  0.00  0.00    +0.000 A 
ATOM     14  C   UNL     1      17.835  -6.318  27.193  0.00  0.00    +0.000 A 
ATOM     15  C   UNL     1      18.289  -7.612  27.191  0.00  0.00    +0.000 A 
ATOM     16  C   UNL     1      19.492  -7.879  26.542  0.00  0.00    +0.000 A 
BRANCH  15  17
ATOM     17  N   UNL     1      17.603  -8.684  27.807  0.00  0.00    +0.000 N 
ATOM     18  O   UNL     1      16.698  -9.276  27.192  0.00  0.00    +0.000 OA
ATOM     19  O   UNL     1      17.911  -9.095  29.075  0.00  0.00    +0.000 OA
ENDBRANCH  15  17
ENDBRANCH   8  11
BRANCH   1  21
ATOM     20  C   UNL     1      22.505 -11.616  24.532  0.00  0.00    +0.000 C 
ATOM     21  C   UNL     1      23.825 -11.035  24.974  0.00  0.00    +0.000 C 
ATOM     22  C   UNL     1      24.007 -11.074  26.477  0.00  0.00    +0.000 C 
ENDBRANCH   1  21
TORSDOF 3
ENDMDL
MODEL 7
REMARK VINA RESULT:      -6.5     21.939     23.810
REMARK  Name = 
REMARK  3 active torsions:
REMARK  status: ('A' for Active; 'I' for Inactive)
REMARK    1  A    between atoms: C_2  and  N_4
REMARK    2  A    between atoms: C_11  and  C_12
REMARK    3  A    between atoms: C_16  and  N_17
REMARK                            x       y       z     vdW  Elec       q    Type
REMARK                         _______ _______ _______ _____ _____    ______ ____
ROOT
ATOM      1  N   UNL     1      33.956   0.169  34.927  0.00  0.00    +0.000 N 
ATOM      2  C   UNL     1      33.856  -0.438  33.727  0.00  0.00    +0.000 A 
ATOM      3  O   UNL     1      33.894  -1.688  33.478  0.00  0.00    +0.000 OA
ATOM      4  N   UNL     1      33.706   0.523  32.793  0.00  0.00    +0.000 NA
ATOM      5  C   UNL     1      33.708   1.719  33.382  0.00  0.00    +0.000 A 
ATOM      6  C   UNL     1      33.591   3.014  32.920  0.00  0.00    +0.000 A 
ATOM      7  C   UNL     1      33.633   4.058  33.812  0.00  0.00    +0.000 A 
ATOM      8  C   UNL     1      33.790   3.868  35.171  0.00  0.00    +0.000 A 
ATOM      9  C   UNL     1      33.906   2.570  35.615  0.00  0.00    +0.000 A 
ATOM     10  C   UNL     1      33.868   1.490  34.753  0.00  0.00    +0.000 A 
ENDROOT
BRANCH   8  11
ATOM     11  C   UNL     1      33.830   5.022  36.096  0.00  0.00    +0.000 A 
ATOM     12  C   UNL     1      33.385   4.842  37.363  0.00  0.00    +0.000 A 
ATOM     13  C   UNL     1      33.402   5.898  38.286  0.00  0.00    +0.000 A 
ATOM     14  C   UNL     1      33.880   7.119  37.873  0.00  0.00    +0.000 A 
ATOM     15  C   UNL     1      34.336   7.330  36.596  0.00  0.00    +0.000 A 
ATOM     16  C   UNL     1      34.304   6.257  35.708  0.00  0.00    +0.000 A 
BRANCH  15  17
ATOM     17  N   UNL     1      34.834   8.570  36.138  0.00  0.00    +0.000 N 
ATOM     18  O   UNL     1      35.892   8.610  35.484  0.00  0.00    +0.000 OA
ATOM     19  O   UNL     1      34.178   9.743  36.395  0.00  0.00    +0.000 OA
ENDBRANCH  15  17
ENDBRANCH   8  11
BRANCH   1  21
ATOM     20  C   UNL     1      33.101  -0.185  37.202  0.00  0.00    +0.000 C 
ATOM     21  C   UNL     1      34.132  -0.563  36.166  0.00  0.00    +0.000 C 
ATOM     22  C   UNL     1      35.549  -0.456  36.686  0.00  0.00    +0.000 C 
ENDBRANCH   1  21
TORSDOF 3
ENDMDL
MODEL 8
REMARK VINA RESULT:      -6.5      2.847      6.727
REMARK  Name = 
REMARK  3 active torsions:
REMARK  status: ('A' for Active; 'I' for Inactive)
REMARK    1  A    between atoms: C_2  and  N_4
REMARK    2  A    between atoms: C_11  and  C_12
REMARK    3  A    between atoms: C_16  and  N_17
REMARK                            x       y       z     vdW  Elec       q    Type
REMARK                         _______ _______ _______ _____ _____    ______ ____
ROOT
ATOM      1  N   UNL     1      30.273  22.715  29.870  0.00  0.00    +0.000 N 
ATOM      2  C   UNL     1      29.906  22.572  31.159  0.00  0.00    +0.000 A 
ATOM      3  O   UNL     1      30.663  22.457  32.178  0.00  0.00    +0.000 OA
ATOM      4  N   UNL     1      28.558  22.568  31.204  0.00  0.00    +0.000 NA
ATOM      5  C   UNL     1      28.072  22.706  29.970  0.00  0.00    +0.000 A 
ATOM      6  C   UNL     1      26.798  22.765  29.444  0.00  0.00    +0.000 A 
ATOM      7  C   UNL     1      26.631  22.918  28.089  0.00  0.00    +0.000 A 
ATOM      8  C   UNL     1      27.697  23.014  27.215  0.00  0.00    +0.000 A 
ATOM      9  C   UNL     1      28.961  22.952  27.756  0.00  0.00    +0.000 A 
ATOM     10  C   UNL     1      29.175  22.800  29.114  0.00  0.00    +0.000 A 
ENDROOT
BRANCH   8  11
ATOM     11  C   UNL     1      27.471  23.177  25.762  0.00  0.00    +0.000 A 
ATOM     12  C   UNL     1      26.205  23.055  25.294  0.00  0.00    +0.000 A 
ATOM     13  C   UNL     1      25.928  23.203  23.928  0.00  0.00    +0.000 A 
ATOM     14  C   UNL     1      26.972  23.474  23.075  0.00  0.00    +0.000 A 
ATOM     15  C   UNL     1      28.263  23.603  23.521  0.00  0.00    +0.000 A 
ATOM     16  C   UNL     1      28.499  23.450  24.886  0.00  0.00    +0.000 A 
BRANCH  15  17
ATOM     17  N   UNL     1      29.359  23.883  22.674  0.00  0.00    +0.000 N 
ATOM     18  O   UNL     1      30.494  24.038  23.159  0.00  0.00    +0.000 OA
ATOM     19  O   UNL     1      29.206  23.989  21.319  0.00  0.00    +0.000 OA
ENDBRANCH  15  17
ENDBRANCH   8  11
BRANCH   1  21
ATOM     20  C   UNL     1      31.971  23.994  28.641  0.00  0.00    +0.000 C 
ATOM     21  C   UNL     1      31.658  22.757  29.446  0.00  0.00    +0.000 C 
ATOM     22  C   UNL     1      32.071  21.482  28.742  0.00  0.00    +0.000 C 
ENDBRANCH   1  21
TORSDOF 3
ENDMDL
MODEL 9
REMARK VINA RESULT:      -6.4      1.756      7.026
REMARK  Name = 
REMARK  3 active torsions:
REMARK  status: ('A' for Active; 'I' for Inactive)
REMARK    1  A    between atoms: C_2  and  N_4
REMARK    2  A    between atoms: C_11  and  C_12
REMARK    3  A    between atoms: C_16  and  N_17
REMARK                            x       y       z     vdW  Elec       q    Type
REMARK                         _______ _______ _______ _____ _____    ______ ____
ROOT
ATOM      1  N   UNL     1      27.443  24.500  30.777  0.00  0.00    +0.000 N 
ATOM      2  C   UNL     1      26.274  24.841  31.354  0.00  0.00    +0.000 A 
ATOM      3  O   UNL     1      26.057  25.104  32.583  0.00  0.00    +0.000 OA
ATOM      4  N   UNL     1      25.332  24.862  30.390  0.00  0.00    +0.000 NA
ATOM      5  C   UNL     1      25.886  24.542  29.221  0.00  0.00    +0.000 A 
ATOM      6  C   UNL     1      25.402  24.412  27.935  0.00  0.00    +0.000 A 
ATOM      7  C   UNL     1      26.258  24.058  26.920  0.00  0.00    +0.000 A 
ATOM      8  C   UNL     1      27.603  23.821  27.132  0.00  0.00    +0.000 A 
ATOM      9  C   UNL     1      28.069  23.955  28.421  0.00  0.00    +0.000 A 
ATOM     10  C   UNL     1      27.243  24.309  29.471  0.00  0.00    +0.000 A 
ENDROOT
BRANCH   8  11
ATOM     11  C   UNL     1      28.489  23.442  26.010  0.00  0.00    +0.000 A 
ATOM     12  C   UNL     1      29.673  22.852  26.301  0.00  0.00    +0.000 A 
ATOM     13  C   UNL     1      30.552  22.466  25.280  0.00  0.00    +0.000 A 
ATOM     14  C   UNL     1      30.185  22.704  23.977  0.00  0.00    +0.000 A 
ATOM     15  C   UNL     1      28.993  23.300  23.653  0.00  0.00    +0.000 A 
ATOM     16  C   UNL     1      28.145  23.668  24.695  0.00  0.00    +0.000 A 
BRANCH  15  17
ATOM     17  N   UNL     1      28.582  23.558  22.325  0.00  0.00    +0.000 N 
ATOM     18  O   UNL     1      29.398  24.002  21.498  0.00  0.00    +0.000 OA
ATOM     19  O   UNL     1      27.296  23.328  21.918  0.00  0.00    +0.000 OA
ENDBRANCH  15  17
ENDBRANCH   8  11
BRANCH   1  21
ATOM     20  C   UNL     1      29.616  25.533  31.269  0.00  0.00    +0.000 C 
ATOM     21  C   UNL     1      28.682  24.376  31.521  0.00  0.00    +0.000 C 
ATOM     22  C   UNL     1      29.341  23.032  31.297  0.00  0.00    +0.000 C 
ENDBRANCH   1  21
TORSDOF 3
ENDMDL
MODEL 10
REMARK VINA RESULT:      -6.3      1.693      7.014
REMARK  Name = 
REMARK  3 active torsions:
REMARK  status: ('A' for Active; 'I' for Inactive)
REMARK    1  A    between atoms: C_2  and  N_4
REMARK    2  A    between atoms: C_11  and  C_12
REMARK    3  A    between atoms: C_16  and  N_17
REMARK                            x       y       z     vdW  Elec       q    Type
REMARK                         _______ _______ _______ _____ _____    ______ ____
ROOT
ATOM      1  N   UNL     1      25.501  25.487  29.369  0.00  0.00    +0.000 N 
ATOM      2  C   UNL     1      25.175  25.291  30.662  0.00  0.00    +0.000 A 
ATOM      3  O   UNL     1      24.302  25.916  31.351  0.00  0.00    +0.000 OA
ATOM      4  N   UNL     1      25.948  24.292  31.133  0.00  0.00    +0.000 NA
ATOM      5  C   UNL     1      26.751  23.857  30.162  0.00  0.00    +0.000 A 
ATOM      6  C   UNL     1      27.721  22.878  30.088  0.00  0.00    +0.000 A 
ATOM      7  C   UNL     1      28.387  22.672  28.905  0.00  0.00    +0.000 A 
ATOM      8  C   UNL     1      28.127  23.413  27.767  0.00  0.00    +0.000 A 
ATOM      9  C   UNL     1      27.158  24.385  27.858  0.00  0.00    +0.000 A 
ATOM     10  C   UNL     1      26.462  24.626  29.029  0.00  0.00    +0.000 A 
ENDROOT
BRANCH   8  11
ATOM     11  C   UNL     1      28.870  23.157  26.513  0.00  0.00    +0.000 A 
ATOM     12  C   UNL     1      30.144  22.705  26.605  0.00  0.00    +0.000 A 
ATOM     13  C   UNL     1      30.895  22.441  25.451  0.00  0.00    +0.000 A 
ATOM     14  C   UNL     1      30.309  22.653  24.226  0.00  0.00    +0.000 A 
ATOM     15  C   UNL     1      29.021  23.110  24.104  0.00  0.00    +0.000 A 
ATOM     16  C   UNL     1      28.305  23.360  25.272  0.00  0.00    +0.000 A 
BRANCH  15  17
ATOM     17  N   UNL     1      28.386  23.337  22.862  0.00  0.00    +0.000 N 
ATOM     18  O   UNL     1      27.162  23.149  22.748  0.00  0.00    +0.000 OA
ATOM     19  O   UNL     1      29.088  23.765  21.768  0.00  0.00    +0.000 OA
ENDBRANCH  15  17
ENDBRANCH   8  11
BRANCH   1  21
ATOM     20  C   UNL     1      24.027  25.887  27.446  0.00  0.00    +0.000 C 
ATOM     21  C   UNL     1      24.866  26.495  28.542  0.00  0.00    +0.000 C 
ATOM     22  C   UNL     1      25.865  27.506  28.020  0.00  0.00    +0.000 C 
ENDBRANCH   1  21
TORSDOF 3
ENDMDL
