MODEL 1
REMARK VINA RESULT:      -8.5      0.000      0.000
REMARK  Name = 
REMARK  7 active torsions:
REMARK  status: ('A' for Active; 'I' for Inactive)
REMARK    1  A    between atoms: C_5  and  C_6
REMARK    2  A    between atoms: C_9  and  S_10
REMARK    3  A    between atoms: S_10  and  C_11
REMARK    4  A    between atoms: C_11  and  C_12
REMARK    5  A    between atoms: C_16  and  C_17
REMARK    6  A    between atoms: N_19  and  C_20
REMARK    7  A    between atoms: C_20  and  C_21
REMARK                            x       y       z     vdW  Elec       q    Type
REMARK                         _______ _______ _______ _____ _____    ______ ____
ROOT
ATOM      1  S   UNL     1      38.827   1.782  13.576  0.00  0.00    +0.000 S 
ENDROOT
BRANCH   1   5
ATOM      2  C   UNL     1      38.856   4.919  16.793  0.00  0.00    +0.000 A 
ATOM      3  C   UNL     1      39.627   5.107  15.679  0.00  0.00    +0.000 A 
ATOM      4  C   UNL     1      39.619   4.145  14.691  0.00  0.00    +0.000 A 
ATOM      5  C   UNL     1      38.847   3.028  14.838  0.00  0.00    +0.000 A 
ATOM      6  N   UNL     1      38.109   2.880  15.938  0.00  0.00    +0.000 NA
ATOM      7  N   UNL     1      38.101   3.804  16.915  0.00  0.00    +0.000 NA
BRANCH   2  12
ATOM      8  C   UNL     1      38.838   8.857  20.957  0.00  0.00    +0.000 C 
ATOM      9  C   UNL     1      38.861   7.812  19.878  0.00  0.00    +0.000 A 
ATOM     10  C   UNL     1      38.011   7.966  18.812  0.00  0.00    +0.000 A 
ATOM     11  C   UNL     1      38.009   7.017  17.799  0.00  0.00    +0.000 A 
ATOM     12  C   UNL     1      38.849   5.926  17.855  0.00  0.00    +0.000 A 
ATOM     13  C   UNL     1      39.701   5.785  18.936  0.00  0.00    +0.000 A 
ATOM     14  C   UNL     1      39.696   6.726  19.931  0.00  0.00    +0.000 A 
ENDBRANCH   2  12
ENDBRANCH   1   5
BRANCH   1  15
ATOM     15  C   UNL     1      40.380   0.869  13.656  0.00  0.00    +0.000 C 
BRANCH  15  16
ATOM     16  C   UNL     1      40.249  -0.421  14.378  0.00  0.00    +0.000 A 
ATOM     17  C   UNL     1      41.149  -1.435  14.127  0.00  0.00    +0.000 A 
ATOM     18  C   UNL     1      41.050  -2.649  14.787  0.00  0.00    +0.000 A 
ATOM     19  C   UNL     1      40.048  -2.866  15.708  0.00  0.00    +0.000 A 
ATOM     20  C   UNL     1      39.138  -1.861  15.972  0.00  0.00    +0.000 A 
ATOM     21  C   UNL     1      39.252  -0.662  15.306  0.00  0.00    +0.000 A 
BRANCH  20  22
ATOM     22  C   UNL     1      38.090  -2.119  16.951  0.00  0.00    +0.000 C 
ATOM     23  O   UNL     1      37.479  -3.226  16.869  0.00  0.00    +0.000 OA
ATOM     24  N   UNL     1      37.728  -1.222  17.962  0.00  0.00    +0.000 NA
BRANCH  24  25
ATOM     25  C   UNL     1      36.667  -1.587  18.882  0.00  0.00    +0.000 C 
BRANCH  25  26
ATOM     26  C   UNL     1      35.482  -0.701  18.566  0.00  0.00    +0.000 C 
ATOM     27  C   UNL     1      34.507  -1.325  17.626  0.00  0.00    +0.000 C 
ATOM     28  C   UNL     1      35.939   0.669  18.175  0.00  0.00    +0.000 C 
ENDBRANCH  25  26
ENDBRANCH  24  25
ENDBRANCH  20  22
ENDBRANCH  15  16
ENDBRANCH   1  15
TORSDOF 7
ENDMDL
MODEL 2
REMARK VINA RESULT:      -8.1      1.759      4.109
REMARK  Name = 
REMARK  7 active torsions:
REMARK  status: ('A' for Active; 'I' for Inactive)
REMARK    1  A    between atoms: C_5  and  C_6
REMARK    2  A    between atoms: C_9  and  S_10
REMARK    3  A    between atoms: S_10  and  C_11
REMARK    4  A    between atoms: C_11  and  C_12
REMARK    5  A    between atoms: C_16  and  C_17
REMARK    6  A    between atoms: N_19  and  C_20
REMARK    7  A    between atoms: C_20  and  C_21
REMARK                            x       y       z     vdW  Elec       q    Type
REMARK                         _______ _______ _______ _____ _____    ______ ____
ROOT
ATOM      1  S   UNL     1      36.347   1.734  14.727  0.00  0.00    +0.000 S 
ENDROOT
BRANCH   1   5
ATOM      2  C   UNL     1      38.884   4.616  17.061  0.00  0.00    +0.000 A 
ATOM      3  C   UNL     1      39.154   4.422  15.734  0.00  0.00    +0.000 A 
ATOM      4  C   UNL     1      38.376   3.538  15.017  0.00  0.00    +0.000 A 
ATOM      5  C   UNL     1      37.356   2.874  15.637  0.00  0.00    +0.000 A 
ATOM      6  N   UNL     1      37.123   3.089  16.932  0.00  0.00    +0.000 NA
ATOM      7  N   UNL     1      37.868   3.946  17.651  0.00  0.00    +0.000 NA
BRANCH   2  12
ATOM      8  C   UNL     1      42.056   8.270  20.132  0.00  0.00    +0.000 C 
ATOM      9  C   UNL     1      41.209   7.309  19.347  0.00  0.00    +0.000 A 
ATOM     10  C   UNL     1      41.585   7.020  18.059  0.00  0.00    +0.000 A 
ATOM     11  C   UNL     1      40.822   6.136  17.308  0.00  0.00    +0.000 A 
ATOM     12  C   UNL     1      39.696   5.549  17.843  0.00  0.00    +0.000 A 
ATOM     13  C   UNL     1      39.330   5.850  19.142  0.00  0.00    +0.000 A 
ATOM     14  C   UNL     1      40.088   6.724  19.877  0.00  0.00    +0.000 A 
ENDBRANCH   2  12
ENDBRANCH   1   5
BRANCH   1  15
ATOM     15  C   UNL     1      35.529   0.639  15.903  0.00  0.00    +0.000 C 
BRANCH  15  16
ATOM     16  C   UNL     1      36.467  -0.317  16.544  0.00  0.00    +0.000 A 
ATOM     17  C   UNL     1      36.255  -0.708  17.848  0.00  0.00    +0.000 A 
ATOM     18  C   UNL     1      37.114  -1.599  18.470  0.00  0.00    +0.000 A 
ATOM     19  C   UNL     1      38.201  -2.112  17.794  0.00  0.00    +0.000 A 
ATOM     20  C   UNL     1      38.428  -1.731  16.485  0.00  0.00    +0.000 A 
ATOM     21  C   UNL     1      37.563  -0.845  15.885  0.00  0.00    +0.000 A 
BRANCH  20  22
ATOM     22  C   UNL     1      39.583  -2.290  15.796  0.00  0.00    +0.000 C 
ATOM     23  O   UNL     1      40.046  -3.386  16.233  0.00  0.00    +0.000 OA
ATOM     24  N   UNL     1      40.200  -1.689  14.693  0.00  0.00    +0.000 NA
BRANCH  24  25
ATOM     25  C   UNL     1      41.348  -2.339  14.086  0.00  0.00    +0.000 C 
BRANCH  25  26
ATOM     26  C   UNL     1      42.405  -1.275  13.885  0.00  0.00    +0.000 C 
ATOM     27  C   UNL     1      43.589  -1.437  14.778  0.00  0.00    +0.000 C 
ATOM     28  C   UNL     1      41.789   0.088  13.906  0.00  0.00    +0.000 C 
ENDBRANCH  25  26
ENDBRANCH  24  25
ENDBRANCH  20  22
ENDBRANCH  15  16
ENDBRANCH   1  15
TORSDOF 7
ENDMDL
MODEL 3
REMARK VINA RESULT:      -7.7      2.654      4.111
REMARK  Name = 
REMARK  7 active torsions:
REMARK  status: ('A' for Active; 'I' for Inactive)
REMARK    1  A    between atoms: C_5  and  C_6
REMARK    2  A    between atoms: C_9  and  S_10
REMARK    3  A    between atoms: S_10  and  C_11
REMARK    4  A    between atoms: C_11  and  C_12
REMARK    5  A    between atoms: C_16  and  C_17
REMARK    6  A    between atoms: N_19  and  C_20
REMARK    7  A    between atoms: C_20  and  C_21
REMARK                            x       y       z     vdW  Elec       q    Type
REMARK                         _______ _______ _______ _____ _____    ______ ____
ROOT
ATOM      1  S   UNL     1      36.732   5.864  13.412  0.00  0.00    +0.000 S 
ENDROOT
BRANCH   1   5
ATOM      2  C   UNL     1      39.610   6.169  16.849  0.00  0.00    +0.000 A 
ATOM      3  C   UNL     1      39.867   5.271  15.849  0.00  0.00    +0.000 A 
ATOM      4  C   UNL     1      38.985   5.176  14.794  0.00  0.00    +0.000 A 
ATOM      5  C   UNL     1      37.876   5.974  14.763  0.00  0.00    +0.000 A 
ATOM      6  N   UNL     1      37.659   6.837  15.756  0.00  0.00    +0.000 NA
ATOM      7  N   UNL     1      38.505   6.946  16.795  0.00  0.00    +0.000 NA
BRANCH   2  12
ATOM      8  C   UNL     1      43.232   6.632  21.265  0.00  0.00    +0.000 C 
ATOM      9  C   UNL     1      42.302   6.515  20.092  0.00  0.00    +0.000 A 
ATOM     10  C   UNL     1      40.973   6.282  20.343  0.00  0.00    +0.000 A 
ATOM     11  C   UNL     1      40.088   6.169  19.278  0.00  0.00    +0.000 A 
ATOM     12  C   UNL     1      40.532   6.287  17.979  0.00  0.00    +0.000 A 
ATOM     13  C   UNL     1      41.875   6.521  17.743  0.00  0.00    +0.000 A 
ATOM     14  C   UNL     1      42.741   6.632  18.799  0.00  0.00    +0.000 A 
ENDBRANCH   2  12
ENDBRANCH   1   5
BRANCH   1  15
ATOM     15  C   UNL     1      36.603   4.134  12.919  0.00  0.00    +0.000 C 
BRANCH  15  16
ATOM     16  C   UNL     1      36.113   3.261  14.014  0.00  0.00    +0.000 A 
ATOM     17  C   UNL     1      35.046   3.670  14.785  0.00  0.00    +0.000 A 
ATOM     18  C   UNL     1      34.568   2.875  15.814  0.00  0.00    +0.000 A 
ATOM     19  C   UNL     1      35.153   1.656  16.086  0.00  0.00    +0.000 A 
ATOM     20  C   UNL     1      36.223   1.230  15.323  0.00  0.00    +0.000 A 
ATOM     21  C   UNL     1      36.683   2.034  14.306  0.00  0.00    +0.000 A 
BRANCH  20  22
ATOM     22  C   UNL     1      36.819  -0.062  15.635  0.00  0.00    +0.000 C 
ATOM     23  O   UNL     1      36.951  -0.886  14.681  0.00  0.00    +0.000 OA
ATOM     24  N   UNL     1      37.247  -0.437  16.914  0.00  0.00    +0.000 NA
BRANCH  24  25
ATOM     25  C   UNL     1      37.826  -1.753  17.106  0.00  0.00    +0.000 C 
BRANCH  25  26
ATOM     26  C   UNL     1      38.091  -1.909  18.588  0.00  0.00    +0.000 C 
ATOM     27  C   UNL     1      38.613  -3.256  18.960  0.00  0.00    +0.000 C 
ATOM     28  C   UNL     1      36.908  -1.456  19.383  0.00  0.00    +0.000 C 
ENDBRANCH  25  26
ENDBRANCH  24  25
ENDBRANCH  20  22
ENDBRANCH  15  16
ENDBRANCH   1  15
TORSDOF 7
ENDMDL
MODEL 4
REMARK VINA RESULT:      -7.6      2.036      2.964
REMARK  Name = 
REMARK  7 active torsions:
REMARK  status: ('A' for Active; 'I' for Inactive)
REMARK    1  A    between atoms: C_5  and  C_6
REMARK    2  A    between atoms: C_9  and  S_10
REMARK    3  A    between atoms: S_10  and  C_11
REMARK    4  A    between atoms: C_11  and  C_12
REMARK    5  A    between atoms: C_16  and  C_17
REMARK    6  A    between atoms: N_19  and  C_20
REMARK    7  A    between atoms: C_20  and  C_21
REMARK                            x       y       z     vdW  Elec       q    Type
REMARK                         _______ _______ _______ _____ _____    ______ ____
ROOT
ATOM      1  S   UNL     1      36.315   4.184  13.994  0.00  0.00    +0.000 S 
ENDROOT
BRANCH   1   5
ATOM      2  C   UNL     1      39.282   5.535  17.085  0.00  0.00    +0.000 A 
ATOM      3  C   UNL     1      38.359   4.586  17.426  0.00  0.00    +0.000 A 
ATOM      4  C   UNL     1      37.447   4.170  16.479  0.00  0.00    +0.000 A 
ATOM      5  C   UNL     1      37.480   4.708  15.223  0.00  0.00    +0.000 A 
ATOM      6  N   UNL     1      38.395   5.632  14.929  0.00  0.00    +0.000 NA
ATOM      7  N   UNL     1      39.293   6.053  15.836  0.00  0.00    +0.000 NA
BRANCH   2  12
ATOM      8  C   UNL     1      43.098   7.322  20.969  0.00  0.00    +0.000 C 
ATOM      9  C   UNL     1      42.081   6.851  19.970  0.00  0.00    +0.000 A 
ATOM     10  C   UNL     1      42.467   6.745  18.657  0.00  0.00    +0.000 A 
ATOM     11  C   UNL     1      41.548   6.313  17.709  0.00  0.00    +0.000 A 
ATOM     12  C   UNL     1      40.259   5.992  18.075  0.00  0.00    +0.000 A 
ATOM     13  C   UNL     1      39.885   6.104  19.402  0.00  0.00    +0.000 A 
ATOM     14  C   UNL     1      40.798   6.532  20.330  0.00  0.00    +0.000 A 
ENDBRANCH   2  12
ENDBRANCH   1   5
BRANCH   1  15
ATOM     15  C   UNL     1      37.186   3.170  12.783  0.00  0.00    +0.000 C 
BRANCH  15  16
ATOM     16  C   UNL     1      38.046   2.138  13.413  0.00  0.00    +0.000 A 
ATOM     17  C   UNL     1      39.400   2.130  13.154  0.00  0.00    +0.000 A 
ATOM     18  C   UNL     1      40.226   1.178  13.729  0.00  0.00    +0.000 A 
ATOM     19  C   UNL     1      39.708   0.219  14.573  0.00  0.00    +0.000 A 
ATOM     20  C   UNL     1      38.353   0.214  14.845  0.00  0.00    +0.000 A 
ATOM     21  C   UNL     1      37.549   1.167  14.264  0.00  0.00    +0.000 A 
BRANCH  20  22
ATOM     22  C   UNL     1      37.836  -0.811  15.742  0.00  0.00    +0.000 C 
ATOM     23  O   UNL     1      36.707  -1.313  15.461  0.00  0.00    +0.000 OA
ATOM     24  N   UNL     1      38.510  -1.263  16.882  0.00  0.00    +0.000 NA
BRANCH  24  25
ATOM     25  C   UNL     1      37.896  -2.290  17.704  0.00  0.00    +0.000 C 
BRANCH  25  26
ATOM     26  C   UNL     1      37.644  -1.677  19.065  0.00  0.00    +0.000 C 
ATOM     27  C   UNL     1      37.764  -2.653  20.187  0.00  0.00    +0.000 C 
ATOM     28  C   UNL     1      36.375  -0.885  19.058  0.00  0.00    +0.000 C 
ENDBRANCH  25  26
ENDBRANCH  24  25
ENDBRANCH  20  22
ENDBRANCH  15  16
ENDBRANCH   1  15
TORSDOF 7
ENDMDL
MODEL 5
REMARK VINA RESULT:      -7.5      7.702     10.663
REMARK  Name = 
REMARK  7 active torsions:
REMARK  status: ('A' for Active; 'I' for Inactive)
REMARK    1  A    between atoms: C_5  and  C_6
REMARK    2  A    between atoms: C_9  and  S_10
REMARK    3  A    between atoms: S_10  and  C_11
REMARK    4  A    between atoms: C_11  and  C_12
REMARK    5  A    between atoms: C_16  and  C_17
REMARK    6  A    between atoms: N_19  and  C_20
REMARK    7  A    between atoms: C_20  and  C_21
REMARK                            x       y       z     vdW  Elec       q    Type
REMARK                         _______ _______ _______ _____ _____    ______ ____
ROOT
ATOM      1  S   UNL     1      45.891   5.445  24.181  0.00  0.00    +0.000 S 
ENDROOT
BRANCH   1   5
ATOM      2  C   UNL     1      42.602   5.611  27.236  0.00  0.00    +0.000 A 
ATOM      3  C   UNL     1      43.206   4.411  26.980  0.00  0.00    +0.000 A 
ATOM      4  C   UNL     1      44.215   4.358  26.042  0.00  0.00    +0.000 A 
ATOM      5  C   UNL     1      44.595   5.497  25.389  0.00  0.00    +0.000 A 
ATOM      6  N   UNL     1      43.982   6.648  25.666  0.00  0.00    +0.000 NA
ATOM      7  N   UNL     1      42.995   6.723  26.576  0.00  0.00    +0.000 NA
BRANCH   2  12
ATOM      8  C   UNL     1      38.399   5.909  31.121  0.00  0.00    +0.000 C 
ATOM      9  C   UNL     1      39.505   5.807  30.110  0.00  0.00    +0.000 A 
ATOM     10  C   UNL     1      39.761   6.900  29.320  0.00  0.00    +0.000 A 
ATOM     11  C   UNL     1      40.777   6.836  28.376  0.00  0.00    +0.000 A 
ATOM     12  C   UNL     1      41.528   5.690  28.227  0.00  0.00    +0.000 A 
ATOM     13  C   UNL     1      41.258   4.597  29.031  0.00  0.00    +0.000 A 
ATOM     14  C   UNL     1      40.253   4.668  29.960  0.00  0.00    +0.000 A 
ENDBRANCH   2  12
ENDBRANCH   1   5
BRANCH   1  15
ATOM     15  C   UNL     1      45.289   4.542  22.741  0.00  0.00    +0.000 C 
BRANCH  15  16
ATOM     16  C   UNL     1      44.873   5.439  21.635  0.00  0.00    +0.000 A 
ATOM     17  C   UNL     1      45.822   5.931  20.764  0.00  0.00    +0.000 A 
ATOM     18  C   UNL     1      45.462   6.770  19.722  0.00  0.00    +0.000 A 
ATOM     19  C   UNL     1      44.144   7.130  19.537  0.00  0.00    +0.000 A 
ATOM     20  C   UNL     1      43.179   6.646  20.400  0.00  0.00    +0.000 A 
ATOM     21  C   UNL     1      43.557   5.814  21.429  0.00  0.00    +0.000 A 
BRANCH  20  22
ATOM     22  C   UNL     1      41.795   7.044  20.179  0.00  0.00    +0.000 C 
ATOM     23  O   UNL     1      41.516   8.273  20.305  0.00  0.00    +0.000 OA
ATOM     24  N   UNL     1      40.772   6.151  19.839  0.00  0.00    +0.000 NA
BRANCH  24  25
ATOM     25  C   UNL     1      39.428   6.662  19.643  0.00  0.00    +0.000 C 
BRANCH  25  26
ATOM     26  C   UNL     1      38.937   6.120  18.318  0.00  0.00    +0.000 C 
ATOM     27  C   UNL     1      38.573   4.674  18.365  0.00  0.00    +0.000 C 
ATOM     28  C   UNL     1      39.879   6.492  17.217  0.00  0.00    +0.000 C 
ENDBRANCH  25  26
ENDBRANCH  24  25
ENDBRANCH  20  22
ENDBRANCH  15  16
ENDBRANCH   1  15
TORSDOF 7
ENDMDL
MODEL 6
REMARK VINA RESULT:      -7.3      3.942      9.674
REMARK  Name = 
REMARK  7 active torsions:
REMARK  status: ('A' for Active; 'I' for Inactive)
REMARK    1  A    between atoms: C_5  and  C_6
REMARK    2  A    between atoms: C_9  and  S_10
REMARK    3  A    between atoms: S_10  and  C_11
REMARK    4  A    between atoms: C_11  and  C_12
REMARK    5  A    between atoms: C_16  and  C_17
REMARK    6  A    between atoms: N_19  and  C_20
REMARK    7  A    between atoms: C_20  and  C_21
REMARK                            x       y       z     vdW  Elec       q    Type
REMARK                         _______ _______ _______ _____ _____    ______ ____
ROOT
ATOM      1  S   UNL     1      38.046   4.839  16.611  0.00  0.00    +0.000 S 
ENDROOT
BRANCH   1   5
ATOM      2  C   UNL     1      36.534   0.649  16.027  0.00  0.00    +0.000 A 
ATOM      3  C   UNL     1      35.819   1.505  16.818  0.00  0.00    +0.000 A 
ATOM      4  C   UNL     1      36.282   2.791  16.999  0.00  0.00    +0.000 A 
ATOM      5  C   UNL     1      37.438   3.188  16.389  0.00  0.00    +0.000 A 
ATOM      6  N   UNL     1      38.107   2.325  15.624  0.00  0.00    +0.000 NA
ATOM      7  N   UNL     1      37.675   1.066  15.435  0.00  0.00    +0.000 NA
BRANCH   2  12
ATOM      8  C   UNL     1      34.676  -4.714  15.232  0.00  0.00    +0.000 C 
ATOM      9  C   UNL     1      35.147  -3.306  15.460  0.00  0.00    +0.000 A 
ATOM     10  C   UNL     1      36.114  -2.806  14.625  0.00  0.00    +0.000 A 
ATOM     11  C   UNL     1      36.570  -1.507  14.810  0.00  0.00    +0.000 A 
ATOM     12  C   UNL     1      36.062  -0.721  15.821  0.00  0.00    +0.000 A 
ATOM     13  C   UNL     1      35.087  -1.240  16.654  0.00  0.00    +0.000 A 
ATOM     14  C   UNL     1      34.642  -2.522  16.464  0.00  0.00    +0.000 A 
ENDBRANCH   2  12
ENDBRANCH   1   5
BRANCH   1  15
ATOM     15  C   UNL     1      38.952   4.904  18.170  0.00  0.00    +0.000 C 
BRANCH  15  16
ATOM     16  C   UNL     1      38.917   6.249  18.796  0.00  0.00    +0.000 A 
ATOM     17  C   UNL     1      39.801   6.550  19.810  0.00  0.00    +0.000 A 
ATOM     18  C   UNL     1      39.791   7.798  20.412  0.00  0.00    +0.000 A 
ATOM     19  C   UNL     1      38.894   8.763  20.007  0.00  0.00    +0.000 A 
ATOM     20  C   UNL     1      38.002   8.478  18.992  0.00  0.00    +0.000 A 
ATOM     21  C   UNL     1      38.027   7.234  18.406  0.00  0.00    +0.000 A 
BRANCH  20  22
ATOM     22  C   UNL     1      37.067   9.519  18.585  0.00  0.00    +0.000 C 
ATOM     23  O   UNL     1      37.298  10.698  18.987  0.00  0.00    +0.000 OA
ATOM     24  N   UNL     1      35.942   9.288  17.784  0.00  0.00    +0.000 NA
BRANCH  24  25
ATOM     25  C   UNL     1      35.080  10.404  17.442  0.00  0.00    +0.000 C 
BRANCH  25  26
ATOM     26  C   UNL     1      34.354  10.029  16.168  0.00  0.00    +0.000 C 
ATOM     27  C   UNL     1      35.068   9.000  15.358  0.00  0.00    +0.000 C 
ATOM     28  C   UNL     1      33.955  11.256  15.410  0.00  0.00    +0.000 C 
ENDBRANCH  25  26
ENDBRANCH  24  25
ENDBRANCH  20  22
ENDBRANCH  15  16
ENDBRANCH   1  15
TORSDOF 7
ENDMDL
MODEL 7
REMARK VINA RESULT:      -7.0      2.886      4.469
REMARK  Name = 
REMARK  7 active torsions:
REMARK  status: ('A' for Active; 'I' for Inactive)
REMARK    1  A    between atoms: C_5  and  C_6
REMARK    2  A    between atoms: C_9  and  S_10
REMARK    3  A    between atoms: S_10  and  C_11
REMARK    4  A    between atoms: C_11  and  C_12
REMARK    5  A    between atoms: C_16  and  C_17
REMARK    6  A    between atoms: N_19  and  C_20
REMARK    7  A    between atoms: C_20  and  C_21
REMARK                            x       y       z     vdW  Elec       q    Type
REMARK                         _______ _______ _______ _____ _____    ______ ____
ROOT
ATOM      1  S   UNL     1      37.342   5.781  14.194  0.00  0.00    +0.000 S 
ENDROOT
BRANCH   1   5
ATOM      2  C   UNL     1      40.466   6.241  17.390  0.00  0.00    +0.000 A 
ATOM      3  C   UNL     1      39.188   5.920  17.756  0.00  0.00    +0.000 A 
ATOM      4  C   UNL     1      38.228   5.779  16.777  0.00  0.00    +0.000 A 
ATOM      5  C   UNL     1      38.566   5.959  15.465  0.00  0.00    +0.000 A 
ATOM      6  N   UNL     1      39.822   6.272  15.147  0.00  0.00    +0.000 NA
ATOM      7  N   UNL     1      40.774   6.415  16.085  0.00  0.00    +0.000 NA
BRANCH   2  12
ATOM      8  C   UNL     1      44.511   6.848  21.404  0.00  0.00    +0.000 C 
ATOM      9  C   UNL     1      43.434   6.684  20.370  0.00  0.00    +0.000 A 
ATOM     10  C   UNL     1      43.775   6.851  19.051  0.00  0.00    +0.000 A 
ATOM     11  C   UNL     1      42.801   6.705  18.072  0.00  0.00    +0.000 A 
ATOM     12  C   UNL     1      41.502   6.397  18.412  0.00  0.00    +0.000 A 
ATOM     13  C   UNL     1      41.174   6.232  19.746  0.00  0.00    +0.000 A 
ATOM     14  C   UNL     1      42.141   6.377  20.706  0.00  0.00    +0.000 A 
ENDBRANCH   2  12
ENDBRANCH   1   5
BRANCH   1  15
ATOM     15  C   UNL     1      37.279   4.045  13.709  0.00  0.00    +0.000 C 
BRANCH  15  16
ATOM     16  C   UNL     1      36.435   3.227  14.616  0.00  0.00    +0.000 A 
ATOM     17  C   UNL     1      35.148   3.632  14.896  0.00  0.00    +0.000 A 
ATOM     18  C   UNL     1      34.338   2.888  15.739  0.00  0.00    +0.000 A 
ATOM     19  C   UNL     1      34.807   1.726  16.314  0.00  0.00    +0.000 A 
ATOM     20  C   UNL     1      36.095   1.305  16.044  0.00  0.00    +0.000 A 
ATOM     21  C   UNL     1      36.883   2.058  15.204  0.00  0.00    +0.000 A 
BRANCH  20  22
ATOM     22  C   UNL     1      36.562   0.073  16.665  0.00  0.00    +0.000 C 
ATOM     23  O   UNL     1      36.871   0.122  17.893  0.00  0.00    +0.000 OA
ATOM     24  N   UNL     1      36.686  -1.145  15.986  0.00  0.00    +0.000 NA
BRANCH  24  25
ATOM     25  C   UNL     1      37.163  -2.309  16.709  0.00  0.00    +0.000 C 
BRANCH  25  26
ATOM     26  C   UNL     1      36.120  -3.393  16.542  0.00  0.00    +0.000 C 
ATOM     27  C   UNL     1      36.702  -4.754  16.357  0.00  0.00    +0.000 C 
ATOM     28  C   UNL     1      35.113  -2.998  15.510  0.00  0.00    +0.000 C 
ENDBRANCH  25  26
ENDBRANCH  24  25
ENDBRANCH  20  22
ENDBRANCH  15  16
ENDBRANCH   1  15
TORSDOF 7
ENDMDL
MODEL 8
REMARK VINA RESULT:      -7.0     25.751     28.415
REMARK  Name = 
REMARK  7 active torsions:
REMARK  status: ('A' for Active; 'I' for Inactive)
REMARK    1  A    between atoms: C_5  and  C_6
REMARK    2  A    between atoms: C_9  and  S_10
REMARK    3  A    between atoms: S_10  and  C_11
REMARK    4  A    between atoms: C_11  and  C_12
REMARK    5  A    between atoms: C_16  and  C_17
REMARK    6  A    between atoms: N_19  and  C_20
REMARK    7  A    between atoms: C_20  and  C_21
REMARK                            x       y       z     vdW  Elec       q    Type
REMARK                         _______ _______ _______ _____ _____    ______ ____
ROOT
ATOM      1  S   UNL     1      27.046  16.365  38.762  0.00  0.00    +0.000 S 
ENDROOT
BRANCH   1   5
ATOM      2  C   UNL     1      27.658  12.362  40.707  0.00  0.00    +0.000 A 
ATOM      3  C   UNL     1      28.722  13.216  40.602  0.00  0.00    +0.000 A 
ATOM      4  C   UNL     1      28.536  14.444  40.005  0.00  0.00    +0.000 A 
ATOM      5  C   UNL     1      27.301  14.788  39.532  0.00  0.00    +0.000 A 
ATOM      6  N   UNL     1      26.289  13.930  39.653  0.00  0.00    +0.000 NA
ATOM      7  N   UNL     1      26.447  12.726  40.230  0.00  0.00    +0.000 NA
BRANCH   2  12
ATOM      8  C   UNL     1      28.331   7.229  43.166  0.00  0.00    +0.000 C 
ATOM      9  C   UNL     1      28.136   8.565  42.507  0.00  0.00    +0.000 A 
ATOM     10  C   UNL     1      28.963   9.595  42.879  0.00  0.00    +0.000 A 
ATOM     11  C   UNL     1      28.807  10.842  42.288  0.00  0.00    +0.000 A 
ATOM     12  C   UNL     1      27.833  11.052  41.337  0.00  0.00    +0.000 A 
ATOM     13  C   UNL     1      27.007  10.004  40.973  0.00  0.00    +0.000 A 
ATOM     14  C   UNL     1      27.168   8.777  41.561  0.00  0.00    +0.000 A 
ENDBRANCH   2  12
ENDBRANCH   1   5
BRANCH   1  15
ATOM     15  C   UNL     1      25.487  16.308  37.857  0.00  0.00    +0.000 C 
BRANCH  15  16
ATOM     16  C   UNL     1      25.672  16.011  36.415  0.00  0.00    +0.000 A 
ATOM     17  C   UNL     1      26.439  14.931  36.035  0.00  0.00    +0.000 A 
ATOM     18  C   UNL     1      26.629  14.632  34.696  0.00  0.00    +0.000 A 
ATOM     19  C   UNL     1      26.052  15.411  33.715  0.00  0.00    +0.000 A 
ATOM     20  C   UNL     1      25.279  16.497  34.078  0.00  0.00    +0.000 A 
ATOM     21  C   UNL     1      25.103  16.778  35.413  0.00  0.00    +0.000 A 
BRANCH  20  22
ATOM     22  C   UNL     1      24.682  17.301  33.020  0.00  0.00    +0.000 C 
ATOM     23  O   UNL     1      24.815  16.888  31.830  0.00  0.00    +0.000 OA
ATOM     24  N   UNL     1      23.978  18.490  33.246  0.00  0.00    +0.000 NA
BRANCH  24  25
ATOM     25  C   UNL     1      23.426  19.209  32.113  0.00  0.00    +0.000 C 
BRANCH  25  26
ATOM     26  C   UNL     1      23.158  20.625  32.574  0.00  0.00    +0.000 C 
ATOM     27  C   UNL     1      22.386  21.435  31.587  0.00  0.00    +0.000 C 
ATOM     28  C   UNL     1      24.419  21.267  33.059  0.00  0.00    +0.000 C 
ENDBRANCH  25  26
ENDBRANCH  24  25
ENDBRANCH  20  22
ENDBRANCH  15  16
ENDBRANCH   1  15
TORSDOF 7
ENDMDL
MODEL 9
REMARK VINA RESULT:      -6.9      7.456     10.894
REMARK  Name = 
REMARK  7 active torsions:
REMARK  status: ('A' for Active; 'I' for Inactive)
REMARK    1  A    between atoms: C_5  and  C_6
REMARK    2  A    between atoms: C_9  and  S_10
REMARK    3  A    between atoms: S_10  and  C_11
REMARK    4  A    between atoms: C_11  and  C_12
REMARK    5  A    between atoms: C_16  and  C_17
REMARK    6  A    between atoms: N_19  and  C_20
REMARK    7  A    between atoms: C_20  and  C_21
REMARK                            x       y       z     vdW  Elec       q    Type
REMARK                         _______ _______ _______ _____ _____    ______ ____
ROOT
ATOM      1  S   UNL     1      45.018   8.745  23.065  0.00  0.00    +0.000 S 
ENDROOT
BRANCH   1   5
ATOM      2  C   UNL     1      42.115   7.048  20.086  0.00  0.00    +0.000 A 
ATOM      3  C   UNL     1      42.843   6.189  20.863  0.00  0.00    +0.000 A 
ATOM      4  C   UNL     1      43.734   6.708  21.777  0.00  0.00    +0.000 A 
ATOM      5  C   UNL     1      43.876   8.062  21.893  0.00  0.00    +0.000 A 
ATOM      6  N   UNL     1      43.149   8.867  21.118  0.00  0.00    +0.000 NA
ATOM      7  N   UNL     1      42.274   8.384  20.219  0.00  0.00    +0.000 NA
BRANCH   2  12
ATOM      8  C   UNL     1      38.379   4.975  16.266  0.00  0.00    +0.000 C 
ATOM      9  C   UNL     1      39.341   5.515  17.285  0.00  0.00    +0.000 A 
ATOM     10  C   UNL     1      40.574   5.934  16.851  0.00  0.00    +0.000 A 
ATOM     11  C   UNL     1      41.485   6.438  17.770  0.00  0.00    +0.000 A 
ATOM     12  C   UNL     1      41.163   6.519  19.107  0.00  0.00    +0.000 A 
ATOM     13  C   UNL     1      39.917   6.093  19.529  0.00  0.00    +0.000 A 
ATOM     14  C   UNL     1      39.024   5.597  18.616  0.00  0.00    +0.000 A 
ENDBRANCH   2  12
ENDBRANCH   1   5
BRANCH   1  15
ATOM     15  C   UNL     1      44.319   8.551  24.717  0.00  0.00    +0.000 C 
BRANCH  15  16
ATOM     16  C   UNL     1      44.479   7.175  25.248  0.00  0.00    +0.000 A 
ATOM     17  C   UNL     1      45.590   6.437  24.901  0.00  0.00    +0.000 A 
ATOM     18  C   UNL     1      45.765   5.150  25.383  0.00  0.00    +0.000 A 
ATOM     19  C   UNL     1      44.828   4.582  26.220  0.00  0.00    +0.000 A 
ATOM     20  C   UNL     1      43.708   5.308  26.578  0.00  0.00    +0.000 A 
ATOM     21  C   UNL     1      43.553   6.584  26.089  0.00  0.00    +0.000 A 
BRANCH  20  22
ATOM     22  C   UNL     1      42.737   4.682  27.465  0.00  0.00    +0.000 C 
ATOM     23  O   UNL     1      42.919   3.463  27.760  0.00  0.00    +0.000 OA
ATOM     24  N   UNL     1      41.627   5.346  28.000  0.00  0.00    +0.000 NA
BRANCH  24  25
ATOM     25  C   UNL     1      40.724   4.620  28.873  0.00  0.00    +0.000 C 
BRANCH  25  26
ATOM     26  C   UNL     1      40.452   5.508  30.068  0.00  0.00    +0.000 C 
ATOM     27  C   UNL     1      39.658   6.726  29.735  0.00  0.00    +0.000 C 
ATOM     28  C   UNL     1      41.715   5.773  30.824  0.00  0.00    +0.000 C 
ENDBRANCH  25  26
ENDBRANCH  24  25
ENDBRANCH  20  22
ENDBRANCH  15  16
ENDBRANCH   1  15
TORSDOF 7
ENDMDL
MODEL 10
REMARK VINA RESULT:      -6.9      4.085      9.190
REMARK  Name = 
REMARK  7 active torsions:
REMARK  status: ('A' for Active; 'I' for Inactive)
REMARK    1  A    between atoms: C_5  and  C_6
REMARK    2  A    between atoms: C_9  and  S_10
REMARK    3  A    between atoms: S_10  and  C_11
REMARK    4  A    between atoms: C_11  and  C_12
REMARK    5  A    between atoms: C_16  and  C_17
REMARK    6  A    between atoms: N_19  and  C_20
REMARK    7  A    between atoms: C_20  and  C_21
REMARK                            x       y       z     vdW  Elec       q    Type
REMARK                         _______ _______ _______ _____ _____    ______ ____
ROOT
ATOM      1  S   UNL     1      36.272   7.005  13.104  0.00  0.00    +0.000 S 
ENDROOT
BRANCH   1   5
ATOM      2  C   UNL     1      35.804   2.883  14.828  0.00  0.00    +0.000 A 
ATOM      3  C   UNL     1      34.738   3.739  14.864  0.00  0.00    +0.000 A 
ATOM      4  C   UNL     1      34.880   5.005  14.336  0.00  0.00    +0.000 A 
ATOM      5  C   UNL     1      36.074   5.381  13.788  0.00  0.00    +0.000 A 
ATOM      6  N   UNL     1      37.090   4.518  13.771  0.00  0.00    +0.000 NA
ATOM      7  N   UNL     1      36.975   3.280  14.281  0.00  0.00    +0.000 NA
BRANCH   2  12
ATOM      8  C   UNL     1      35.310  -2.401  16.993  0.00  0.00    +0.000 C 
ATOM      9  C   UNL     1      35.453  -1.025  16.406  0.00  0.00    +0.000 A 
ATOM     10  C   UNL     1      34.866   0.023  17.069  0.00  0.00    +0.000 A 
ATOM     11  C   UNL     1      34.981   1.307  16.552  0.00  0.00    +0.000 A 
ATOM     12  C   UNL     1      35.676   1.535  15.384  0.00  0.00    +0.000 A 
ATOM     13  C   UNL     1      36.263   0.467  14.728  0.00  0.00    +0.000 A 
ATOM     14  C   UNL     1      36.144  -0.796  15.245  0.00  0.00    +0.000 A 
ENDBRANCH   2  12
ENDBRANCH   1   5
BRANCH   1  15
ATOM     15  C   UNL     1      34.876   8.017  13.633  0.00  0.00    +0.000 C 
BRANCH  15  16
ATOM     16  C   UNL     1      35.091   8.640  14.963  0.00  0.00    +0.000 A 
ATOM     17  C   UNL     1      34.075   9.364  15.548  0.00  0.00    +0.000 A 
ATOM     18  C   UNL     1      34.249   9.956  16.788  0.00  0.00    +0.000 A 
ATOM     19  C   UNL     1      35.446   9.831  17.462  0.00  0.00    +0.000 A 
ATOM     20  C   UNL     1      36.475   9.108  16.890  0.00  0.00    +0.000 A 
ATOM     21  C   UNL     1      36.283   8.528  15.658  0.00  0.00    +0.000 A 
BRANCH  20  22
ATOM     22  C   UNL     1      37.727   8.993  17.626  0.00  0.00    +0.000 C 
ATOM     23  O   UNL     1      38.697   9.710  17.239  0.00  0.00    +0.000 OA
ATOM     24  N   UNL     1      37.912   8.144  18.723  0.00  0.00    +0.000 NA
BRANCH  24  25
ATOM     25  C   UNL     1      39.206   8.112  19.380  0.00  0.00    +0.000 C 
BRANCH  25  26
ATOM     26  C   UNL     1      39.497   6.665  19.716  0.00  0.00    +0.000 C 
ATOM     27  C   UNL     1      40.914   6.421  20.111  0.00  0.00    +0.000 C 
ATOM     28  C   UNL     1      38.984   5.763  18.639  0.00  0.00    +0.000 C 
ENDBRANCH  25  26
ENDBRANCH  24  25
ENDBRANCH  20  22
ENDBRANCH  15  16
ENDBRANCH   1  15
TORSDOF 7
ENDMDL
