MODEL 1
REMARK VINA RESULT:      -5.1      0.000      0.000
REMARK  Name = 
REMARK  5 active torsions:
REMARK  status: ('A' for Active; 'I' for Inactive)
REMARK    1  A    between atoms: C_2  and  C_3
REMARK    2  A    between atoms: C_8  and  N_9
REMARK    3  A    between atoms: N_9  and  C_11
REMARK    4  A    between atoms: C_11  and  N_13
REMARK    5  A    between atoms: N_13  and  C_14
REMARK                            x       y       z     vdW  Elec       q    Type
REMARK                         _______ _______ _______ _____ _____    ______ ____
ROOT
ATOM      1  N   UNL     1      26.792  23.985  23.508  0.00  0.00    +0.000 N 
ATOM      2  C   UNL     1      25.705  23.191  23.096  0.00  0.00    +0.000 C 
ENDROOT
BRANCH   1   8
ATOM      3  C   UNL     1      26.593  23.486  27.274  0.00  0.00    +0.000 C 
ATOM      4  C   UNL     1      25.293  24.490  27.350  0.00  0.00    +0.000 C 
ATOM      5  C   UNL     1      25.535  25.699  26.586  0.00  0.00    +0.000 C 
ATOM      6  C   UNL     1      25.296  25.229  25.000  0.00  0.00    +0.000 C 
ATOM      7  O   UNL     1      25.808  26.588  24.484  0.00  0.00    +0.000 OA
ATOM      8  C   UNL     1      26.901  24.565  24.941  0.00  0.00    +0.000 C 
ATOM      9  C   UNL     1      26.462  23.187  25.672  0.00  0.00    +0.000 C 
BRANCH   3  11
ATOM     10  C   UNL     1      28.627  24.446  28.181  0.00  0.00    +0.000 C 
ATOM     11  C   UNL     1      27.718  24.651  27.249  0.00  0.00    +0.000 C 
ENDBRANCH   3  11
ENDBRANCH   1   8
BRANCH   1  12
ATOM     12  C   UNL     1      27.841  24.298  22.648  0.00  0.00    +0.000 C 
ATOM     13  S   UNL     1      27.673  25.498  21.571  0.00  0.00    +0.000 S 
BRANCH  12  14
ATOM     14  N   UNL     1      29.070  23.591  22.684  0.00  0.00    +0.000 NA
BRANCH  14  15
ATOM     15  C   UNL     1      29.910  23.593  23.820  0.00  0.00    +0.000 A 
ATOM     16  C   UNL     1      30.662  24.711  24.111  0.00  0.00    +0.000 A 
ATOM     17  C   UNL     1      31.499  24.780  25.198  0.00  0.00    +0.000 A 
ATOM     18  C   UNL     1      31.590  23.696  26.028  0.00  0.00    +0.000 A 
ATOM     19  C   UNL     1      30.859  22.574  25.769  0.00  0.00    +0.000 A 
ATOM     20  C   UNL     1      30.036  22.529  24.684  0.00  0.00    +0.000 A 
ENDBRANCH  14  15
ENDBRANCH  12  14
ENDBRANCH   1  12
TORSDOF 5
ENDMDL
MODEL 2
REMARK VINA RESULT:      -5.1     23.458     25.165
REMARK  Name = 
REMARK  5 active torsions:
REMARK  status: ('A' for Active; 'I' for Inactive)
REMARK    1  A    between atoms: C_2  and  C_3
REMARK    2  A    between atoms: C_8  and  N_9
REMARK    3  A    between atoms: N_9  and  C_11
REMARK    4  A    between atoms: C_11  and  N_13
REMARK    5  A    between atoms: N_13  and  C_14
REMARK                            x       y       z     vdW  Elec       q    Type
REMARK                         _______ _______ _______ _____ _____    ______ ____
ROOT
ATOM      1  N   UNL     1      35.500   3.179  37.382  0.00  0.00    +0.000 N 
ATOM      2  C   UNL     1      36.840   3.506  37.665  0.00  0.00    +0.000 C 
ENDROOT
BRANCH   1   8
ATOM      3  C   UNL     1      34.707   5.824  34.765  0.00  0.00    +0.000 C 
ATOM      4  C   UNL     1      34.617   6.974  35.937  0.00  0.00    +0.000 C 
ATOM      5  C   UNL     1      33.819   6.505  37.054  0.00  0.00    +0.000 C 
ATOM      6  C   UNL     1      34.849   5.489  37.889  0.00  0.00    +0.000 C 
ATOM      7  O   UNL     1      33.705   5.030  38.814  0.00  0.00    +0.000 OA
ATOM      8  C   UNL     1      34.508   4.202  36.773  0.00  0.00    +0.000 C 
ATOM      9  C   UNL     1      35.553   4.754  35.665  0.00  0.00    +0.000 C 
BRANCH   3  11
ATOM     10  C   UNL     1      32.525   5.293  33.848  0.00  0.00    +0.000 C 
ATOM     11  C   UNL     1      33.211   5.240  34.972  0.00  0.00    +0.000 C 
ENDBRANCH   3  11
ENDBRANCH   1   8
BRANCH   1  12
ATOM     12  C   UNL     1      34.983   1.912  37.635  0.00  0.00    +0.000 C 
ATOM     13  S   UNL     1      35.708   0.943  38.713  0.00  0.00    +0.000 S 
BRANCH  12  14
ATOM     14  N   UNL     1      33.825   1.433  36.970  0.00  0.00    +0.000 NA
BRANCH  14  15
ATOM     15  C   UNL     1      33.891   0.763  35.728  0.00  0.00    +0.000 A 
ATOM     16  C   UNL     1      33.578   1.439  34.568  0.00  0.00    +0.000 A 
ATOM     17  C   UNL     1      33.620   0.848  33.330  0.00  0.00    +0.000 A 
ATOM     18  C   UNL     1      33.988  -0.466  33.241  0.00  0.00    +0.000 A 
ATOM     19  C   UNL     1      34.305  -1.165  34.368  0.00  0.00    +0.000 A 
ATOM     20  C   UNL     1      34.256  -0.557  35.586  0.00  0.00    +0.000 A 
ENDBRANCH  14  15
ENDBRANCH  12  14
ENDBRANCH   1  12
TORSDOF 5
ENDMDL
MODEL 3
REMARK VINA RESULT:      -5.1      2.378      4.581
REMARK  Name = 
REMARK  5 active torsions:
REMARK  status: ('A' for Active; 'I' for Inactive)
REMARK    1  A    between atoms: C_2  and  C_3
REMARK    2  A    between atoms: C_8  and  N_9
REMARK    3  A    between atoms: N_9  and  C_11
REMARK    4  A    between atoms: C_11  and  N_13
REMARK    5  A    between atoms: N_13  and  C_14
REMARK                            x       y       z     vdW  Elec       q    Type
REMARK                         _______ _______ _______ _____ _____    ______ ____
ROOT
ATOM      1  N   UNL     1      26.788  24.993  25.276  0.00  0.00    +0.000 N 
ATOM      2  C   UNL     1      26.407  26.308  24.947  0.00  0.00    +0.000 C 
ENDROOT
BRANCH   1   8
ATOM      3  C   UNL     1      30.167  24.944  23.529  0.00  0.00    +0.000 C 
ATOM      4  C   UNL     1      29.430  24.682  22.083  0.00  0.00    +0.000 C 
ATOM      5  C   UNL     1      28.431  23.636  22.201  0.00  0.00    +0.000 C 
ATOM      6  C   UNL     1      27.130  24.399  22.921  0.00  0.00    +0.000 C 
ATOM      7  O   UNL     1      26.390  23.058  23.086  0.00  0.00    +0.000 OA
ATOM      8  C   UNL     1      27.872  24.220  24.482  0.00  0.00    +0.000 C 
ATOM      9  C   UNL     1      28.832  25.510  24.282  0.00  0.00    +0.000 C 
BRANCH   3  11
ATOM     10  C   UNL     1      31.296  23.056  24.549  0.00  0.00    +0.000 C 
ATOM     11  C   UNL     1      30.137  23.404  24.028  0.00  0.00    +0.000 C 
ENDBRANCH   3  11
ENDBRANCH   1   8
BRANCH   1  12
ATOM     12  C   UNL     1      26.211  24.305  26.339  0.00  0.00    +0.000 C 
ATOM     13  S   UNL     1      24.931  24.933  27.109  0.00  0.00    +0.000 S 
BRANCH  12  14
ATOM     14  N   UNL     1      26.714  23.052  26.776  0.00  0.00    +0.000 NA
BRANCH  14  15
ATOM     15  C   UNL     1      27.547  22.928  27.910  0.00  0.00    +0.000 A 
ATOM     16  C   UNL     1      28.905  23.126  27.786  0.00  0.00    +0.000 A 
ATOM     17  C   UNL     1      29.771  23.019  28.847  0.00  0.00    +0.000 A 
ATOM     18  C   UNL     1      29.266  22.705  30.078  0.00  0.00    +0.000 A 
ATOM     19  C   UNL     1      27.926  22.501  30.236  0.00  0.00    +0.000 A 
ATOM     20  C   UNL     1      27.088  22.613  29.169  0.00  0.00    +0.000 A 
ENDBRANCH  14  15
ENDBRANCH  12  14
ENDBRANCH   1  12
TORSDOF 5
ENDMDL
MODEL 4
REMARK VINA RESULT:      -5.0      2.333      4.264
REMARK  Name = 
REMARK  5 active torsions:
REMARK  status: ('A' for Active; 'I' for Inactive)
REMARK    1  A    between atoms: C_2  and  C_3
REMARK    2  A    between atoms: C_8  and  N_9
REMARK    3  A    between atoms: N_9  and  C_11
REMARK    4  A    between atoms: C_11  and  N_13
REMARK    5  A    between atoms: N_13  and  C_14
REMARK                            x       y       z     vdW  Elec       q    Type
REMARK                         _______ _______ _______ _____ _____    ______ ____
ROOT
ATOM      1  N   UNL     1      27.193  24.509  26.496  0.00  0.00    +0.000 N 
ATOM      2  C   UNL     1      26.298  23.608  27.102  0.00  0.00    +0.000 C 
ENDROOT
BRANCH   1   8
ATOM      3  C   UNL     1      30.128  22.234  25.673  0.00  0.00    +0.000 C 
ATOM      4  C   UNL     1      30.513  22.134  27.269  0.00  0.00    +0.000 C 
ATOM      5  C   UNL     1      30.502  23.449  27.881  0.00  0.00    +0.000 C 
ATOM      6  C   UNL     1      28.879  23.772  28.116  0.00  0.00    +0.000 C 
ATOM      7  O   UNL     1      29.193  25.218  28.544  0.00  0.00    +0.000 OA
ATOM      8  C   UNL     1      28.721  24.261  26.456  0.00  0.00    +0.000 C 
ATOM      9  C   UNL     1      28.592  22.739  25.918  0.00  0.00    +0.000 C 
BRANCH   3  11
ATOM     10  C   UNL     1      31.708  23.567  24.408  0.00  0.00    +0.000 C 
ATOM     11  C   UNL     1      30.850  23.657  25.403  0.00  0.00    +0.000 C 
ENDBRANCH   3  11
ENDBRANCH   1   8
BRANCH   1  12
ATOM     12  C   UNL     1      26.755  25.685  25.892  0.00  0.00    +0.000 C 
ATOM     13  S   UNL     1      26.564  27.028  26.780  0.00  0.00    +0.000 S 
BRANCH  12  14
ATOM     14  N   UNL     1      26.467  25.747  24.504  0.00  0.00    +0.000 NA
BRANCH  14  15
ATOM     15  C   UNL     1      27.399  25.348  23.521  0.00  0.00    +0.000 A 
ATOM     16  C   UNL     1      28.472  26.161  23.225  0.00  0.00    +0.000 A 
ATOM     17  C   UNL     1      29.413  25.834  22.280  0.00  0.00    +0.000 A 
ATOM     18  C   UNL     1      29.284  24.652  21.605  0.00  0.00    +0.000 A 
ATOM     19  C   UNL     1      28.234  23.823  21.873  0.00  0.00    +0.000 A 
ATOM     20  C   UNL     1      27.313  24.169  22.815  0.00  0.00    +0.000 A 
ENDBRANCH  14  15
ENDBRANCH  12  14
ENDBRANCH   1  12
TORSDOF 5
ENDMDL
MODEL 5
REMARK VINA RESULT:      -5.0      1.978      4.944
REMARK  Name = 
REMARK  5 active torsions:
REMARK  status: ('A' for Active; 'I' for Inactive)
REMARK    1  A    between atoms: C_2  and  C_3
REMARK    2  A    between atoms: C_8  and  N_9
REMARK    3  A    between atoms: N_9  and  C_11
REMARK    4  A    between atoms: C_11  and  N_13
REMARK    5  A    between atoms: N_13  and  C_14
REMARK                            x       y       z     vdW  Elec       q    Type
REMARK                         _______ _______ _______ _____ _____    ______ ____
ROOT
ATOM      1  N   UNL     1      27.803  24.638  24.796  0.00  0.00    +0.000 N 
ATOM      2  C   UNL     1      27.706  26.041  24.737  0.00  0.00    +0.000 C 
ENDROOT
BRANCH   1   8
ATOM      3  C   UNL     1      30.943  24.343  26.923  0.00  0.00    +0.000 C 
ATOM      4  C   UNL     1      31.876  24.698  25.616  0.00  0.00    +0.000 C 
ATOM      5  C   UNL     1      31.459  23.921  24.464  0.00  0.00    +0.000 C 
ATOM      6  C   UNL     1      30.091  24.710  23.918  0.00  0.00    +0.000 C 
ATOM      7  O   UNL     1      29.805  23.586  22.904  0.00  0.00    +0.000 OA
ATOM      8  C   UNL     1      29.131  23.911  25.125  0.00  0.00    +0.000 C 
ATOM      9  C   UNL     1      29.561  24.948  26.293  0.00  0.00    +0.000 C 
BRANCH   3  11
ATOM     10  C   UNL     1      31.000  22.025  27.633  0.00  0.00    +0.000 C 
ATOM     11  C   UNL     1      30.742  22.774  26.579  0.00  0.00    +0.000 C 
ENDBRANCH   3  11
ENDBRANCH   1   8
BRANCH   1  12
ATOM     12  C   UNL     1      26.705  23.815  24.562  0.00  0.00    +0.000 C 
ATOM     13  S   UNL     1      26.208  23.543  23.043  0.00  0.00    +0.000 S 
BRANCH  12  14
ATOM     14  N   UNL     1      25.997  23.197  25.624  0.00  0.00    +0.000 NA
BRANCH  14  15
ATOM     15  C   UNL     1      25.868  23.798  26.896  0.00  0.00    +0.000 A 
ATOM     16  C   UNL     1      26.619  23.330  27.952  0.00  0.00    +0.000 A 
ATOM     17  C   UNL     1      26.542  23.867  29.214  0.00  0.00    +0.000 A 
ATOM     18  C   UNL     1      25.686  24.911  29.433  0.00  0.00    +0.000 A 
ATOM     19  C   UNL     1      24.927  25.399  28.409  0.00  0.00    +0.000 A 
ATOM     20  C   UNL     1      25.021  24.849  27.166  0.00  0.00    +0.000 A 
ENDBRANCH  14  15
ENDBRANCH  12  14
ENDBRANCH   1  12
TORSDOF 5
ENDMDL
MODEL 6
REMARK VINA RESULT:      -5.0     32.407     33.378
REMARK  Name = 
REMARK  5 active torsions:
REMARK  status: ('A' for Active; 'I' for Inactive)
REMARK    1  A    between atoms: C_2  and  C_3
REMARK    2  A    between atoms: C_8  and  N_9
REMARK    3  A    between atoms: N_9  and  C_11
REMARK    4  A    between atoms: C_11  and  N_13
REMARK    5  A    between atoms: N_13  and  C_14
REMARK                            x       y       z     vdW  Elec       q    Type
REMARK                         _______ _______ _______ _____ _____    ______ ____
ROOT
ATOM      1  N   UNL     1      20.441  -9.596  25.331  0.00  0.00    +0.000 N 
ATOM      2  C   UNL     1      20.850 -10.374  26.431  0.00  0.00    +0.000 C 
ENDROOT
BRANCH   1   8
ATOM      3  C   UNL     1      18.501  -7.157  27.512  0.00  0.00    +0.000 C 
ATOM      4  C   UNL     1      17.095  -7.920  27.136  0.00  0.00    +0.000 C 
ATOM      5  C   UNL     1      17.008  -8.159  25.708  0.00  0.00    +0.000 C 
ATOM      6  C   UNL     1      17.995  -9.485  25.459  0.00  0.00    +0.000 C 
ATOM      7  O   UNL     1      17.858  -9.343  23.931  0.00  0.00    +0.000 OA
ATOM      8  C   UNL     1      19.397  -8.459  25.462  0.00  0.00    +0.000 C 
ATOM      9  C   UNL     1      19.471  -8.399  27.079  0.00  0.00    +0.000 C 
BRANCH   3  11
ATOM     10  C   UNL     1      18.951  -5.024  26.448  0.00  0.00    +0.000 C 
ATOM     11  C   UNL     1      18.583  -6.258  26.167  0.00  0.00    +0.000 C 
ENDBRANCH   3  11
ENDBRANCH   1   8
BRANCH   1  12
ATOM     12  C   UNL     1      20.953  -9.804  24.053  0.00  0.00    +0.000 C 
ATOM     13  S   UNL     1      21.113 -11.312  23.481  0.00  0.00    +0.000 S 
BRANCH  12  14
ATOM     14  N   UNL     1      21.344  -8.722  23.223  0.00  0.00    +0.000 NA
BRANCH  14  15
ATOM     15  C   UNL     1      22.539  -7.999  23.437  0.00  0.00    +0.000 A 
ATOM     16  C   UNL     1      23.688  -8.365  22.771  0.00  0.00    +0.000 A 
ATOM     17  C   UNL     1      24.882  -7.707  22.934  0.00  0.00    +0.000 A 
ATOM     18  C   UNL     1      24.935  -6.643  23.791  0.00  0.00    +0.000 A 
ATOM     19  C   UNL     1      23.816  -6.254  24.468  0.00  0.00    +0.000 A 
ATOM     20  C   UNL     1      22.643  -6.923  24.289  0.00  0.00    +0.000 A 
ENDBRANCH  14  15
ENDBRANCH  12  14
ENDBRANCH   1  12
TORSDOF 5
ENDMDL
MODEL 7
REMARK VINA RESULT:      -5.0      2.986      5.323
REMARK  Name = 
REMARK  5 active torsions:
REMARK  status: ('A' for Active; 'I' for Inactive)
REMARK    1  A    between atoms: C_2  and  C_3
REMARK    2  A    between atoms: C_8  and  N_9
REMARK    3  A    between atoms: N_9  and  C_11
REMARK    4  A    between atoms: C_11  and  N_13
REMARK    5  A    between atoms: N_13  and  C_14
REMARK                            x       y       z     vdW  Elec       q    Type
REMARK                         _______ _______ _______ _____ _____    ______ ____
ROOT
ATOM      1  N   UNL     1      27.082  23.391  28.513  0.00  0.00    +0.000 N 
ATOM      2  C   UNL     1      26.921  22.363  29.462  0.00  0.00    +0.000 C 
ENDROOT
BRANCH   1   8
ATOM      3  C   UNL     1      29.841  21.933  26.337  0.00  0.00    +0.000 C 
ATOM      4  C   UNL     1      30.943  22.218  27.524  0.00  0.00    +0.000 C 
ATOM      5  C   UNL     1      30.790  23.561  28.052  0.00  0.00    +0.000 C 
ATOM      6  C   UNL     1      29.469  23.446  29.069  0.00  0.00    +0.000 C 
ATOM      7  O   UNL     1      29.450  24.973  29.275  0.00  0.00    +0.000 OA
ATOM      8  C   UNL     1      28.394  23.582  27.711  0.00  0.00    +0.000 C 
ATOM      9  C   UNL     1      28.536  22.017  27.318  0.00  0.00    +0.000 C 
BRANCH   3  11
ATOM     10  C   UNL     1      30.148  23.430  24.454  0.00  0.00    +0.000 C 
ATOM     11  C   UNL     1      29.833  23.436  25.734  0.00  0.00    +0.000 C 
ENDBRANCH   3  11
ENDBRANCH   1   8
BRANCH   1  12
ATOM     12  C   UNL     1      26.066  24.301  28.236  0.00  0.00    +0.000 C 
ATOM     13  S   UNL     1      25.791  25.539  29.246  0.00  0.00    +0.000 S 
BRANCH  12  14
ATOM     14  N   UNL     1      25.251  24.179  27.081  0.00  0.00    +0.000 NA
BRANCH  14  15
ATOM     15  C   UNL     1      25.782  24.225  25.773  0.00  0.00    +0.000 A 
ATOM     16  C   UNL     1      25.798  23.083  25.001  0.00  0.00    +0.000 A 
ATOM     17  C   UNL     1      26.301  23.058  23.723  0.00  0.00    +0.000 A 
ATOM     18  C   UNL     1      26.806  24.212  23.193  0.00  0.00    +0.000 A 
ATOM     19  C   UNL     1      26.807  25.361  23.930  0.00  0.00    +0.000 A 
ATOM     20  C   UNL     1      26.302  25.361  25.195  0.00  0.00    +0.000 A 
ENDBRANCH  14  15
ENDBRANCH  12  14
ENDBRANCH   1  12
TORSDOF 5
ENDMDL
MODEL 8
REMARK VINA RESULT:      -5.0      1.596      2.006
REMARK  Name = 
REMARK  5 active torsions:
REMARK  status: ('A' for Active; 'I' for Inactive)
REMARK    1  A    between atoms: C_2  and  C_3
REMARK    2  A    between atoms: C_8  and  N_9
REMARK    3  A    between atoms: N_9  and  C_11
REMARK    4  A    between atoms: C_11  and  N_13
REMARK    5  A    between atoms: N_13  and  C_14
REMARK                            x       y       z     vdW  Elec       q    Type
REMARK                         _______ _______ _______ _____ _____    ______ ____
ROOT
ATOM      1  N   UNL     1      26.768  24.097  25.086  0.00  0.00    +0.000 N 
ATOM      2  C   UNL     1      25.774  23.170  24.720  0.00  0.00    +0.000 C 
ENDROOT
BRANCH   1   8
ATOM      3  C   UNL     1      28.442  22.279  27.978  0.00  0.00    +0.000 C 
ATOM      4  C   UNL     1      27.136  22.571  28.933  0.00  0.00    +0.000 C 
ATOM      5  C   UNL     1      26.722  23.957  28.824  0.00  0.00    +0.000 C 
ATOM      6  C   UNL     1      25.891  24.018  27.375  0.00  0.00    +0.000 C 
ATOM      7  O   UNL     1      25.790  25.553  27.457  0.00  0.00    +0.000 OA
ATOM      8  C   UNL     1      27.391  24.130  26.504  0.00  0.00    +0.000 C 
ATOM      9  C   UNL     1      27.659  22.533  26.566  0.00  0.00    +0.000 C 
BRANCH   3  11
ATOM     10  C   UNL     1      30.442  23.609  28.316  0.00  0.00    +0.000 C 
ATOM     11  C   UNL     1      29.137  23.728  28.176  0.00  0.00    +0.000 C 
ENDBRANCH   3  11
ENDBRANCH   1   8
BRANCH   1  12
ATOM     12  C   UNL     1      27.254  25.045  24.190  0.00  0.00    +0.000 C 
ATOM     13  S   UNL     1      26.521  26.486  24.060  0.00  0.00    +0.000 S 
BRANCH  12  14
ATOM     14  N   UNL     1      28.387  24.789  23.376  0.00  0.00    +0.000 NA
BRANCH  14  15
ATOM     15  C   UNL     1      29.654  24.483  23.919  0.00  0.00    +0.000 A 
ATOM     16  C   UNL     1      30.471  25.499  24.365  0.00  0.00    +0.000 A 
ATOM     17  C   UNL     1      31.714  25.271  24.903  0.00  0.00    +0.000 A 
ATOM     18  C   UNL     1      32.160  23.982  25.002  0.00  0.00    +0.000 A 
ATOM     19  C   UNL     1      31.377  22.952  24.571  0.00  0.00    +0.000 A 
ATOM     20  C   UNL     1      30.148  23.204  24.041  0.00  0.00    +0.000 A 
ENDBRANCH  14  15
ENDBRANCH  12  14
ENDBRANCH   1  12
TORSDOF 5
ENDMDL
MODEL 9
REMARK VINA RESULT:      -4.8      3.598      4.896
REMARK  Name = 
REMARK  5 active torsions:
REMARK  status: ('A' for Active; 'I' for Inactive)
REMARK    1  A    between atoms: C_2  and  C_3
REMARK    2  A    between atoms: C_8  and  N_9
REMARK    3  A    between atoms: N_9  and  C_11
REMARK    4  A    between atoms: C_11  and  N_13
REMARK    5  A    between atoms: N_13  and  C_14
REMARK                            x       y       z     vdW  Elec       q    Type
REMARK                         _______ _______ _______ _____ _____    ______ ____
ROOT
ATOM      1  N   UNL     1      29.714  23.725  28.971  0.00  0.00    +0.000 N 
ATOM      2  C   UNL     1      30.281  24.863  29.576  0.00  0.00    +0.000 C 
ENDROOT
BRANCH   1   8
ATOM      3  C   UNL     1      26.292  25.260  28.335  0.00  0.00    +0.000 C 
ATOM      4  C   UNL     1      25.806  24.832  29.846  0.00  0.00    +0.000 C 
ATOM      5  C   UNL     1      26.167  23.455  30.129  0.00  0.00    +0.000 C 
ATOM      6  C   UNL     1      27.798  23.531  30.489  0.00  0.00    +0.000 C 
ATOM      7  O   UNL     1      27.898  21.994  30.521  0.00  0.00    +0.000 OA
ATOM      8  C   UNL     1      28.184  23.554  28.795  0.00  0.00    +0.000 C 
ATOM      9  C   UNL     1      27.891  25.141  28.650  0.00  0.00    +0.000 C 
BRANCH   3  11
ATOM     10  C   UNL     1      25.592  23.955  26.415  0.00  0.00    +0.000 C 
ATOM     11  C   UNL     1      26.035  23.816  27.648  0.00  0.00    +0.000 C 
ENDBRANCH   3  11
ENDBRANCH   1   8
BRANCH   1  12
ATOM     12  C   UNL     1      30.499  22.680  28.493  0.00  0.00    +0.000 C 
ATOM     13  S   UNL     1      31.831  22.233  29.301  0.00  0.00    +0.000 S 
BRANCH  12  14
ATOM     14  N   UNL     1      30.165  21.982  27.304  0.00  0.00    +0.000 NA
BRANCH  14  15
ATOM     15  C   UNL     1      30.146  22.611  26.039  0.00  0.00    +0.000 A 
ATOM     16  C   UNL     1      28.967  22.680  25.328  0.00  0.00    +0.000 A 
ATOM     17  C   UNL     1      28.879  23.276  24.094  0.00  0.00    +0.000 A 
ATOM     18  C   UNL     1      30.006  23.825  23.547  0.00  0.00    +0.000 A 
ATOM     19  C   UNL     1      31.189  23.774  24.224  0.00  0.00    +0.000 A 
ATOM     20  C   UNL     1      31.252  23.177  25.447  0.00  0.00    +0.000 A 
ENDBRANCH  14  15
ENDBRANCH  12  14
ENDBRANCH   1  12
TORSDOF 5
ENDMDL
MODEL 10
REMARK VINA RESULT:      -4.8     32.344     33.644
REMARK  Name = 
REMARK  5 active torsions:
REMARK  status: ('A' for Active; 'I' for Inactive)
REMARK    1  A    between atoms: C_2  and  C_3
REMARK    2  A    between atoms: C_8  and  N_9
REMARK    3  A    between atoms: N_9  and  C_11
REMARK    4  A    between atoms: C_11  and  N_13
REMARK    5  A    between atoms: N_13  and  C_14
REMARK                            x       y       z     vdW  Elec       q    Type
REMARK                         _______ _______ _______ _____ _____    ______ ____
ROOT
ATOM      1  N   UNL     1      21.616  -9.998  24.369  0.00  0.00    +0.000 N 
ATOM      2  C   UNL     1      22.242 -11.229  24.645  0.00  0.00    +0.000 C 
ENDROOT
BRANCH   1   8
ATOM      3  C   UNL     1      23.496  -9.186  21.163  0.00  0.00    +0.000 C 
ATOM      4  C   UNL     1      24.763  -8.609  22.038  0.00  0.00    +0.000 C 
ATOM      5  C   UNL     1      24.297  -7.725  23.089  0.00  0.00    +0.000 C 
ATOM      6  C   UNL     1      23.732  -8.764  24.271  0.00  0.00    +0.000 C 
ATOM      7  O   UNL     1      23.157  -7.587  25.080  0.00  0.00    +0.000 OA
ATOM      8  C   UNL     1      22.234  -8.949  23.411  0.00  0.00    +0.000 C 
ATOM      9  C   UNL     1      22.843 -10.048  22.389  0.00  0.00    +0.000 C 
BRANCH   3  11
ATOM     10  C   UNL     1      22.150  -7.497  20.060  0.00  0.00    +0.000 C 
ATOM     11  C   UNL     1      22.591  -7.847  21.252  0.00  0.00    +0.000 C 
ENDBRANCH   3  11
ENDBRANCH   1   8
BRANCH   1  12
ATOM     12  C   UNL     1      20.398  -9.649  24.944  0.00  0.00    +0.000 C 
ATOM     13  S   UNL     1      19.013  -9.964  24.160  0.00  0.00    +0.000 S 
BRANCH  12  14
ATOM     14  N   UNL     1      20.326  -9.017  26.212  0.00  0.00    +0.000 NA
BRANCH  14  15
ATOM     15  C   UNL     1      19.656  -7.788  26.407  0.00  0.00    +0.000 A 
ATOM     16  C   UNL     1      20.150  -6.641  25.824  0.00  0.00    +0.000 A 
ATOM     17  C   UNL     1      19.549  -5.415  25.974  0.00  0.00    +0.000 A 
ATOM     18  C   UNL     1      18.413  -5.328  26.730  0.00  0.00    +0.000 A 
ATOM     19  C   UNL     1      17.897  -6.444  27.321  0.00  0.00    +0.000 A 
ATOM     20  C   UNL     1      18.512  -7.649  27.158  0.00  0.00    +0.000 A 
ENDBRANCH  14  15
ENDBRANCH  12  14
ENDBRANCH   1  12
TORSDOF 5
ENDMDL
