MODEL 1
REMARK VINA RESULT:      -5.9      0.000      0.000
REMARK  Name = 
REMARK  4 active torsions:
REMARK  status: ('A' for Active; 'I' for Inactive)
REMARK    1  A    between atoms: C_2  and  C_3
REMARK    2  A    between atoms: C_3  and  N_4
REMARK    3  A    between atoms: C_7  and  C_8
REMARK    4  A    between atoms: C_8  and  C_9
REMARK                            x       y       z     vdW  Elec       q    Type
REMARK                         _______ _______ _______ _____ _____    ______ ____
ROOT
ATOM      1  N   UNL     1      29.324  22.849  29.887  0.00  0.00    +0.000 N 
ATOM      2  C   UNL     1      30.196  22.843  28.794  0.00  0.00    +0.000 C 
ATOM      3  O   UNL     1      31.363  22.568  28.641  0.00  0.00    +0.000 OA
ATOM      4  C   UNL     1      29.252  23.333  27.599  0.00  0.00    +0.000 C 
ATOM      5  N   UNL     1      28.012  22.455  28.052  0.00  0.00    +0.000 NA
ATOM      6  C   UNL     1      27.990  22.615  29.442  0.00  0.00    +0.000 C 
ATOM      7  S   UNL     1      26.631  22.536  30.378  0.00  0.00    +0.000 S 
ENDROOT
BRANCH   1   8
ATOM      8  C   UNL     1      29.731  23.060  31.260  0.00  0.00    +0.000 C 
BRANCH   8  10
ATOM      9  C   UNL     1      31.318  21.420  32.108  0.00  0.00    +0.000 C 
ATOM     10  C   UNL     1      30.028  21.792  31.971  0.00  0.00    +0.000 C 
ENDBRANCH   8  10
ENDBRANCH   1   8
BRANCH   4  11
ATOM     11  C   UNL     1      29.769  22.125  26.543  0.00  0.00    +0.000 C 
BRANCH  11  12
ATOM     12  C   UNL     1      29.782  22.791  25.219  0.00  0.00    +0.000 A 
ATOM     13  C   UNL     1      30.902  23.217  24.541  0.00  0.00    +0.000 A 
ATOM     14  N   UNL     1      30.551  23.771  23.379  0.00  0.00    +0.000 NA
ATOM     15  C   UNL     1      29.211  23.727  23.264  0.00  0.00    +0.000 A 
ATOM     16  C   UNL     1      28.344  24.155  22.276  0.00  0.00    +0.000 A 
ATOM     17  C   UNL     1      26.971  23.983  22.407  0.00  0.00    +0.000 A 
ATOM     18  C   UNL     1      26.505  23.374  23.552  0.00  0.00    +0.000 A 
ATOM     19  C   UNL     1      27.371  22.957  24.518  0.00  0.00    +0.000 A 
ATOM     20  C   UNL     1      28.720  23.118  24.403  0.00  0.00    +0.000 A 
ENDBRANCH  11  12
ENDBRANCH   4  11
TORSDOF 4
ENDMDL
MODEL 2
REMARK VINA RESULT:      -5.6      3.392      5.258
REMARK  Name = 
REMARK  4 active torsions:
REMARK  status: ('A' for Active; 'I' for Inactive)
REMARK    1  A    between atoms: C_2  and  C_3
REMARK    2  A    between atoms: C_3  and  N_4
REMARK    3  A    between atoms: C_7  and  C_8
REMARK    4  A    between atoms: C_8  and  C_9
REMARK                            x       y       z     vdW  Elec       q    Type
REMARK                         _______ _______ _______ _____ _____    ______ ____
ROOT
ATOM      1  N   UNL     1      33.446  24.624  25.620  0.00  0.00    +0.000 N 
ATOM      2  C   UNL     1      32.294  23.995  25.137  0.00  0.00    +0.000 C 
ATOM      3  O   UNL     1      31.994  23.458  24.096  0.00  0.00    +0.000 OA
ATOM      4  C   UNL     1      31.287  24.125  26.374  0.00  0.00    +0.000 C 
ATOM      5  N   UNL     1      32.384  23.776  27.463  0.00  0.00    +0.000 NA
ATOM      6  C   UNL     1      33.507  24.495  27.039  0.00  0.00    +0.000 C 
ATOM      7  S   UNL     1      34.684  25.079  28.038  0.00  0.00    +0.000 S 
ENDROOT
BRANCH   1   8
ATOM      8  C   UNL     1      34.423  25.297  24.792  0.00  0.00    +0.000 C 
BRANCH   8  10
ATOM      9  C   UNL     1      36.398  23.875  24.727  0.00  0.00    +0.000 C 
ATOM     10  C   UNL     1      35.316  24.353  24.076  0.00  0.00    +0.000 C 
ENDBRANCH   8  10
ENDBRANCH   1   8
BRANCH   4  11
ATOM     11  C   UNL     1      30.801  22.513  26.292  0.00  0.00    +0.000 C 
BRANCH  11  12
ATOM     12  C   UNL     1      29.322  22.584  26.364  0.00  0.00    +0.000 A 
ATOM     13  C   UNL     1      28.558  22.383  27.492  0.00  0.00    +0.000 A 
ATOM     14  N   UNL     1      27.264  22.524  27.199  0.00  0.00    +0.000 NA
ATOM     15  C   UNL     1      27.143  22.816  25.891  0.00  0.00    +0.000 A 
ATOM     16  C   UNL     1      26.046  23.057  25.086  0.00  0.00    +0.000 A 
ATOM     17  C   UNL     1      26.200  23.344  23.734  0.00  0.00    +0.000 A 
ATOM     18  C   UNL     1      27.481  23.379  23.227  0.00  0.00    +0.000 A 
ATOM     19  C   UNL     1      28.554  23.139  24.033  0.00  0.00    +0.000 A 
ATOM     20  C   UNL     1      28.418  22.857  25.360  0.00  0.00    +0.000 A 
ENDBRANCH  11  12
ENDBRANCH   4  11
TORSDOF 4
ENDMDL
MODEL 3
REMARK VINA RESULT:      -5.5      1.608      2.257
REMARK  Name = 
REMARK  4 active torsions:
REMARK  status: ('A' for Active; 'I' for Inactive)
REMARK    1  A    between atoms: C_2  and  C_3
REMARK    2  A    between atoms: C_3  and  N_4
REMARK    3  A    between atoms: C_7  and  C_8
REMARK    4  A    between atoms: C_8  and  C_9
REMARK                            x       y       z     vdW  Elec       q    Type
REMARK                         _______ _______ _______ _____ _____    ______ ____
ROOT
ATOM      1  N   UNL     1      28.880  23.405  29.517  0.00  0.00    +0.000 N 
ATOM      2  C   UNL     1      29.207  22.950  28.236  0.00  0.00    +0.000 C 
ATOM      3  O   UNL     1      30.033  22.186  27.792  0.00  0.00    +0.000 OA
ATOM      4  C   UNL     1      28.151  23.723  27.316  0.00  0.00    +0.000 C 
ATOM      5  N   UNL     1      26.936  23.503  28.310  0.00  0.00    +0.000 NA
ATOM      6  C   UNL     1      27.496  23.746  29.569  0.00  0.00    +0.000 C 
ATOM      7  S   UNL     1      26.665  24.327  30.873  0.00  0.00    +0.000 S 
ENDROOT
BRANCH   1   8
ATOM      8  C   UNL     1      29.815  23.507  30.616  0.00  0.00    +0.000 C 
BRANCH   8  10
ATOM      9  C   UNL     1      31.097  21.778  31.753  0.00  0.00    +0.000 C 
ATOM     10  C   UNL     1      29.882  22.268  31.429  0.00  0.00    +0.000 C 
ENDBRANCH   8  10
ENDBRANCH   1   8
BRANCH   4  11
ATOM     11  C   UNL     1      27.734  22.345  26.440  0.00  0.00    +0.000 C 
BRANCH  11  12
ATOM     12  C   UNL     1      27.166  22.882  25.181  0.00  0.00    +0.000 A 
ATOM     13  C   UNL     1      25.827  22.955  24.866  0.00  0.00    +0.000 A 
ATOM     14  N   UNL     1      25.671  23.493  23.655  0.00  0.00    +0.000 NA
ATOM     15  C   UNL     1      26.883  23.782  23.148  0.00  0.00    +0.000 A 
ATOM     16  C   UNL     1      27.284  24.343  21.950  0.00  0.00    +0.000 A 
ATOM     17  C   UNL     1      28.632  24.539  21.668  0.00  0.00    +0.000 A 
ATOM     18  C   UNL     1      29.550  24.157  22.622  0.00  0.00    +0.000 A 
ATOM     19  C   UNL     1      29.140  23.605  23.798  0.00  0.00    +0.000 A 
ATOM     20  C   UNL     1      27.823  23.407  24.089  0.00  0.00    +0.000 A 
ENDBRANCH  11  12
ENDBRANCH   4  11
TORSDOF 4
ENDMDL
MODEL 4
REMARK VINA RESULT:      -5.4     31.371     32.212
REMARK  Name = 
REMARK  4 active torsions:
REMARK  status: ('A' for Active; 'I' for Inactive)
REMARK    1  A    between atoms: C_2  and  C_3
REMARK    2  A    between atoms: C_3  and  N_4
REMARK    3  A    between atoms: C_7  and  C_8
REMARK    4  A    between atoms: C_8  and  C_9
REMARK                            x       y       z     vdW  Elec       q    Type
REMARK                         _______ _______ _______ _____ _____    ______ ____
ROOT
ATOM      1  N   UNL     1      25.165  -8.521  22.717  0.00  0.00    +0.000 N 
ATOM      2  C   UNL     1      24.670  -7.676  23.715  0.00  0.00    +0.000 C 
ATOM      3  O   UNL     1      24.959  -6.570  24.110  0.00  0.00    +0.000 OA
ATOM      4  C   UNL     1      23.481  -8.543  24.342  0.00  0.00    +0.000 C 
ATOM      5  N   UNL     1      22.949  -9.057  22.939  0.00  0.00    +0.000 NA
ATOM      6  C   UNL     1      24.121  -9.367  22.240  0.00  0.00    +0.000 C 
ATOM      7  S   UNL     1      24.238 -10.522  21.066  0.00  0.00    +0.000 S 
ENDROOT
BRANCH   1   8
ATOM      8  C   UNL     1      26.533  -8.523  22.246  0.00  0.00    +0.000 C 
BRANCH   8  10
ATOM      9  C   UNL     1      27.429 -10.278  23.676  0.00  0.00    +0.000 C 
ATOM     10  C   UNL     1      27.493  -8.990  23.276  0.00  0.00    +0.000 C 
ENDBRANCH   8  10
ENDBRANCH   1   8
BRANCH   4  11
ATOM     11  C   UNL     1      22.387  -7.260  24.329  0.00  0.00    +0.000 C 
BRANCH  11  12
ATOM     12  C   UNL     1      21.292  -7.718  25.217  0.00  0.00    +0.000 A 
ATOM     13  C   UNL     1      21.082  -9.012  25.639  0.00  0.00    +0.000 A 
ATOM     14  N   UNL     1      20.008  -9.067  26.430  0.00  0.00    +0.000 NA
ATOM     15  C   UNL     1      19.492  -7.831  26.548  0.00  0.00    +0.000 A 
ATOM     16  C   UNL     1      18.401  -7.337  27.238  0.00  0.00    +0.000 A 
ATOM     17  C   UNL     1      18.078  -5.985  27.193  0.00  0.00    +0.000 A 
ATOM     18  C   UNL     1      18.881  -5.157  26.438  0.00  0.00    +0.000 A 
ATOM     19  C   UNL     1      19.953  -5.658  25.763  0.00  0.00    +0.000 A 
ATOM     20  C   UNL     1      20.283  -6.981  25.798  0.00  0.00    +0.000 A 
ENDBRANCH  11  12
ENDBRANCH   4  11
TORSDOF 4
ENDMDL
MODEL 5
REMARK VINA RESULT:      -5.4      4.487      8.341
REMARK  Name = 
REMARK  4 active torsions:
REMARK  status: ('A' for Active; 'I' for Inactive)
REMARK    1  A    between atoms: C_2  and  C_3
REMARK    2  A    between atoms: C_3  and  N_4
REMARK    3  A    between atoms: C_7  and  C_8
REMARK    4  A    between atoms: C_8  and  C_9
REMARK                            x       y       z     vdW  Elec       q    Type
REMARK                         _______ _______ _______ _____ _____    ______ ____
ROOT
ATOM      1  N   UNL     1      28.540  27.233  20.822  0.00  0.00    +0.000 N 
ATOM      2  C   UNL     1      28.007  26.351  21.768  0.00  0.00    +0.000 C 
ATOM      3  O   UNL     1      26.939  26.249  22.326  0.00  0.00    +0.000 OA
ATOM      4  C   UNL     1      29.226  25.348  22.028  0.00  0.00    +0.000 C 
ATOM      5  N   UNL     1      29.631  25.246  20.499  0.00  0.00    +0.000 NA
ATOM      6  C   UNL     1      29.532  26.566  20.046  0.00  0.00    +0.000 C 
ATOM      7  S   UNL     1      30.428  27.208  18.816  0.00  0.00    +0.000 S 
ENDROOT
BRANCH   1   8
ATOM      8  C   UNL     1      28.132  28.612  20.665  0.00  0.00    +0.000 C 
BRANCH   8  10
ATOM      9  C   UNL     1      27.018  28.970  18.530  0.00  0.00    +0.000 C 
ATOM     10  C   UNL     1      26.896  28.757  19.857  0.00  0.00    +0.000 C 
ENDBRANCH   8  10
ENDBRANCH   1   8
BRANCH   4  11
ATOM     11  C   UNL     1      28.265  23.969  21.906  0.00  0.00    +0.000 C 
BRANCH  11  12
ATOM     12  C   UNL     1      28.113  23.516  23.309  0.00  0.00    +0.000 A 
ATOM     13  C   UNL     1      26.921  23.324  23.970  0.00  0.00    +0.000 A 
ATOM     14  N   UNL     1      27.150  22.911  25.219  0.00  0.00    +0.000 NA
ATOM     15  C   UNL     1      28.479  22.823  25.409  0.00  0.00    +0.000 A 
ATOM     16  C   UNL     1      29.243  22.452  26.499  0.00  0.00    +0.000 A 
ATOM     17  C   UNL     1      30.632  22.445  26.431  0.00  0.00    +0.000 A 
ATOM     18  C   UNL     1      31.218  22.821  25.241  0.00  0.00    +0.000 A 
ATOM     19  C   UNL     1      30.453  23.186  24.175  0.00  0.00    +0.000 A 
ATOM     20  C   UNL     1      29.090  23.196  24.227  0.00  0.00    +0.000 A 
ENDBRANCH  11  12
ENDBRANCH   4  11
TORSDOF 4
ENDMDL
MODEL 6
REMARK VINA RESULT:      -5.4      2.050      6.938
REMARK  Name = 
REMARK  4 active torsions:
REMARK  status: ('A' for Active; 'I' for Inactive)
REMARK    1  A    between atoms: C_2  and  C_3
REMARK    2  A    between atoms: C_3  and  N_4
REMARK    3  A    between atoms: C_7  and  C_8
REMARK    4  A    between atoms: C_8  and  C_9
REMARK                            x       y       z     vdW  Elec       q    Type
REMARK                         _______ _______ _______ _____ _____    ______ ____
ROOT
ATOM      1  N   UNL     1      28.827  22.963  25.209  0.00  0.00    +0.000 N 
ATOM      2  C   UNL     1      29.805  23.034  26.206  0.00  0.00    +0.000 C 
ATOM      3  O   UNL     1      30.946  23.430  26.248  0.00  0.00    +0.000 OA
ATOM      4  C   UNL     1      29.051  22.410  27.472  0.00  0.00    +0.000 C 
ATOM      5  N   UNL     1      27.684  23.159  27.184  0.00  0.00    +0.000 NA
ATOM      6  C   UNL     1      27.531  23.038  25.799  0.00  0.00    +0.000 C 
ATOM      7  S   UNL     1      26.079  22.994  25.013  0.00  0.00    +0.000 S 
ENDROOT
BRANCH   1   8
ATOM      8  C   UNL     1      29.103  22.837  23.794  0.00  0.00    +0.000 C 
BRANCH   8  10
ATOM      9  C   UNL     1      28.422  24.712  22.399  0.00  0.00    +0.000 C 
ATOM     10  C   UNL     1      29.389  24.141  23.147  0.00  0.00    +0.000 C 
ENDBRANCH   8  10
ENDBRANCH   1   8
BRANCH   4  11
ATOM     11  C   UNL     1      29.548  23.637  28.515  0.00  0.00    +0.000 C 
BRANCH  11  12
ATOM     12  C   UNL     1      30.032  22.911  29.713  0.00  0.00    +0.000 A 
ATOM     13  C   UNL     1      29.295  22.634  30.842  0.00  0.00    +0.000 A 
ATOM     14  N   UNL     1      30.040  21.965  31.724  0.00  0.00    +0.000 NA
ATOM     15  C   UNL     1      31.269  21.788  31.207  0.00  0.00    +0.000 A 
ATOM     16  C   UNL     1      32.406  21.170  31.693  0.00  0.00    +0.000 A 
ATOM     17  C   UNL     1      33.573  21.124  30.939  0.00  0.00    +0.000 A 
ATOM     18  C   UNL     1      33.557  21.713  29.693  0.00  0.00    +0.000 A 
ATOM     19  C   UNL     1      32.429  22.319  29.227  0.00  0.00    +0.000 A 
ATOM     20  C   UNL     1      31.277  22.372  29.954  0.00  0.00    +0.000 A 
ENDBRANCH  11  12
ENDBRANCH   4  11
TORSDOF 4
ENDMDL
MODEL 7
REMARK VINA RESULT:      -5.3      3.901      5.369
REMARK  Name = 
REMARK  4 active torsions:
REMARK  status: ('A' for Active; 'I' for Inactive)
REMARK    1  A    between atoms: C_2  and  C_3
REMARK    2  A    between atoms: C_3  and  N_4
REMARK    3  A    between atoms: C_7  and  C_8
REMARK    4  A    between atoms: C_8  and  C_9
REMARK                            x       y       z     vdW  Elec       q    Type
REMARK                         _______ _______ _______ _____ _____    ______ ____
ROOT
ATOM      1  N   UNL     1      24.168  25.891  27.145  0.00  0.00    +0.000 N 
ATOM      2  C   UNL     1      25.114  24.872  27.001  0.00  0.00    +0.000 C 
ATOM      3  O   UNL     1      25.423  23.902  27.654  0.00  0.00    +0.000 OA
ATOM      4  C   UNL     1      25.830  25.258  25.623  0.00  0.00    +0.000 C 
ATOM      5  N   UNL     1      24.481  25.651  24.889  0.00  0.00    +0.000 NA
ATOM      6  C   UNL     1      23.778  26.372  25.860  0.00  0.00    +0.000 C 
ATOM      7  S   UNL     1      22.687  27.569  25.538  0.00  0.00    +0.000 S 
ENDROOT
BRANCH   1   8
ATOM      8  C   UNL     1      23.666  26.373  28.413  0.00  0.00    +0.000 C 
BRANCH   8  10
ATOM      9  C   UNL     1      24.844  26.048  30.519  0.00  0.00    +0.000 C 
ATOM     10  C   UNL     1      24.750  26.733  29.360  0.00  0.00    +0.000 C 
ENDBRANCH   8  10
ENDBRANCH   1   8
BRANCH   4  11
ATOM     11  C   UNL     1      25.751  23.690  25.011  0.00  0.00    +0.000 C 
BRANCH  11  12
ATOM     12  C   UNL     1      27.116  23.444  24.488  0.00  0.00    +0.000 A 
ATOM     13  C   UNL     1      27.514  23.579  23.176  0.00  0.00    +0.000 A 
ATOM     14  N   UNL     1      28.809  23.280  23.057  0.00  0.00    +0.000 NA
ATOM     15  C   UNL     1      29.290  22.944  24.268  0.00  0.00    +0.000 A 
ATOM     16  C   UNL     1      30.545  22.557  24.699  0.00  0.00    +0.000 A 
ATOM     17  C   UNL     1      30.782  22.261  26.037  0.00  0.00    +0.000 A 
ATOM     18  C   UNL     1      29.725  22.366  26.915  0.00  0.00    +0.000 A 
ATOM     19  C   UNL     1      28.493  22.749  26.476  0.00  0.00    +0.000 A 
ATOM     20  C   UNL     1      28.246  23.043  25.167  0.00  0.00    +0.000 A 
ENDBRANCH  11  12
ENDBRANCH   4  11
TORSDOF 4
ENDMDL
MODEL 8
REMARK VINA RESULT:      -5.1      3.449      7.459
REMARK  Name = 
REMARK  4 active torsions:
REMARK  status: ('A' for Active; 'I' for Inactive)
REMARK    1  A    between atoms: C_2  and  C_3
REMARK    2  A    between atoms: C_3  and  N_4
REMARK    3  A    between atoms: C_7  and  C_8
REMARK    4  A    between atoms: C_8  and  C_9
REMARK                            x       y       z     vdW  Elec       q    Type
REMARK                         _______ _______ _______ _____ _____    ______ ____
ROOT
ATOM      1  N   UNL     1      28.537  26.184  21.921  0.00  0.00    +0.000 N 
ATOM      2  C   UNL     1      29.038  24.879  21.919  0.00  0.00    +0.000 C 
ATOM      3  O   UNL     1      29.721  24.234  21.158  0.00  0.00    +0.000 OA
ATOM      4  C   UNL     1      28.475  24.292  23.297  0.00  0.00    +0.000 C 
ATOM      5  N   UNL     1      28.775  25.610  24.125  0.00  0.00    +0.000 NA
ATOM      6  C   UNL     1      28.372  26.636  23.264  0.00  0.00    +0.000 C 
ATOM      7  S   UNL     1      27.809  28.109  23.753  0.00  0.00    +0.000 S 
ENDROOT
BRANCH   1   8
ATOM      8  C   UNL     1      28.237  26.951  20.731  0.00  0.00    +0.000 C 
BRANCH   8  10
ATOM      9  C   UNL     1      30.203  27.225  19.321  0.00  0.00    +0.000 C 
ATOM     10  C   UNL     1      29.392  27.755  20.261  0.00  0.00    +0.000 C 
ENDBRANCH   8  10
ENDBRANCH   1   8
BRANCH   4  11
ATOM     11  C   UNL     1      29.955  23.625  23.749  0.00  0.00    +0.000 C 
BRANCH  11  12
ATOM     12  C   UNL     1      29.723  23.152  25.135  0.00  0.00    +0.000 A 
ATOM     13  C   UNL     1      28.578  22.546  25.601  0.00  0.00    +0.000 A 
ATOM     14  N   UNL     1      28.711  22.249  26.895  0.00  0.00    +0.000 NA
ATOM     15  C   UNL     1      29.927  22.647  27.309  0.00  0.00    +0.000 A 
ATOM     16  C   UNL     1      30.564  22.580  28.534  0.00  0.00    +0.000 A 
ATOM     17  C   UNL     1      31.853  23.075  28.698  0.00  0.00    +0.000 A 
ATOM     18  C   UNL     1      32.472  23.633  27.600  0.00  0.00    +0.000 A 
ATOM     19  C   UNL     1      31.832  23.692  26.398  0.00  0.00    +0.000 A 
ATOM     20  C   UNL     1      30.568  23.210  26.222  0.00  0.00    +0.000 A 
ENDBRANCH  11  12
ENDBRANCH   4  11
TORSDOF 4
ENDMDL
MODEL 9
REMARK VINA RESULT:      -5.1     21.143     22.263
REMARK  Name = 
REMARK  4 active torsions:
REMARK  status: ('A' for Active; 'I' for Inactive)
REMARK    1  A    between atoms: C_2  and  C_3
REMARK    2  A    between atoms: C_3  and  N_4
REMARK    3  A    between atoms: C_7  and  C_8
REMARK    4  A    between atoms: C_8  and  C_9
REMARK                            x       y       z     vdW  Elec       q    Type
REMARK                         _______ _______ _______ _____ _____    ______ ____
ROOT
ATOM      1  N   UNL     1      22.971   1.955  17.911  0.00  0.00    +0.000 N 
ATOM      2  C   UNL     1      23.313   3.298  18.100  0.00  0.00    +0.000 C 
ATOM      3  O   UNL     1      22.845   4.210  18.740  0.00  0.00    +0.000 OA
ATOM      4  C   UNL     1      24.621   3.450  17.191  0.00  0.00    +0.000 C 
ATOM      5  N   UNL     1      25.241   2.060  17.632  0.00  0.00    +0.000 NA
ATOM      6  C   UNL     1      24.142   1.195  17.624  0.00  0.00    +0.000 C 
ATOM      7  S   UNL     1      24.224  -0.429  17.330  0.00  0.00    +0.000 S 
ENDROOT
BRANCH   1   8
ATOM      8  C   UNL     1      21.625   1.430  17.999  0.00  0.00    +0.000 C 
BRANCH   8  10
ATOM      9  C   UNL     1      19.368   1.799  17.166  0.00  0.00    +0.000 C 
ATOM     10  C   UNL     1      20.672   2.141  17.112  0.00  0.00    +0.000 C 
ENDBRANCH   8  10
ENDBRANCH   1   8
BRANCH   4  11
ATOM     11  C   UNL     1      25.492   4.261  18.384  0.00  0.00    +0.000 C 
BRANCH  11  12
ATOM     12  C   UNL     1      26.215   5.320  17.639  0.00  0.00    +0.000 A 
ATOM     13  C   UNL     1      25.697   6.538  17.260  0.00  0.00    +0.000 A 
ATOM     14  N   UNL     1      26.621   7.246  16.608  0.00  0.00    +0.000 NA
ATOM     15  C   UNL     1      27.753   6.523  16.540  0.00  0.00    +0.000 A 
ATOM     16  C   UNL     1      28.993   6.781  15.984  0.00  0.00    +0.000 A 
ATOM     17  C   UNL     1      30.017   5.843  16.055  0.00  0.00    +0.000 A 
ATOM     18  C   UNL     1      29.755   4.652  16.698  0.00  0.00    +0.000 A 
ATOM     19  C   UNL     1      28.528   4.412  17.241  0.00  0.00    +0.000 A 
ATOM     20  C   UNL     1      27.514   5.322  17.179  0.00  0.00    +0.000 A 
ENDBRANCH  11  12
ENDBRANCH   4  11
TORSDOF 4
ENDMDL
MODEL 10
REMARK VINA RESULT:      -5.1     22.755     24.509
REMARK  Name = 
REMARK  4 active torsions:
REMARK  status: ('A' for Active; 'I' for Inactive)
REMARK    1  A    between atoms: C_2  and  C_3
REMARK    2  A    between atoms: C_3  and  N_4
REMARK    3  A    between atoms: C_7  and  C_8
REMARK    4  A    between atoms: C_8  and  C_9
REMARK                            x       y       z     vdW  Elec       q    Type
REMARK                         _______ _______ _______ _____ _____    ______ ____
ROOT
ATOM      1  N   UNL     1      22.624   3.621  41.223  0.00  0.00    +0.000 N 
ATOM      2  C   UNL     1      21.820   4.749  41.026  0.00  0.00    +0.000 C 
ATOM      3  O   UNL     1      22.015   5.867  40.610  0.00  0.00    +0.000 OA
ATOM      4  C   UNL     1      20.386   4.239  41.519  0.00  0.00    +0.000 C 
ATOM      5  N   UNL     1      20.515   2.818  40.829  0.00  0.00    +0.000 NA
ATOM      6  C   UNL     1      21.834   2.440  41.105  0.00  0.00    +0.000 C 
ATOM      7  S   UNL     1      22.353   0.880  41.259  0.00  0.00    +0.000 S 
ENDROOT
BRANCH   1   8
ATOM      8  C   UNL     1      24.043   3.662  41.500  0.00  0.00    +0.000 C 
BRANCH   8  10
ATOM      9  C   UNL     1      26.079   4.138  40.252  0.00  0.00    +0.000 C 
ATOM     10  C   UNL     1      24.871   3.537  40.275  0.00  0.00    +0.000 C 
ENDBRANCH   8  10
ENDBRANCH   1   8
BRANCH   4  11
ATOM     11  C   UNL     1      19.579   4.861  40.176  0.00  0.00    +0.000 C 
BRANCH  11  12
ATOM     12  C   UNL     1      18.518   5.714  40.762  0.00  0.00    +0.000 A 
ATOM     13  C   UNL     1      17.673   5.360  41.790  0.00  0.00    +0.000 A 
ATOM     14  N   UNL     1      16.842   6.367  42.068  0.00  0.00    +0.000 NA
ATOM     15  C   UNL     1      17.115   7.394  41.243  0.00  0.00    +0.000 A 
ATOM     16  C   UNL     1      16.563   8.655  41.109  0.00  0.00    +0.000 A 
ATOM     17  C   UNL     1      17.041   9.547  40.155  0.00  0.00    +0.000 A 
ATOM     18  C   UNL     1      18.081   9.131  39.351  0.00  0.00    +0.000 A 
ATOM     19  C   UNL     1      18.614   7.886  39.495  0.00  0.00    +0.000 A 
ATOM     20  C   UNL     1      18.156   7.001  40.425  0.00  0.00    +0.000 A 
ENDBRANCH  11  12
ENDBRANCH   4  11
TORSDOF 4
ENDMDL
