MODEL 1
REMARK VINA RESULT:      -5.5      0.000      0.000
REMARK  Name = 
REMARK  3 active torsions:
REMARK  status: ('A' for Active; 'I' for Inactive)
REMARK    1  A    between atoms: O_2  and  C_3
REMARK    2  A    between atoms: C_3  and  C_5
REMARK    3  A    between atoms: C_14  and  C_15
REMARK                            x       y       z     vdW  Elec       q    Type
REMARK                         _______ _______ _______ _____ _____    ______ ____
ROOT
ATOM      1  C   UNL     1      29.412  22.840  25.790  0.00  0.00    +0.000 C 
ATOM      2  C   UNL     1      29.860  23.066  24.619  0.00  0.00    +0.000 C 
ATOM      3  C   UNL     1      31.374  23.165  24.516  0.00  0.00    +0.000 C 
ATOM      4  N   UNL     1      29.023  23.235  23.539  0.00  0.00    +0.000 NA
ATOM      5  C   UNL     1      27.637  23.176  23.650  0.00  0.00    +0.000 A 
ATOM      6  N   UNL     1      26.588  23.333  22.777  0.00  0.00    +0.000 NA
ATOM      7  C   UNL     1      25.468  23.189  23.485  0.00  0.00    +0.000 A 
ATOM      8  N   UNL     1      25.789  22.947  24.765  0.00  0.00    +0.000 NA
ATOM      9  N   UNL     1      27.153  22.952  24.791  0.00  0.00    +0.000 N 
ATOM     10  C   UNL     1      27.866  22.660  26.130  0.00  0.00    +0.000 C 
ENDROOT
BRANCH  10  11
ATOM     11  C   UNL     1      27.551  24.005  26.889  0.00  0.00    +0.000 A 
ATOM     12  S   UNL     1      27.866  25.568  26.300  0.00  0.00    +0.000 S 
ATOM     13  C   UNL     1      27.278  26.476  27.646  0.00  0.00    +0.000 A 
ATOM     14  C   UNL     1      26.872  25.507  28.478  0.00  0.00    +0.000 A 
ATOM     15  C   UNL     1      27.011  24.213  28.087  0.00  0.00    +0.000 A 
ATOM     16  C   UNL     1      26.542  23.123  29.024  0.00  0.00    +0.000 C 
ENDBRANCH  10  11
BRANCH   1  17
ATOM     17  C   UNL     1      30.293  22.691  26.966  0.00  0.00    +0.000 C 
ATOM     18  O   UNL     1      30.616  21.580  27.398  0.00  0.00    +0.000 OA
BRANCH  17  20
ATOM     19  C   UNL     1      30.620  24.051  28.989  0.00  0.00    +0.000 C 
ATOM     20  O   UNL     1      30.754  23.835  27.579  0.00  0.00    +0.000 OA
ENDBRANCH  17  20
ENDBRANCH   1  17
TORSDOF 3
ENDMDL
MODEL 2
REMARK VINA RESULT:      -5.2      2.823      4.832
REMARK  Name = 
REMARK  3 active torsions:
REMARK  status: ('A' for Active; 'I' for Inactive)
REMARK    1  A    between atoms: O_2  and  C_3
REMARK    2  A    between atoms: C_3  and  C_5
REMARK    3  A    between atoms: C_14  and  C_15
REMARK                            x       y       z     vdW  Elec       q    Type
REMARK                         _______ _______ _______ _____ _____    ______ ____
ROOT
ATOM      1  C   UNL     1      26.696  23.859  25.338  0.00  0.00    +0.000 C 
ATOM      2  C   UNL     1      25.719  24.468  25.883  0.00  0.00    +0.000 C 
ATOM      3  C   UNL     1      24.906  25.348  24.947  0.00  0.00    +0.000 C 
ATOM      4  N   UNL     1      25.447  24.354  27.228  0.00  0.00    +0.000 NA
ATOM      5  C   UNL     1      26.218  23.573  28.084  0.00  0.00    +0.000 A 
ATOM      6  N   UNL     1      26.201  23.306  29.430  0.00  0.00    +0.000 NA
ATOM      7  C   UNL     1      27.227  22.495  29.680  0.00  0.00    +0.000 A 
ATOM      8  N   UNL     1      27.879  22.249  28.532  0.00  0.00    +0.000 NA
ATOM      9  N   UNL     1      27.194  22.951  27.584  0.00  0.00    +0.000 N 
ATOM     10  C   UNL     1      27.660  22.857  26.115  0.00  0.00    +0.000 C 
ENDROOT
BRANCH  10  11
ATOM     11  C   UNL     1      28.986  23.705  26.211  0.00  0.00    +0.000 A 
ATOM     12  S   UNL     1      29.173  25.148  27.087  0.00  0.00    +0.000 S 
ATOM     13  C   UNL     1      30.828  25.468  26.712  0.00  0.00    +0.000 A 
ATOM     14  C   UNL     1      31.139  24.430  25.923  0.00  0.00    +0.000 A 
ATOM     15  C   UNL     1      30.180  23.504  25.658  0.00  0.00    +0.000 A 
ATOM     16  C   UNL     1      30.536  22.330  24.775  0.00  0.00    +0.000 C 
ENDBRANCH  10  11
BRANCH   1  17
ATOM     17  C   UNL     1      27.024  23.997  23.905  0.00  0.00    +0.000 C 
ATOM     18  O   UNL     1      26.680  23.149  23.076  0.00  0.00    +0.000 OA
BRANCH  17  20
ATOM     19  C   UNL     1      28.796  25.034  22.553  0.00  0.00    +0.000 C 
ATOM     20  O   UNL     1      27.731  25.110  23.507  0.00  0.00    +0.000 OA
ENDBRANCH  17  20
ENDBRANCH   1  17
TORSDOF 3
ENDMDL
MODEL 3
REMARK VINA RESULT:      -5.1      1.666      2.210
REMARK  Name = 
REMARK  3 active torsions:
REMARK  status: ('A' for Active; 'I' for Inactive)
REMARK    1  A    between atoms: O_2  and  C_3
REMARK    2  A    between atoms: C_3  and  C_5
REMARK    3  A    between atoms: C_14  and  C_15
REMARK                            x       y       z     vdW  Elec       q    Type
REMARK                         _______ _______ _______ _____ _____    ______ ____
ROOT
ATOM      1  C   UNL     1      28.325  23.003  26.419  0.00  0.00    +0.000 C 
ATOM      2  C   UNL     1      29.376  22.691  25.770  0.00  0.00    +0.000 C 
ATOM      3  C   UNL     1      30.568  22.293  26.626  0.00  0.00    +0.000 C 
ATOM      4  N   UNL     1      29.426  22.745  24.395  0.00  0.00    +0.000 NA
ATOM      5  C   UNL     1      28.341  23.144  23.622  0.00  0.00    +0.000 A 
ATOM      6  N   UNL     1      28.121  23.318  22.277  0.00  0.00    +0.000 NA
ATOM      7  C   UNL     1      26.870  23.754  22.140  0.00  0.00    +0.000 A 
ATOM      8  N   UNL     1      26.307  23.856  23.354  0.00  0.00    +0.000 NA
ATOM      9  N   UNL     1      27.280  23.458  24.225  0.00  0.00    +0.000 N 
ATOM     10  C   UNL     1      26.948  23.415  25.733  0.00  0.00    +0.000 C 
ENDROOT
BRANCH  10  11
ATOM     11  C   UNL     1      26.898  24.962  26.030  0.00  0.00    +0.000 A 
ATOM     12  S   UNL     1      28.110  26.084  25.629  0.00  0.00    +0.000 S 
ATOM     13  C   UNL     1      27.365  27.509  26.260  0.00  0.00    +0.000 A 
ATOM     14  C   UNL     1      26.214  27.026  26.749  0.00  0.00    +0.000 A 
ATOM     15  C   UNL     1      25.964  25.695  26.631  0.00  0.00    +0.000 A 
ATOM     16  C   UNL     1      24.661  25.155  27.175  0.00  0.00    +0.000 C 
ENDBRANCH  10  11
BRANCH   1  17
ATOM     17  C   UNL     1      28.263  22.984  27.895  0.00  0.00    +0.000 C 
ATOM     18  O   UNL     1      28.730  23.902  28.575  0.00  0.00    +0.000 OA
BRANCH  17  20
ATOM     19  C   UNL     1      27.095  21.989  29.815  0.00  0.00    +0.000 C 
ATOM     20  O   UNL     1      27.664  21.904  28.504  0.00  0.00    +0.000 OA
ENDBRANCH  17  20
ENDBRANCH   1  17
TORSDOF 3
ENDMDL
MODEL 4
REMARK VINA RESULT:      -5.0      1.949      4.058
REMARK  Name = 
REMARK  3 active torsions:
REMARK  status: ('A' for Active; 'I' for Inactive)
REMARK    1  A    between atoms: O_2  and  C_3
REMARK    2  A    between atoms: C_3  and  C_5
REMARK    3  A    between atoms: C_14  and  C_15
REMARK                            x       y       z     vdW  Elec       q    Type
REMARK                         _______ _______ _______ _____ _____    ______ ____
ROOT
ATOM      1  C   UNL     1      27.370  24.741  26.194  0.00  0.00    +0.000 C 
ATOM      2  C   UNL     1      26.433  23.892  26.353  0.00  0.00    +0.000 C 
ATOM      3  C   UNL     1      26.070  23.596  27.800  0.00  0.00    +0.000 C 
ATOM      4  N   UNL     1      25.822  23.273  25.285  0.00  0.00    +0.000 NA
ATOM      5  C   UNL     1      26.184  23.525  23.966  0.00  0.00    +0.000 A 
ATOM      6  N   UNL     1      25.784  23.046  22.743  0.00  0.00    +0.000 NA
ATOM      7  C   UNL     1      26.531  23.654  21.823  0.00  0.00    +0.000 A 
ATOM      8  N   UNL     1      27.381  24.494  22.435  0.00  0.00    +0.000 NA
ATOM      9  N   UNL     1      27.106  24.361  23.765  0.00  0.00    +0.000 N 
ATOM     10  C   UNL     1      27.890  25.232  24.771  0.00  0.00    +0.000 C 
ENDROOT
BRANCH  10  11
ATOM     11  C   UNL     1      29.295  24.522  24.686  0.00  0.00    +0.000 A 
ATOM     12  S   UNL     1      29.554  22.843  24.696  0.00  0.00    +0.000 S 
ATOM     13  C   UNL     1      31.278  22.845  24.589  0.00  0.00    +0.000 A 
ATOM     14  C   UNL     1      31.551  24.156  24.553  0.00  0.00    +0.000 A 
ATOM     15  C   UNL     1      30.518  25.038  24.603  0.00  0.00    +0.000 A 
ATOM     16  C   UNL     1      30.830  26.517  24.553  0.00  0.00    +0.000 C 
ENDBRANCH  10  11
BRANCH   1  17
ATOM     17  C   UNL     1      28.060  25.389  27.327  0.00  0.00    +0.000 C 
ATOM     18  O   UNL     1      27.795  26.544  27.675  0.00  0.00    +0.000 OA
BRANCH  17  20
ATOM     19  C   UNL     1      30.304  25.215  28.317  0.00  0.00    +0.000 C 
ATOM     20  O   UNL     1      29.020  24.665  28.000  0.00  0.00    +0.000 OA
ENDBRANCH  17  20
ENDBRANCH   1  17
TORSDOF 3
ENDMDL
MODEL 5
REMARK VINA RESULT:      -4.7     32.798     33.874
REMARK  Name = 
REMARK  3 active torsions:
REMARK  status: ('A' for Active; 'I' for Inactive)
REMARK    1  A    between atoms: O_2  and  C_3
REMARK    2  A    between atoms: C_3  and  C_5
REMARK    3  A    between atoms: C_14  and  C_15
REMARK                            x       y       z     vdW  Elec       q    Type
REMARK                         _______ _______ _______ _____ _____    ______ ____
ROOT
ATOM      1  C   UNL     1      19.281  -8.037  26.889  0.00  0.00    +0.000 C 
ATOM      2  C   UNL     1      19.109  -6.874  26.397  0.00  0.00    +0.000 C 
ATOM      3  C   UNL     1      17.782  -6.217  26.745  0.00  0.00    +0.000 C 
ATOM      4  N   UNL     1      20.050  -6.279  25.587  0.00  0.00    +0.000 NA
ATOM      5  C   UNL     1      21.247  -6.903  25.247  0.00  0.00    +0.000 A 
ATOM      6  N   UNL     1      22.321  -6.572  24.459  0.00  0.00    +0.000 NA
ATOM      7  C   UNL     1      23.164  -7.603  24.497  0.00  0.00    +0.000 A 
ATOM      8  N   UNL     1      22.648  -8.560  25.283  0.00  0.00    +0.000 NA
ATOM      9  N   UNL     1      21.457  -8.054  25.715  0.00  0.00    +0.000 N 
ATOM     10  C   UNL     1      20.606  -8.898  26.689  0.00  0.00    +0.000 C 
ENDROOT
BRANCH  10  11
ATOM     11  C   UNL     1      20.110 -10.016  25.695  0.00  0.00    +0.000 A 
ATOM     12  S   UNL     1      19.388  -9.742  24.181  0.00  0.00    +0.000 S 
ATOM     13  C   UNL     1      19.125 -11.384  23.717  0.00  0.00    +0.000 A 
ATOM     14  C   UNL     1      19.613 -12.052  24.771  0.00  0.00    +0.000 A 
ATOM     15  C   UNL     1      20.131 -11.342  25.808  0.00  0.00    +0.000 A 
ATOM     16  C   UNL     1      20.690 -12.098  26.992  0.00  0.00    +0.000 C 
ENDBRANCH  10  11
BRANCH   1  17
ATOM     17  C   UNL     1      18.268  -8.705  27.730  0.00  0.00    +0.000 C 
ATOM     18  O   UNL     1      18.405  -8.809  28.953  0.00  0.00    +0.000 OA
BRANCH  17  20
ATOM     19  C   UNL     1      16.750 -10.584  27.268  0.00  0.00    +0.000 C 
ATOM     20  O   UNL     1      17.148  -9.217  27.112  0.00  0.00    +0.000 OA
ENDBRANCH  17  20
ENDBRANCH   1  17
TORSDOF 3
ENDMDL
MODEL 6
REMARK VINA RESULT:      -4.7     33.204     34.226
REMARK  Name = 
REMARK  3 active torsions:
REMARK  status: ('A' for Active; 'I' for Inactive)
REMARK    1  A    between atoms: O_2  and  C_3
REMARK    2  A    between atoms: C_3  and  C_5
REMARK    3  A    between atoms: C_14  and  C_15
REMARK                            x       y       z     vdW  Elec       q    Type
REMARK                         _______ _______ _______ _____ _____    ______ ____
ROOT
ATOM      1  C   UNL     1      18.170  -9.779  28.022  0.00  0.00    +0.000 C 
ATOM      2  C   UNL     1      17.807 -10.931  27.617  0.00  0.00    +0.000 C 
ATOM      3  C   UNL     1      18.491 -12.101  28.307  0.00  0.00    +0.000 C 
ATOM      4  N   UNL     1      16.884 -11.092  26.608  0.00  0.00    +0.000 NA
ATOM      5  C   UNL     1      16.289 -10.014  25.960  0.00  0.00    +0.000 A 
ATOM      6  N   UNL     1      15.390  -9.880  24.931  0.00  0.00    +0.000 NA
ATOM      7  C   UNL     1      15.221  -8.574  24.729  0.00  0.00    +0.000 A 
ATOM      8  N   UNL     1      15.986  -7.895  25.598  0.00  0.00    +0.000 NA
ATOM      9  N   UNL     1      16.619  -8.856  26.331  0.00  0.00    +0.000 N 
ATOM     10  C   UNL     1      17.563  -8.413  27.471  0.00  0.00    +0.000 C 
ENDROOT
BRANCH  10  11
ATOM     11  C   UNL     1      18.762  -7.858  26.611  0.00  0.00    +0.000 A 
ATOM     12  S   UNL     1      19.844  -8.801  25.702  0.00  0.00    +0.000 S 
ATOM     13  C   UNL     1      20.836  -7.532  25.080  0.00  0.00    +0.000 A 
ATOM     14  C   UNL     1      20.266  -6.445  25.619  0.00  0.00    +0.000 A 
ATOM     15  C   UNL     1      19.180  -6.610  26.420  0.00  0.00    +0.000 A 
ATOM     16  C   UNL     1      18.534  -5.381  27.019  0.00  0.00    +0.000 C 
ENDBRANCH  10  11
BRANCH   1  17
ATOM     17  C   UNL     1      19.184  -9.587  29.079  0.00  0.00    +0.000 C 
ATOM     18  O   UNL     1      20.386  -9.767  28.865  0.00  0.00    +0.000 OA
BRANCH  17  20
ATOM     19  C   UNL     1      17.646  -9.828  30.982  0.00  0.00    +0.000 C 
ATOM     20  O   UNL     1      18.751  -9.195  30.327  0.00  0.00    +0.000 OA
ENDBRANCH  17  20
ENDBRANCH   1  17
TORSDOF 3
ENDMDL
MODEL 7
REMARK VINA RESULT:      -4.6      2.475      4.547
REMARK  Name = 
REMARK  3 active torsions:
REMARK  status: ('A' for Active; 'I' for Inactive)
REMARK    1  A    between atoms: O_2  and  C_3
REMARK    2  A    between atoms: C_3  and  C_5
REMARK    3  A    between atoms: C_14  and  C_15
REMARK                            x       y       z     vdW  Elec       q    Type
REMARK                         _______ _______ _______ _____ _____    ______ ____
ROOT
ATOM      1  C   UNL     1      27.629  24.202  26.731  0.00  0.00    +0.000 C 
ATOM      2  C   UNL     1      26.953  23.660  27.666  0.00  0.00    +0.000 C 
ATOM      3  C   UNL     1      27.664  22.539  28.408  0.00  0.00    +0.000 C 
ATOM      4  N   UNL     1      25.664  24.048  27.951  0.00  0.00    +0.000 NA
ATOM      5  C   UNL     1      25.010  25.052  27.244  0.00  0.00    +0.000 A 
ATOM      6  N   UNL     1      23.755  25.607  27.286  0.00  0.00    +0.000 NA
ATOM      7  C   UNL     1      23.702  26.525  26.322  0.00  0.00    +0.000 A 
ATOM      8  N   UNL     1      24.882  26.557  25.684  0.00  0.00    +0.000 NA
ATOM      9  N   UNL     1      25.644  25.616  26.312  0.00  0.00    +0.000 N 
ATOM     10  C   UNL     1      27.103  25.417  25.846  0.00  0.00    +0.000 C 
ENDROOT
BRANCH  10  11
ATOM     11  C   UNL     1      26.837  24.708  24.463  0.00  0.00    +0.000 A 
ATOM     12  S   UNL     1      25.771  23.410  24.209  0.00  0.00    +0.000 S 
ATOM     13  C   UNL     1      26.026  23.191  22.515  0.00  0.00    +0.000 A 
ATOM     14  C   UNL     1      26.930  24.143  22.246  0.00  0.00    +0.000 A 
ATOM     15  C   UNL     1      27.358  24.940  23.261  0.00  0.00    +0.000 A 
ATOM     16  C   UNL     1      28.370  26.019  22.952  0.00  0.00    +0.000 C 
ENDBRANCH  10  11
BRANCH   1  17
ATOM     17  C   UNL     1      29.001  23.775  26.387  0.00  0.00    +0.000 C 
ATOM     18  O   UNL     1      29.992  24.401  26.773  0.00  0.00    +0.000 OA
BRANCH  17  20
ATOM     19  C   UNL     1      29.994  22.619  24.457  0.00  0.00    +0.000 C 
ATOM     20  O   UNL     1      29.151  22.643  25.616  0.00  0.00    +0.000 OA
ENDBRANCH  17  20
ENDBRANCH   1  17
TORSDOF 3
ENDMDL
MODEL 8
REMARK VINA RESULT:      -4.6     32.838     33.841
REMARK  Name = 
REMARK  3 active torsions:
REMARK  status: ('A' for Active; 'I' for Inactive)
REMARK    1  A    between atoms: O_2  and  C_3
REMARK    2  A    between atoms: C_3  and  C_5
REMARK    3  A    between atoms: C_14  and  C_15
REMARK                            x       y       z     vdW  Elec       q    Type
REMARK                         _______ _______ _______ _____ _____    ______ ____
ROOT
ATOM      1  C   UNL     1      19.696  -9.137  25.048  0.00  0.00    +0.000 C 
ATOM      2  C   UNL     1      20.795  -8.502  24.940  0.00  0.00    +0.000 C 
ATOM      3  C   UNL     1      21.967  -9.325  24.429  0.00  0.00    +0.000 C 
ATOM      4  N   UNL     1      20.909  -7.176  25.294  0.00  0.00    +0.000 NA
ATOM      5  C   UNL     1      19.839  -6.440  25.793  0.00  0.00    +0.000 A 
ATOM      6  N   UNL     1      19.675  -5.153  26.242  0.00  0.00    +0.000 NA
ATOM      7  C   UNL     1      18.406  -5.036  26.631  0.00  0.00    +0.000 A 
ATOM      8  N   UNL     1      17.779  -6.206  26.437  0.00  0.00    +0.000 NA
ATOM      9  N   UNL     1      18.732  -7.030  25.913  0.00  0.00    +0.000 N 
ATOM     10  C   UNL     1      18.331  -8.471  25.526  0.00  0.00    +0.000 C 
ENDROOT
BRANCH  10  11
ATOM     11  C   UNL     1      18.166  -9.088  26.968  0.00  0.00    +0.000 A 
ATOM     12  S   UNL     1      19.352  -9.082  28.184  0.00  0.00    +0.000 S 
ATOM     13  C   UNL     1      18.469  -9.916  29.412  0.00  0.00    +0.000 A 
ATOM     14  C   UNL     1      17.300 -10.152  28.801  0.00  0.00    +0.000 A 
ATOM     15  C   UNL     1      17.135  -9.720  27.522  0.00  0.00    +0.000 A 
ATOM     16  C   UNL     1      15.812  -9.980  26.839  0.00  0.00    +0.000 C 
ENDBRANCH  10  11
BRANCH   1  17
ATOM     17  C   UNL     1      19.564 -10.568  24.707  0.00  0.00    +0.000 C 
ATOM     18  O   UNL     1      19.963 -11.455  25.466  0.00  0.00    +0.000 OA
BRANCH  17  20
ATOM     19  C   UNL     1      17.680 -11.503  23.433  0.00  0.00    +0.000 C 
ATOM     20  O   UNL     1      18.975 -10.895  23.505  0.00  0.00    +0.000 OA
ENDBRANCH  17  20
ENDBRANCH   1  17
TORSDOF 3
ENDMDL
MODEL 9
REMARK VINA RESULT:      -4.5      3.370      5.496
REMARK  Name = 
REMARK  3 active torsions:
REMARK  status: ('A' for Active; 'I' for Inactive)
REMARK    1  A    between atoms: O_2  and  C_3
REMARK    2  A    between atoms: C_3  and  C_5
REMARK    3  A    between atoms: C_14  and  C_15
REMARK                            x       y       z     vdW  Elec       q    Type
REMARK                         _______ _______ _______ _____ _____    ______ ____
ROOT
ATOM      1  C   UNL     1      25.671  24.985  27.293  0.00  0.00    +0.000 C 
ATOM      2  C   UNL     1      25.118  25.451  28.342  0.00  0.00    +0.000 C 
ATOM      3  C   UNL     1      24.351  26.749  28.144  0.00  0.00    +0.000 C 
ATOM      4  N   UNL     1      25.238  24.831  29.566  0.00  0.00    +0.000 NA
ATOM      5  C   UNL     1      25.970  23.661  29.743  0.00  0.00    +0.000 A 
ATOM      6  N   UNL     1      26.278  22.866  30.819  0.00  0.00    +0.000 NA
ATOM      7  C   UNL     1      27.054  21.882  30.367  0.00  0.00    +0.000 A 
ATOM      8  N   UNL     1      27.236  22.042  29.047  0.00  0.00    +0.000 NA
ATOM      9  N   UNL     1      26.531  23.166  28.730  0.00  0.00    +0.000 N 
ATOM     10  C   UNL     1      26.493  23.621  27.255  0.00  0.00    +0.000 C 
ENDROOT
BRANCH  10  11
ATOM     11  C   UNL     1      27.972  24.147  27.109  0.00  0.00    +0.000 A 
ATOM     12  S   UNL     1      28.754  25.204  28.185  0.00  0.00    +0.000 S 
ATOM     13  C   UNL     1      30.277  25.316  27.378  0.00  0.00    +0.000 A 
ATOM     14  C   UNL     1      30.086  24.524  26.314  0.00  0.00    +0.000 A 
ATOM     15  C   UNL     1      28.882  23.909  26.168  0.00  0.00    +0.000 A 
ATOM     16  C   UNL     1      28.673  23.008  24.972  0.00  0.00    +0.000 C 
ENDBRANCH  10  11
BRANCH   1  17
ATOM     17  C   UNL     1      25.583  25.655  25.980  0.00  0.00    +0.000 C 
ATOM     18  O   UNL     1      24.751  25.316  25.133  0.00  0.00    +0.000 OA
BRANCH  17  20
ATOM     19  C   UNL     1      27.155  26.791  24.469  0.00  0.00    +0.000 C 
ATOM     20  O   UNL     1      26.461  26.683  25.717  0.00  0.00    +0.000 OA
ENDBRANCH  17  20
ENDBRANCH   1  17
TORSDOF 3
ENDMDL
MODEL 10
REMARK VINA RESULT:      -4.5     18.148     20.125
REMARK  Name = 
REMARK  3 active torsions:
REMARK  status: ('A' for Active; 'I' for Inactive)
REMARK    1  A    between atoms: O_2  and  C_3
REMARK    2  A    between atoms: C_3  and  C_5
REMARK    3  A    between atoms: C_14  and  C_15
REMARK                            x       y       z     vdW  Elec       q    Type
REMARK                         _______ _______ _______ _____ _____    ______ ____
ROOT
ATOM      1  C   UNL     1      20.844   9.187  39.348  0.00  0.00    +0.000 C 
ATOM      2  C   UNL     1      21.906   8.694  39.851  0.00  0.00    +0.000 C 
ATOM      3  C   UNL     1      21.757   8.150  41.263  0.00  0.00    +0.000 C 
ATOM      4  N   UNL     1      23.102   8.689  39.169  0.00  0.00    +0.000 NA
ATOM      5  C   UNL     1      23.236   9.221  37.890  0.00  0.00    +0.000 A 
ATOM      6  N   UNL     1      24.279   9.377  37.011  0.00  0.00    +0.000 NA
ATOM      7  C   UNL     1      23.793   9.994  35.935  0.00  0.00    +0.000 A 
ATOM      8  N   UNL     1      22.484  10.226  36.119  0.00  0.00    +0.000 NA
ATOM      9  N   UNL     1      22.209   9.716  37.354  0.00  0.00    +0.000 N 
ATOM     10  C   UNL     1      20.755   9.781  37.872  0.00  0.00    +0.000 C 
ENDROOT
BRANCH  10  11
ATOM     11  C   UNL     1      20.652  11.328  38.160  0.00  0.00    +0.000 A 
ATOM     12  S   UNL     1      21.909  12.307  38.748  0.00  0.00    +0.000 S 
ATOM     13  C   UNL     1      21.061  13.810  38.809  0.00  0.00    +0.000 A 
ATOM     14  C   UNL     1      19.845  13.460  38.368  0.00  0.00    +0.000 A 
ATOM     15  C   UNL     1      19.625  12.163  38.026  0.00  0.00    +0.000 A 
ATOM     16  C   UNL     1      18.255  11.773  37.519  0.00  0.00    +0.000 C 
ENDBRANCH  10  11
BRANCH   1  17
ATOM     17  C   UNL     1      19.562   9.234  40.078  0.00  0.00    +0.000 C 
ATOM     18  O   UNL     1      19.334  10.091  40.937  0.00  0.00    +0.000 OA
BRANCH  17  20
ATOM     19  C   UNL     1      17.535   7.973  40.667  0.00  0.00    +0.000 C 
ATOM     20  O   UNL     1      18.610   8.285  39.774  0.00  0.00    +0.000 OA
ENDBRANCH  17  20
ENDBRANCH   1  17
TORSDOF 3
ENDMDL
