MODEL 1
REMARK VINA RESULT:      -7.0      0.000      0.000
REMARK  Name = 
REMARK  2 active torsions:
REMARK  status: ('A' for Active; 'I' for Inactive)
REMARK    1  A    between atoms: C_2  and  C_4
REMARK    2  A    between atoms: C_13  and  C_14
REMARK                            x       y       z     vdW  Elec       q    Type
REMARK                         _______ _______ _______ _____ _____    ______ ____
ROOT
ATOM      1  C   UNL     1      18.803  -7.481  26.622  0.00  0.00    +0.000 A 
ATOM      2  C   UNL     1      19.028  -6.167  26.281  0.00  0.00    +0.000 A 
ATOM      3  C   UNL     1      20.222  -5.812  25.653  0.00  0.00    +0.000 A 
ATOM      4  C   UNL     1      21.178  -6.801  25.379  0.00  0.00    +0.000 A 
ATOM      5  C   UNL     1      20.883  -8.074  25.745  0.00  0.00    +0.000 A 
ATOM      6  C   UNL     1      19.701  -8.385  26.359  0.00  0.00    +0.000 A 
ATOM      7  S   UNL     1      22.076  -9.357  25.411  0.00  0.00    +0.000 S 
ATOM      8  C   UNL     1      23.431  -8.519  24.622  0.00  0.00    +0.000 A 
ATOM      9  C   UNL     1      24.507  -9.264  24.246  0.00  0.00    +0.000 A 
ATOM     10  C   UNL     1      25.582  -8.666  23.631  0.00  0.00    +0.000 A 
ATOM     11  C   UNL     1      25.604  -7.370  23.389  0.00  0.00    +0.000 A 
ATOM     12  C   UNL     1      24.526  -6.599  23.760  0.00  0.00    +0.000 A 
ATOM     13  C   UNL     1      23.412  -7.169  24.388  0.00  0.00    +0.000 A 
ATOM     14  O   UNL     1      22.349  -6.405  24.755  0.00  0.00    +0.000 OA
ENDROOT
BRANCH   1  16
ATOM     15  C   UNL     1      16.594  -8.008  25.878  0.00  0.00    +0.000 C 
ATOM     16  C   UNL     1      17.393  -7.679  27.324  0.00  0.00    +0.000 C 
ATOM     17  O   UNL     1      16.941  -6.198  27.293  0.00  0.00    +0.000 OA
ENDBRANCH   1  16
BRANCH  10  18
ATOM     18  C   UNL     1      26.818  -9.622  23.226  0.00  0.00    +0.000 C 
ATOM     19  C   UNL     1      27.763  -8.433  22.533  0.00  0.00    +0.000 C 
ATOM     20  O   UNL     1      27.514  -9.472  24.592  0.00  0.00    +0.000 OA
ENDBRANCH  10  18
TORSDOF 2
ENDMDL
MODEL 2
REMARK VINA RESULT:      -6.7      0.760      7.401
REMARK  Name = 
REMARK  2 active torsions:
REMARK  status: ('A' for Active; 'I' for Inactive)
REMARK    1  A    between atoms: C_2  and  C_4
REMARK    2  A    between atoms: C_13  and  C_14
REMARK                            x       y       z     vdW  Elec       q    Type
REMARK                         _______ _______ _______ _____ _____    ______ ____
ROOT
ATOM      1  C   UNL     1      25.565  -8.700  23.404  0.00  0.00    +0.000 A 
ATOM      2  C   UNL     1      25.717  -7.333  23.461  0.00  0.00    +0.000 A 
ATOM      3  C   UNL     1      24.668  -6.541  23.928  0.00  0.00    +0.000 A 
ATOM      4  C   UNL     1      23.470  -7.150  24.332  0.00  0.00    +0.000 A 
ATOM      5  C   UNL     1      23.397  -8.502  24.245  0.00  0.00    +0.000 A 
ATOM      6  C   UNL     1      24.447  -9.247  23.782  0.00  0.00    +0.000 A 
ATOM      7  S   UNL     1      21.889  -9.309  24.750  0.00  0.00    +0.000 S 
ATOM      8  C   UNL     1      20.821  -7.987  25.269  0.00  0.00    +0.000 A 
ATOM      9  C   UNL     1      19.576  -8.312  25.715  0.00  0.00    +0.000 A 
ATOM     10  C   UNL     1      18.709  -7.328  26.128  0.00  0.00    +0.000 A 
ATOM     11  C   UNL     1      19.052  -6.055  26.106  0.00  0.00    +0.000 A 
ATOM     12  C   UNL     1      20.305  -5.704  25.659  0.00  0.00    +0.000 A 
ATOM     13  C   UNL     1      21.218  -6.676  25.230  0.00  0.00    +0.000 A 
ATOM     14  O   UNL     1      22.455  -6.327  24.788  0.00  0.00    +0.000 OA
ENDROOT
BRANCH   1  16
ATOM     15  C   UNL     1      27.518  -9.672  24.379  0.00  0.00    +0.000 C 
ATOM     16  C   UNL     1      26.866  -9.419  22.847  0.00  0.00    +0.000 C 
ATOM     17  O   UNL     1      27.726  -8.148  22.638  0.00  0.00    +0.000 OA
ENDBRANCH   1  16
BRANCH  10  18
ATOM     18  C   UNL     1      17.252  -7.801  26.636  0.00  0.00    +0.000 C 
ATOM     19  C   UNL     1      17.757  -8.461  28.084  0.00  0.00    +0.000 C 
ATOM     20  O   UNL     1      16.928  -6.445  27.291  0.00  0.00    +0.000 OA
ENDBRANCH  10  18
TORSDOF 2
ENDMDL
MODEL 3
REMARK VINA RESULT:      -6.5     31.352     31.847
REMARK  Name = 
REMARK  2 active torsions:
REMARK  status: ('A' for Active; 'I' for Inactive)
REMARK    1  A    between atoms: C_2  and  C_4
REMARK    2  A    between atoms: C_13  and  C_14
REMARK                            x       y       z     vdW  Elec       q    Type
REMARK                         _______ _______ _______ _____ _____    ______ ____
ROOT
ATOM      1  C   UNL     1      27.798  23.391  23.455  0.00  0.00    +0.000 A 
ATOM      2  C   UNL     1      26.542  23.302  24.012  0.00  0.00    +0.000 A 
ATOM      3  C   UNL     1      26.410  23.109  25.388  0.00  0.00    +0.000 A 
ATOM      4  C   UNL     1      27.561  23.008  26.185  0.00  0.00    +0.000 A 
ATOM      5  C   UNL     1      28.762  23.107  25.562  0.00  0.00    +0.000 A 
ATOM      6  C   UNL     1      28.854  23.296  24.210  0.00  0.00    +0.000 A 
ATOM      7  S   UNL     1      30.246  22.984  26.543  0.00  0.00    +0.000 S 
ATOM      8  C   UNL     1      29.667  22.746  28.207  0.00  0.00    +0.000 A 
ATOM      9  C   UNL     1      30.599  22.617  29.193  0.00  0.00    +0.000 A 
ATOM     10  C   UNL     1      30.206  22.432  30.497  0.00  0.00    +0.000 A 
ATOM     11  C   UNL     1      28.931  22.374  30.831  0.00  0.00    +0.000 A 
ATOM     12  C   UNL     1      27.974  22.501  29.851  0.00  0.00    +0.000 A 
ATOM     13  C   UNL     1      28.332  22.692  28.510  0.00  0.00    +0.000 A 
ATOM     14  O   UNL     1      27.384  22.817  27.544  0.00  0.00    +0.000 OA
ENDROOT
BRANCH   1  16
ATOM     15  C   UNL     1      27.522  25.275  22.011  0.00  0.00    +0.000 C 
ATOM     16  C   UNL     1      27.736  23.610  21.884  0.00  0.00    +0.000 C 
ATOM     17  O   UNL     1      26.214  23.379  21.708  0.00  0.00    +0.000 OA
ENDBRANCH   1  16
BRANCH  10  18
ATOM     18  C   UNL     1      31.375  22.283  31.600  0.00  0.00    +0.000 C 
ATOM     19  C   UNL     1      30.432  21.588  32.789  0.00  0.00    +0.000 C 
ATOM     20  O   UNL     1      31.837  20.911  31.072  0.00  0.00    +0.000 OA
ENDBRANCH  10  18
TORSDOF 2
ENDMDL
MODEL 4
REMARK VINA RESULT:      -6.3     31.539     32.125
REMARK  Name = 
REMARK  2 active torsions:
REMARK  status: ('A' for Active; 'I' for Inactive)
REMARK    1  A    between atoms: C_2  and  C_4
REMARK    2  A    between atoms: C_13  and  C_14
REMARK                            x       y       z     vdW  Elec       q    Type
REMARK                         _______ _______ _______ _____ _____    ______ ____
ROOT
ATOM      1  C   UNL     1      31.216  22.437  29.960  0.00  0.00    +0.000 A 
ATOM      2  C   UNL     1      29.924  22.493  30.431  0.00  0.00    +0.000 A 
ATOM      3  C   UNL     1      28.870  22.680  29.536  0.00  0.00    +0.000 A 
ATOM      4  C   UNL     1      29.144  22.810  28.166  0.00  0.00    +0.000 A 
ATOM      5  C   UNL     1      30.442  22.743  27.779  0.00  0.00    +0.000 A 
ATOM      6  C   UNL     1      31.450  22.559  28.686  0.00  0.00    +0.000 A 
ATOM      7  S   UNL     1      30.826  22.904  26.045  0.00  0.00    +0.000 S 
ATOM      8  C   UNL     1      29.250  23.124  25.253  0.00  0.00    +0.000 A 
ATOM      9  C   UNL     1      29.234  23.275  23.899  0.00  0.00    +0.000 A 
ATOM     10  C   UNL     1      28.042  23.448  23.236  0.00  0.00    +0.000 A 
ATOM     11  C   UNL     1      26.893  23.472  23.881  0.00  0.00    +0.000 A 
ATOM     12  C   UNL     1      26.886  23.321  25.249  0.00  0.00    +0.000 A 
ATOM     13  C   UNL     1      28.078  23.142  25.962  0.00  0.00    +0.000 A 
ATOM     14  O   UNL     1      28.069  22.994  27.313  0.00  0.00    +0.000 OA
ENDROOT
BRANCH   1  16
ATOM     15  C   UNL     1      33.425  21.538  30.116  0.00  0.00    +0.000 C 
ATOM     16  C   UNL     1      32.266  22.220  31.131  0.00  0.00    +0.000 C 
ATOM     17  O   UNL     1      31.775  20.824  31.587  0.00  0.00    +0.000 OA
ENDBRANCH   1  16
BRANCH  10  18
ATOM     18  C   UNL     1      28.116  23.626  21.634  0.00  0.00    +0.000 C 
ATOM     19  C   UNL     1      27.571  25.204  21.589  0.00  0.00    +0.000 C 
ATOM     20  O   UNL     1      29.592  24.067  21.649  0.00  0.00    +0.000 OA
ENDBRANCH  10  18
TORSDOF 2
ENDMDL
MODEL 5
REMARK VINA RESULT:      -6.2     16.360     17.848
REMARK  Name = 
REMARK  2 active torsions:
REMARK  status: ('A' for Active; 'I' for Inactive)
REMARK    1  A    between atoms: C_2  and  C_4
REMARK    2  A    between atoms: C_13  and  C_14
REMARK                            x       y       z     vdW  Elec       q    Type
REMARK                         _______ _______ _______ _____ _____    ______ ____
ROOT
ATOM      1  C   UNL     1      33.875   3.922  35.598  0.00  0.00    +0.000 A 
ATOM      2  C   UNL     1      34.061   3.474  36.886  0.00  0.00    +0.000 A 
ATOM      3  C   UNL     1      34.108   2.103  37.139  0.00  0.00    +0.000 A 
ATOM      4  C   UNL     1      33.962   1.199  36.075  0.00  0.00    +0.000 A 
ATOM      5  C   UNL     1      33.782   1.718  34.835  0.00  0.00    +0.000 A 
ATOM      6  C   UNL     1      33.742   3.070  34.624  0.00  0.00    +0.000 A 
ATOM      7  S   UNL     1      33.595   0.599  33.459  0.00  0.00    +0.000 S 
ATOM      8  C   UNL     1      33.709  -1.023  34.178  0.00  0.00    +0.000 A 
ATOM      9  C   UNL     1      33.599  -2.096  33.348  0.00  0.00    +0.000 A 
ATOM     10  C   UNL     1      33.680  -3.373  33.852  0.00  0.00    +0.000 A 
ATOM     11  C   UNL     1      33.866  -3.595  35.138  0.00  0.00    +0.000 A 
ATOM     12  C   UNL     1      33.979  -2.524  35.996  0.00  0.00    +0.000 A 
ATOM     13  C   UNL     1      33.903  -1.208  35.523  0.00  0.00    +0.000 A 
ATOM     14  O   UNL     1      34.015  -0.152  36.371  0.00  0.00    +0.000 OA
ENDROOT
BRANCH   1  16
ATOM     15  C   UNL     1      32.766   5.539  34.232  0.00  0.00    +0.000 C 
ATOM     16  C   UNL     1      33.851   5.508  35.519  0.00  0.00    +0.000 C 
ATOM     17  O   UNL     1      35.061   5.681  34.567  0.00  0.00    +0.000 OA
ENDBRANCH   1  16
BRANCH  10  18
ATOM     18  C   UNL     1      33.533  -4.586  32.798  0.00  0.00    +0.000 C 
ATOM     19  C   UNL     1      34.749  -5.540  33.431  0.00  0.00    +0.000 C 
ATOM     20  O   UNL     1      32.449  -5.306  33.624  0.00  0.00    +0.000 OA
ENDBRANCH  10  18
TORSDOF 2
ENDMDL
MODEL 6
REMARK VINA RESULT:      -6.2     16.489     18.189
REMARK  Name = 
REMARK  2 active torsions:
REMARK  status: ('A' for Active; 'I' for Inactive)
REMARK    1  A    between atoms: C_2  and  C_4
REMARK    2  A    between atoms: C_13  and  C_14
REMARK                            x       y       z     vdW  Elec       q    Type
REMARK                         _______ _______ _______ _____ _____    ______ ____
ROOT
ATOM      1  C   UNL     1      33.891  -3.409  35.408  0.00  0.00    +0.000 A 
ATOM      2  C   UNL     1      33.651  -3.344  34.054  0.00  0.00    +0.000 A 
ATOM      3  C   UNL     1      33.551  -2.100  33.430  0.00  0.00    +0.000 A 
ATOM      4  C   UNL     1      33.696  -0.932  34.194  0.00  0.00    +0.000 A 
ATOM      5  C   UNL     1      33.931  -1.078  35.522  0.00  0.00    +0.000 A 
ATOM      6  C   UNL     1      34.023  -2.315  36.100  0.00  0.00    +0.000 A 
ATOM      7  S   UNL     1      34.121   0.385  36.522  0.00  0.00    +0.000 S 
ATOM      8  C   UNL     1      33.930   1.738  35.384  0.00  0.00    +0.000 A 
ATOM      9  C   UNL     1      34.028   3.003  35.878  0.00  0.00    +0.000 A 
ATOM     10  C   UNL     1      33.889   4.085  35.041  0.00  0.00    +0.000 A 
ATOM     11  C   UNL     1      33.660   3.933  33.751  0.00  0.00    +0.000 A 
ATOM     12  C   UNL     1      33.556   2.663  33.232  0.00  0.00    +0.000 A 
ATOM     13  C   UNL     1      33.692   1.535  34.050  0.00  0.00    +0.000 A 
ATOM     14  O   UNL     1      33.589   0.281  33.535  0.00  0.00    +0.000 OA
ENDROOT
BRANCH   1  16
ATOM     15  C   UNL     1      34.962  -5.411  34.661  0.00  0.00    +0.000 C 
ATOM     16  C   UNL     1      33.969  -4.908  35.925  0.00  0.00    +0.000 C 
ATOM     17  O   UNL     1      32.704  -5.438  35.206  0.00  0.00    +0.000 OA
ENDBRANCH   1  16
BRANCH  10  18
ATOM     18  C   UNL     1      34.014   5.549  35.710  0.00  0.00    +0.000 C 
ATOM     19  C   UNL     1      35.456   5.972  34.982  0.00  0.00    +0.000 C 
ATOM     20  O   UNL     1      33.181   6.234  34.609  0.00  0.00    +0.000 OA
ENDBRANCH  10  18
TORSDOF 2
ENDMDL
MODEL 7
REMARK VINA RESULT:      -6.2     31.317     31.973
REMARK  Name = 
REMARK  2 active torsions:
REMARK  status: ('A' for Active; 'I' for Inactive)
REMARK    1  A    between atoms: C_2  and  C_4
REMARK    2  A    between atoms: C_13  and  C_14
REMARK                            x       y       z     vdW  Elec       q    Type
REMARK                         _______ _______ _______ _____ _____    ______ ____
ROOT
ATOM      1  C   UNL     1      28.043  23.721  24.354  0.00  0.00    +0.000 A 
ATOM      2  C   UNL     1      29.150  23.111  23.809  0.00  0.00    +0.000 A 
ATOM      3  C   UNL     1      30.142  22.604  24.648  0.00  0.00    +0.000 A 
ATOM      4  C   UNL     1      29.997  22.724  26.039  0.00  0.00    +0.000 A 
ATOM      5  C   UNL     1      28.878  23.338  26.499  0.00  0.00    +0.000 A 
ATOM      6  C   UNL     1      27.926  23.823  25.646  0.00  0.00    +0.000 A 
ATOM      7  S   UNL     1      28.661  23.508  28.261  0.00  0.00    +0.000 S 
ATOM      8  C   UNL     1      30.107  22.754  28.969  0.00  0.00    +0.000 A 
ATOM      9  C   UNL     1      30.217  22.737  30.326  0.00  0.00    +0.000 A 
ATOM     10  C   UNL     1      31.315  22.166  30.926  0.00  0.00    +0.000 A 
ATOM     11  C   UNL     1      32.284  21.625  30.214  0.00  0.00    +0.000 A 
ATOM     12  C   UNL     1      32.194  21.632  28.841  0.00  0.00    +0.000 A 
ATOM     13  C   UNL     1      31.092  22.202  28.191  0.00  0.00    +0.000 A 
ATOM     14  O   UNL     1      31.005  22.208  26.835  0.00  0.00    +0.000 OA
ENDROOT
BRANCH   1  16
ATOM     15  C   UNL     1      25.769  23.260  23.782  0.00  0.00    +0.000 C 
ATOM     16  C   UNL     1      27.034  24.228  23.237  0.00  0.00    +0.000 C 
ATOM     17  O   UNL     1      27.412  23.200  22.142  0.00  0.00    +0.000 OA
ENDBRANCH   1  16
BRANCH  10  18
ATOM     18  C   UNL     1      31.366  22.195  32.538  0.00  0.00    +0.000 C 
ATOM     19  C   UNL     1      30.285  23.450  32.744  0.00  0.00    +0.000 C 
ATOM     20  O   UNL     1      30.261  21.131  32.692  0.00  0.00    +0.000 OA
ENDBRANCH  10  18
TORSDOF 2
ENDMDL
MODEL 8
REMARK VINA RESULT:      -6.2     31.492     32.024
REMARK  Name = 
REMARK  2 active torsions:
REMARK  status: ('A' for Active; 'I' for Inactive)
REMARK    1  A    between atoms: C_2  and  C_4
REMARK    2  A    between atoms: C_13  and  C_14
REMARK                            x       y       z     vdW  Elec       q    Type
REMARK                         _______ _______ _______ _____ _____    ______ ____
ROOT
ATOM      1  C   UNL     1      31.180  22.330  30.723  0.00  0.00    +0.000 A 
ATOM      2  C   UNL     1      32.172  21.775  29.947  0.00  0.00    +0.000 A 
ATOM      3  C   UNL     1      32.035  21.760  28.558  0.00  0.00    +0.000 A 
ATOM      4  C   UNL     1      30.885  22.311  27.972  0.00  0.00    +0.000 A 
ATOM      5  C   UNL     1      29.952  22.839  28.804  0.00  0.00    +0.000 A 
ATOM      6  C   UNL     1      30.121  22.836  30.162  0.00  0.00    +0.000 A 
ATOM      7  S   UNL     1      28.478  23.548  28.094  0.00  0.00    +0.000 S 
ATOM      8  C   UNL     1      28.676  23.338  26.340  0.00  0.00    +0.000 A 
ATOM      9  C   UNL     1      27.683  23.795  25.528  0.00  0.00    +0.000 A 
ATOM     10  C   UNL     1      27.786  23.659  24.164  0.00  0.00    +0.000 A 
ATOM     11  C   UNL     1      28.836  23.088  23.606  0.00  0.00    +0.000 A 
ATOM     12  C   UNL     1      29.851  22.619  24.408  0.00  0.00    +0.000 A 
ATOM     13  C   UNL     1      29.786  22.739  25.802  0.00  0.00    +0.000 A 
ATOM     14  O   UNL     1      30.789  22.274  26.592  0.00  0.00    +0.000 OA
ENDROOT
BRANCH   1  16
ATOM     15  C   UNL     1      32.811  21.188  32.045  0.00  0.00    +0.000 C 
ATOM     16  C   UNL     1      31.523  22.250  32.271  0.00  0.00    +0.000 C 
ATOM     17  O   UNL     1      30.565  21.087  32.631  0.00  0.00    +0.000 OA
ENDBRANCH   1  16
BRANCH  10  18
ATOM     18  C   UNL     1      26.561  24.223  23.277  0.00  0.00    +0.000 C 
ATOM     19  C   UNL     1      27.394  24.314  21.833  0.00  0.00    +0.000 C 
ATOM     20  O   UNL     1      26.018  22.818  22.951  0.00  0.00    +0.000 OA
ENDBRANCH  10  18
TORSDOF 2
ENDMDL
MODEL 9
REMARK VINA RESULT:      -6.2     17.456     19.049
REMARK  Name = 
REMARK  2 active torsions:
REMARK  status: ('A' for Active; 'I' for Inactive)
REMARK    1  A    between atoms: C_2  and  C_4
REMARK    2  A    between atoms: C_13  and  C_14
REMARK                            x       y       z     vdW  Elec       q    Type
REMARK                         _______ _______ _______ _____ _____    ______ ____
ROOT
ATOM      1  C   UNL     1      33.938  -2.016  35.065  0.00  0.00    +0.000 A 
ATOM      2  C   UNL     1      33.677  -1.739  33.742  0.00  0.00    +0.000 A 
ATOM      3  C   UNL     1      33.556  -0.413  33.325  0.00  0.00    +0.000 A 
ATOM      4  C   UNL     1      33.701   0.621  34.263  0.00  0.00    +0.000 A 
ATOM      5  C   UNL     1      33.958   0.267  35.547  0.00  0.00    +0.000 A 
ATOM      6  C   UNL     1      34.071  -1.044  35.920  0.00  0.00    +0.000 A 
ATOM      7  S   UNL     1      34.149   1.556  36.765  0.00  0.00    +0.000 S 
ATOM      8  C   UNL     1      33.927   3.069  35.860  0.00  0.00    +0.000 A 
ATOM      9  C   UNL     1      34.021   4.242  36.546  0.00  0.00    +0.000 A 
ATOM     10  C   UNL     1      33.858   5.441  35.895  0.00  0.00    +0.000 A 
ATOM     11  C   UNL     1      33.610   5.493  34.601  0.00  0.00    +0.000 A 
ATOM     12  C   UNL     1      33.511   4.321  33.887  0.00  0.00    +0.000 A 
ATOM     13  C   UNL     1      33.671   3.078  34.513  0.00  0.00    +0.000 A 
ATOM     14  O   UNL     1      33.572   1.921  33.807  0.00  0.00    +0.000 OA
ENDROOT
BRANCH   1  16
ATOM     15  C   UNL     1      32.676  -3.939  34.416  0.00  0.00    +0.000 C 
ATOM     16  C   UNL     1      34.040  -3.577  35.336  0.00  0.00    +0.000 C 
ATOM     17  O   UNL     1      33.220  -3.608  36.650  0.00  0.00    +0.000 OA
ENDBRANCH   1  16
BRANCH  10  18
ATOM     18  C   UNL     1      33.979   6.781  36.786  0.00  0.00    +0.000 C 
ATOM     19  C   UNL     1      33.548   6.085  38.241  0.00  0.00    +0.000 C 
ATOM     20  O   UNL     1      35.483   6.583  37.061  0.00  0.00    +0.000 OA
ENDBRANCH  10  18
TORSDOF 2
ENDMDL
MODEL 10
REMARK VINA RESULT:      -5.9     31.549     32.115
REMARK  Name = 
REMARK  2 active torsions:
REMARK  status: ('A' for Active; 'I' for Inactive)
REMARK    1  A    between atoms: C_2  and  C_4
REMARK    2  A    between atoms: C_13  and  C_14
REMARK                            x       y       z     vdW  Elec       q    Type
REMARK                         _______ _______ _______ _____ _____    ______ ____
ROOT
ATOM      1  C   UNL     1      31.775  22.115  31.484  0.00  0.00    +0.000 A 
ATOM      2  C   UNL     1      32.896  21.864  30.726  0.00  0.00    +0.000 A 
ATOM      3  C   UNL     1      32.816  21.922  29.335  0.00  0.00    +0.000 A 
ATOM      4  C   UNL     1      31.591  22.234  28.726  0.00  0.00    +0.000 A 
ATOM      5  C   UNL     1      30.531  22.469  29.541  0.00  0.00    +0.000 A 
ATOM      6  C   UNL     1      30.647  22.404  30.903  0.00  0.00    +0.000 A 
ATOM      7  S   UNL     1      28.959  22.871  28.802  0.00  0.00    +0.000 S 
ATOM      8  C   UNL     1      29.263  22.844  27.051  0.00  0.00    +0.000 A 
ATOM      9  C   UNL     1      28.220  23.120  26.220  0.00  0.00    +0.000 A 
ATOM     10  C   UNL     1      28.401  23.113  24.857  0.00  0.00    +0.000 A 
ATOM     11  C   UNL     1      29.574  22.844  24.319  0.00  0.00    +0.000 A 
ATOM     12  C   UNL     1      30.641  22.563  25.140  0.00  0.00    +0.000 A 
ATOM     13  C   UNL     1      30.500  22.559  26.534  0.00  0.00    +0.000 A 
ATOM     14  O   UNL     1      31.556  22.281  27.344  0.00  0.00    +0.000 OA
ENDROOT
BRANCH   1  16
ATOM     15  C   UNL     1      30.557  21.355  33.395  0.00  0.00    +0.000 C 
ATOM     16  C   UNL     1      32.072  22.000  33.039  0.00  0.00    +0.000 C 
ATOM     17  O   UNL     1      31.613  23.425  33.439  0.00  0.00    +0.000 OA
ENDBRANCH   1  16
BRANCH  10  18
ATOM     18  C   UNL     1      27.110  23.445  23.946  0.00  0.00    +0.000 C 
ATOM     19  C   UNL     1      27.460  25.058  23.695  0.00  0.00    +0.000 C 
ATOM     20  O   UNL     1      27.801  23.023  22.635  0.00  0.00    +0.000 OA
ENDBRANCH  10  18
TORSDOF 2
ENDMDL
