MODEL 1
REMARK VINA RESULT:      -7.9      0.000      0.000
REMARK  Name = 
REMARK  5 active torsions:
REMARK  status: ('A' for Active; 'I' for Inactive)
REMARK    1  A    between atoms: C_19  and  C_20
REMARK    2  A    between atoms: C_23  and  O_24
REMARK    3  A    between atoms: O_24  and  C_25
REMARK    4  A    between atoms: C_25  and  C_26
REMARK    5  A    between atoms: C_26  and  N_27
REMARK                            x       y       z     vdW  Elec       q    Type
REMARK                         _______ _______ _______ _____ _____    ______ ____
ROOT
ATOM      1  O   UNL     1      46.413   8.180  20.397  0.00  0.00    +0.000 OA
ATOM      2  C   UNL     1      45.081   7.709  20.339  0.00  0.00    +0.000 A 
ATOM      3  C   UNL     1      44.357   7.543  21.497  0.00  0.00    +0.000 A 
ATOM      4  C   UNL     1      43.028   7.073  21.432  0.00  0.00    +0.000 A 
ATOM      5  C   UNL     1      42.499   6.796  20.202  0.00  0.00    +0.000 A 
ATOM      6  C   UNL     1      43.160   6.943  19.084  0.00  0.00    +0.000 A 
ATOM      7  C   UNL     1      44.497   7.415  19.136  0.00  0.00    +0.000 A 
ATOM      8  C   UNL     1      42.313   6.567  17.995  0.00  0.00    +0.000 A 
ATOM      9  C   UNL     1      42.532   6.540  16.598  0.00  0.00    +0.000 A 
ATOM     10  C   UNL     1      41.545   6.131  15.725  0.00  0.00    +0.000 A 
ATOM     11  C   UNL     1      40.299   5.733  16.227  0.00  0.00    +0.000 A 
ATOM     12  C   UNL     1      39.297   5.321  15.361  0.00  0.00    +0.000 A 
ATOM     13  C   UNL     1      38.085   4.937  15.901  0.00  0.00    +0.000 A 
ATOM     14  O   UNL     1      37.056   4.515  15.039  0.00  0.00    +0.000 OA
ATOM     15  C   UNL     1      37.838   4.951  17.252  0.00  0.00    +0.000 A 
ATOM     16  C   UNL     1      38.861   5.370  18.099  0.00  0.00    +0.000 A 
ATOM     17  C   UNL     1      40.078   5.756  17.583  0.00  0.00    +0.000 A 
ATOM     18  C   UNL     1      41.128   6.180  18.375  0.00  0.00    +0.000 A 
ATOM     19  C   UNL     1      41.039   6.266  19.990  0.00  0.00    +0.000 C 
ENDROOT
BRANCH  19  20
ATOM     20  C   UNL     1      40.265   7.670  20.024  0.00  0.00    +0.000 A 
ATOM     21  C   UNL     1      39.016   7.631  20.596  0.00  0.00    +0.000 A 
ATOM     22  C   UNL     1      38.270   8.785  20.675  0.00  0.00    +0.000 A 
ATOM     23  C   UNL     1      38.795   9.980  20.171  0.00  0.00    +0.000 A 
ATOM     24  C   UNL     1      40.051   9.951  19.610  0.00  0.00    +0.000 A 
ATOM     25  C   UNL     1      40.783   8.787  19.540  0.00  0.00    +0.000 A 
BRANCH  23  26
ATOM     26  O   UNL     1      38.048  11.161  20.244  0.00  0.00    +0.000 OA
BRANCH  26  27
ATOM     27  C   UNL     1      37.675  11.758  19.017  0.00  0.00    +0.000 C 
BRANCH  27  28
ATOM     28  C   UNL     1      36.856  10.802  18.185  0.00  0.00    +0.000 C 
BRANCH  28  29
ATOM     29  N   UNL     1      37.189  11.038  16.797  0.00  0.00    +0.000 NA
ATOM     30  C   UNL     1      38.333  10.201  16.448  0.00  0.00    +0.000 C 
ATOM     31  C   UNL     1      37.925   8.765  16.785  0.00  0.00    +0.000 C 
ATOM     32  C   UNL     1      36.861   8.390  15.761  0.00  0.00    +0.000 C 
ATOM     33  C   UNL     1      35.655   9.291  15.990  0.00  0.00    +0.000 C 
ATOM     34  C   UNL     1      36.061  10.760  15.922  0.00  0.00    +0.000 C 
ENDBRANCH  28  29
ENDBRANCH  27  28
ENDBRANCH  26  27
ENDBRANCH  23  26
ENDBRANCH  19  20
TORSDOF 5
ENDMDL
MODEL 2
REMARK VINA RESULT:      -7.1      2.489      3.911
REMARK  Name = 
REMARK  5 active torsions:
REMARK  status: ('A' for Active; 'I' for Inactive)
REMARK    1  A    between atoms: C_19  and  C_20
REMARK    2  A    between atoms: C_23  and  O_24
REMARK    3  A    between atoms: O_24  and  C_25
REMARK    4  A    between atoms: C_25  and  C_26
REMARK    5  A    between atoms: C_26  and  N_27
REMARK                            x       y       z     vdW  Elec       q    Type
REMARK                         _______ _______ _______ _____ _____    ______ ____
ROOT
ATOM      1  O   UNL     1      46.387   8.478  20.265  0.00  0.00    +0.000 OA
ATOM      2  C   UNL     1      45.074   7.954  20.246  0.00  0.00    +0.000 A 
ATOM      3  C   UNL     1      44.383   7.780  21.423  0.00  0.00    +0.000 A 
ATOM      4  C   UNL     1      43.074   7.257  21.397  0.00  0.00    +0.000 A 
ATOM      5  C   UNL     1      42.528   6.937  20.185  0.00  0.00    +0.000 A 
ATOM      6  C   UNL     1      43.158   7.090  19.049  0.00  0.00    +0.000 A 
ATOM      7  C   UNL     1      44.476   7.615  19.063  0.00  0.00    +0.000 A 
ATOM      8  C   UNL     1      42.301   6.661  17.988  0.00  0.00    +0.000 A 
ATOM      9  C   UNL     1      42.490   6.618  16.586  0.00  0.00    +0.000 A 
ATOM     10  C   UNL     1      41.501   6.155  15.743  0.00  0.00    +0.000 A 
ATOM     11  C   UNL     1      40.282   5.717  16.281  0.00  0.00    +0.000 A 
ATOM     12  C   UNL     1      39.279   5.250  15.446  0.00  0.00    +0.000 A 
ATOM     13  C   UNL     1      38.096   4.829  16.020  0.00  0.00    +0.000 A 
ATOM     14  O   UNL     1      37.064   4.351  15.190  0.00  0.00    +0.000 OA
ATOM     15  C   UNL     1      37.879   4.858  17.377  0.00  0.00    +0.000 A 
ATOM     16  C   UNL     1      38.903   5.332  18.192  0.00  0.00    +0.000 A 
ATOM     17  C   UNL     1      40.091   5.756  17.642  0.00  0.00    +0.000 A 
ATOM     18  C   UNL     1      41.141   6.235  18.401  0.00  0.00    +0.000 A 
ATOM     19  C   UNL     1      41.086   6.347  20.016  0.00  0.00    +0.000 C 
ENDROOT
BRANCH  19  20
ATOM     20  C   UNL     1      40.257   7.720  20.044  0.00  0.00    +0.000 A 
ATOM     21  C   UNL     1      39.005   7.631  20.602  0.00  0.00    +0.000 A 
ATOM     22  C   UNL     1      38.214   8.755  20.674  0.00  0.00    +0.000 A 
ATOM     23  C   UNL     1      38.698   9.971  20.179  0.00  0.00    +0.000 A 
ATOM     24  C   UNL     1      39.960   9.991  19.632  0.00  0.00    +0.000 A 
ATOM     25  C   UNL     1      40.737   8.857  19.568  0.00  0.00    +0.000 A 
BRANCH  23  26
ATOM     26  O   UNL     1      37.904  11.121  20.245  0.00  0.00    +0.000 OA
BRANCH  26  27
ATOM     27  C   UNL     1      38.552  12.324  20.611  0.00  0.00    +0.000 C 
BRANCH  27  28
ATOM     28  C   UNL     1      38.587  12.476  22.112  0.00  0.00    +0.000 C 
BRANCH  28  29
ATOM     29  N   UNL     1      38.603  13.893  22.405  0.00  0.00    +0.000 NA
ATOM     30  C   UNL     1      37.559  14.173  23.386  0.00  0.00    +0.000 C 
ATOM     31  C   UNL     1      37.843  13.259  24.579  0.00  0.00    +0.000 C 
ATOM     32  C   UNL     1      39.114  13.803  25.220  0.00  0.00    +0.000 C 
ATOM     33  C   UNL     1      40.249  13.639  24.217  0.00  0.00    +0.000 C 
ATOM     34  C   UNL     1      39.902  14.323  22.898  0.00  0.00    +0.000 C 
ENDBRANCH  28  29
ENDBRANCH  27  28
ENDBRANCH  26  27
ENDBRANCH  23  26
ENDBRANCH  19  20
TORSDOF 5
ENDMDL
MODEL 3
REMARK VINA RESULT:      -6.7      7.977     11.496
REMARK  Name = 
REMARK  5 active torsions:
REMARK  status: ('A' for Active; 'I' for Inactive)
REMARK    1  A    between atoms: C_19  and  C_20
REMARK    2  A    between atoms: C_23  and  O_24
REMARK    3  A    between atoms: O_24  and  C_25
REMARK    4  A    between atoms: C_25  and  C_26
REMARK    5  A    between atoms: C_26  and  N_27
REMARK                            x       y       z     vdW  Elec       q    Type
REMARK                         _______ _______ _______ _____ _____    ______ ____
ROOT
ATOM      1  O   UNL     1      37.794   4.304  10.082  0.00  0.00    +0.000 OA
ATOM      2  C   UNL     1      37.510   3.185  10.898  0.00  0.00    +0.000 A 
ATOM      3  C   UNL     1      37.480   1.922  10.351  0.00  0.00    +0.000 A 
ATOM      4  C   UNL     1      37.197   0.810  11.171  0.00  0.00    +0.000 A 
ATOM      5  C   UNL     1      36.959   1.028  12.499  0.00  0.00    +0.000 A 
ATOM      6  C   UNL     1      36.980   2.214  13.049  0.00  0.00    +0.000 A 
ATOM      7  C   UNL     1      37.264   3.341  12.235  0.00  0.00    +0.000 A 
ATOM      8  C   UNL     1      36.693   2.080  14.443  0.00  0.00    +0.000 A 
ATOM      9  C   UNL     1      36.594   3.037  15.480  0.00  0.00    +0.000 A 
ATOM     10  C   UNL     1      36.300   2.664  16.776  0.00  0.00    +0.000 A 
ATOM     11  C   UNL     1      36.094   1.311  17.076  0.00  0.00    +0.000 A 
ATOM     12  C   UNL     1      35.798   0.921  18.373  0.00  0.00    +0.000 A 
ATOM     13  C   UNL     1      35.602  -0.423  18.622  0.00  0.00    +0.000 A 
ATOM     14  O   UNL     1      35.301  -0.839  19.933  0.00  0.00    +0.000 OA
ATOM     15  C   UNL     1      35.690  -1.380  17.639  0.00  0.00    +0.000 A 
ATOM     16  C   UNL     1      35.988  -0.961  16.346  0.00  0.00    +0.000 A 
ATOM     17  C   UNL     1      36.187   0.374  16.074  0.00  0.00    +0.000 A 
ATOM     18  C   UNL     1      36.485   0.846  14.811  0.00  0.00    +0.000 A 
ATOM     19  C   UNL     1      36.630  -0.118  13.517  0.00  0.00    +0.000 C 
ENDROOT
BRANCH  19  20
ATOM     20  C   UNL     1      38.128  -0.587  13.846  0.00  0.00    +0.000 A 
ATOM     21  C   UNL     1      38.309  -1.947  13.915  0.00  0.00    +0.000 A 
ATOM     22  C   UNL     1      39.560  -2.451  14.192  0.00  0.00    +0.000 A 
ATOM     23  C   UNL     1      40.628  -1.571  14.398  0.00  0.00    +0.000 A 
ATOM     24  C   UNL     1      40.379  -0.220  14.315  0.00  0.00    +0.000 A 
ATOM     25  C   UNL     1      39.121   0.266  14.037  0.00  0.00    +0.000 A 
BRANCH  23  26
ATOM     26  O   UNL     1      41.904  -2.069  14.680  0.00  0.00    +0.000 OA
BRANCH  26  27
ATOM     27  C   UNL     1      42.886  -1.916  13.674  0.00  0.00    +0.000 C 
BRANCH  27  28
ATOM     28  C   UNL     1      42.590  -2.814  12.498  0.00  0.00    +0.000 C 
BRANCH  28  29
ATOM     29  N   UNL     1      42.877  -2.063  11.295  0.00  0.00    +0.000 NA
ATOM     30  C   UNL     1      43.018  -3.002  10.186  0.00  0.00    +0.000 C 
ATOM     31  C   UNL     1      41.723  -3.815  10.153  0.00  0.00    +0.000 C 
ATOM     32  C   UNL     1      40.642  -2.847   9.686  0.00  0.00    +0.000 C 
ATOM     33  C   UNL     1      40.495  -1.766  10.750  0.00  0.00    +0.000 C 
ATOM     34  C   UNL     1      41.835  -1.087  11.013  0.00  0.00    +0.000 C 
ENDBRANCH  28  29
ENDBRANCH  27  28
ENDBRANCH  26  27
ENDBRANCH  23  26
ENDBRANCH  19  20
TORSDOF 5
ENDMDL
MODEL 4
REMARK VINA RESULT:      -6.6      7.724     10.254
REMARK  Name = 
REMARK  5 active torsions:
REMARK  status: ('A' for Active; 'I' for Inactive)
REMARK    1  A    between atoms: C_19  and  C_20
REMARK    2  A    between atoms: C_23  and  O_24
REMARK    3  A    between atoms: O_24  and  C_25
REMARK    4  A    between atoms: C_25  and  C_26
REMARK    5  A    between atoms: C_26  and  N_27
REMARK                            x       y       z     vdW  Elec       q    Type
REMARK                         _______ _______ _______ _____ _____    ______ ____
ROOT
ATOM      1  O   UNL     1      45.737  -2.808  13.635  0.00  0.00    +0.000 OA
ATOM      2  C   UNL     1      44.416  -2.537  13.213  0.00  0.00    +0.000 A 
ATOM      3  C   UNL     1      43.599  -3.563  12.796  0.00  0.00    +0.000 A 
ATOM      4  C   UNL     1      42.281  -3.285  12.377  0.00  0.00    +0.000 A 
ATOM      5  C   UNL     1      41.856  -1.986  12.399  0.00  0.00    +0.000 A 
ATOM      6  C   UNL     1      42.606  -0.989  12.789  0.00  0.00    +0.000 A 
ATOM      7  C   UNL     1      43.933  -1.256  13.213  0.00  0.00    +0.000 A 
ATOM      8  C   UNL     1      41.851   0.222  12.688  0.00  0.00    +0.000 A 
ATOM      9  C   UNL     1      42.185   1.565  12.979  0.00  0.00    +0.000 A 
ATOM     10  C   UNL     1      41.273   2.586  12.799  0.00  0.00    +0.000 A 
ATOM     11  C   UNL     1      39.991   2.291  12.318  0.00  0.00    +0.000 A 
ATOM     12  C   UNL     1      39.065   3.306  12.133  0.00  0.00    +0.000 A 
ATOM     13  C   UNL     1      37.813   2.968  11.656  0.00  0.00    +0.000 A 
ATOM     14  O   UNL     1      36.858   3.985  11.461  0.00  0.00    +0.000 OA
ATOM     15  C   UNL     1      37.456   1.674  11.363  0.00  0.00    +0.000 A 
ATOM     16  C   UNL     1      38.405   0.675  11.558  0.00  0.00    +0.000 A 
ATOM     17  C   UNL     1      39.659   0.988  12.031  0.00  0.00    +0.000 A 
ATOM     18  C   UNL     1      40.640   0.038  12.244  0.00  0.00    +0.000 A 
ATOM     19  C   UNL     1      40.419  -1.541  11.957  0.00  0.00    +0.000 C 
ENDROOT
BRANCH  19  20
ATOM     20  C   UNL     1      39.641  -1.836  13.328  0.00  0.00    +0.000 A 
ATOM     21  C   UNL     1      38.459  -2.521  13.190  0.00  0.00    +0.000 A 
ATOM     22  C   UNL     1      37.716  -2.824  14.308  0.00  0.00    +0.000 A 
ATOM     23  C   UNL     1      38.177  -2.430  15.569  0.00  0.00    +0.000 A 
ATOM     24  C   UNL     1      39.369  -1.746  15.638  0.00  0.00    +0.000 A 
ATOM     25  C   UNL     1      40.098  -1.452  14.509  0.00  0.00    +0.000 A 
BRANCH  23  26
ATOM     26  O   UNL     1      37.432  -2.731  16.715  0.00  0.00    +0.000 OA
BRANCH  26  27
ATOM     27  C   UNL     1      36.173  -2.101  16.842  0.00  0.00    +0.000 C 
BRANCH  27  28
ATOM     28  C   UNL     1      36.340  -0.621  17.086  0.00  0.00    +0.000 C 
BRANCH  28  29
ATOM     29  N   UNL     1      35.454   0.072  16.175  0.00  0.00    +0.000 NA
ATOM     30  C   UNL     1      35.045   1.329  16.795  0.00  0.00    +0.000 C 
ATOM     31  C   UNL     1      36.337   2.072  17.138  0.00  0.00    +0.000 C 
ATOM     32  C   UNL     1      36.937   2.493  15.801  0.00  0.00    +0.000 C 
ATOM     33  C   UNL     1      37.306   1.227  15.038  0.00  0.00    +0.000 C 
ATOM     34  C   UNL     1      36.092   0.315  14.890  0.00  0.00    +0.000 C 
ENDBRANCH  28  29
ENDBRANCH  27  28
ENDBRANCH  26  27
ENDBRANCH  23  26
ENDBRANCH  19  20
TORSDOF 5
ENDMDL
MODEL 5
REMARK VINA RESULT:      -6.6      8.802     10.891
REMARK  Name = 
REMARK  5 active torsions:
REMARK  status: ('A' for Active; 'I' for Inactive)
REMARK    1  A    between atoms: C_19  and  C_20
REMARK    2  A    between atoms: C_23  and  O_24
REMARK    3  A    between atoms: O_24  and  C_25
REMARK    4  A    between atoms: C_25  and  C_26
REMARK    5  A    between atoms: C_26  and  N_27
REMARK                            x       y       z     vdW  Elec       q    Type
REMARK                         _______ _______ _______ _____ _____    ______ ____
ROOT
ATOM      1  O   UNL     1      44.146  -2.065  13.007  0.00  0.00    +0.000 OA
ATOM      2  C   UNL     1      43.003  -1.356  13.440  0.00  0.00    +0.000 A 
ATOM      3  C   UNL     1      42.959   0.015  13.333  0.00  0.00    +0.000 A 
ATOM      4  C   UNL     1      41.815   0.717  13.767  0.00  0.00    +0.000 A 
ATOM      5  C   UNL     1      40.774  -0.001  14.286  0.00  0.00    +0.000 A 
ATOM      6  C   UNL     1      40.784  -1.304  14.401  0.00  0.00    +0.000 A 
ATOM      7  C   UNL     1      41.929  -2.020  13.968  0.00  0.00    +0.000 A 
ATOM      8  C   UNL     1      39.544  -1.724  14.977  0.00  0.00    +0.000 A 
ATOM      9  C   UNL     1      39.048  -3.006  15.310  0.00  0.00    +0.000 A 
ATOM     10  C   UNL     1      37.797  -3.169  15.867  0.00  0.00    +0.000 A 
ATOM     11  C   UNL     1      36.997  -2.044  16.111  0.00  0.00    +0.000 A 
ATOM     12  C   UNL     1      35.737  -2.193  16.671  0.00  0.00    +0.000 A 
ATOM     13  C   UNL     1      34.984  -1.056  16.894  0.00  0.00    +0.000 A 
ATOM     14  O   UNL     1      33.702  -1.185  17.461  0.00  0.00    +0.000 OA
ATOM     15  C   UNL     1      35.435   0.204  16.583  0.00  0.00    +0.000 A 
ATOM     16  C   UNL     1      36.703   0.325  16.023  0.00  0.00    +0.000 A 
ATOM     17  C   UNL     1      37.471  -0.794  15.792  0.00  0.00    +0.000 A 
ATOM     18  C   UNL     1      38.736  -0.735  15.239  0.00  0.00    +0.000 A 
ATOM     19  C   UNL     1      39.448   0.654  14.806  0.00  0.00    +0.000 C 
ENDROOT
BRANCH  19  20
ATOM     20  C   UNL     1      38.679   0.788  13.405  0.00  0.00    +0.000 A 
ATOM     21  C   UNL     1      38.098   2.012  13.176  0.00  0.00    +0.000 A 
ATOM     22  C   UNL     1      37.414   2.228  12.001  0.00  0.00    +0.000 A 
ATOM     23  C   UNL     1      37.321   1.198  11.059  0.00  0.00    +0.000 A 
ATOM     24  C   UNL     1      37.924  -0.004  11.350  0.00  0.00    +0.000 A 
ATOM     25  C   UNL     1      38.604  -0.202  12.531  0.00  0.00    +0.000 A 
BRANCH  23  26
ATOM     26  O   UNL     1      36.629   1.405   9.860  0.00  0.00    +0.000 OA
BRANCH  26  27
ATOM     27  C   UNL     1      37.382   1.875   8.760  0.00  0.00    +0.000 C 
BRANCH  27  28
ATOM     28  C   UNL     1      36.777   1.406   7.460  0.00  0.00    +0.000 C 
BRANCH  28  29
ATOM     29  N   UNL     1      37.482   2.074   6.387  0.00  0.00    +0.000 NA
ATOM     30  C   UNL     1      37.372   1.256   5.182  0.00  0.00    +0.000 C 
ATOM     31  C   UNL     1      35.875   1.047   4.947  0.00  0.00    +0.000 C 
ATOM     32  C   UNL     1      35.332   2.408   4.526  0.00  0.00    +0.000 C 
ATOM     33  C   UNL     1      35.498   3.361   5.703  0.00  0.00    +0.000 C 
ATOM     34  C   UNL     1      36.955   3.410   6.152  0.00  0.00    +0.000 C 
ENDBRANCH  28  29
ENDBRANCH  27  28
ENDBRANCH  26  27
ENDBRANCH  23  26
ENDBRANCH  19  20
TORSDOF 5
ENDMDL
MODEL 6
REMARK VINA RESULT:      -6.5     27.357     29.824
REMARK  Name = 
REMARK  5 active torsions:
REMARK  status: ('A' for Active; 'I' for Inactive)
REMARK    1  A    between atoms: C_19  and  C_20
REMARK    2  A    between atoms: C_23  and  O_24
REMARK    3  A    between atoms: O_24  and  C_25
REMARK    4  A    between atoms: C_25  and  C_26
REMARK    5  A    between atoms: C_26  and  N_27
REMARK                            x       y       z     vdW  Elec       q    Type
REMARK                         _______ _______ _______ _____ _____    ______ ____
ROOT
ATOM      1  O   UNL     1      14.554   4.036  34.162  0.00  0.00    +0.000 OA
ATOM      2  C   UNL     1      13.995   2.867  33.598  0.00  0.00    +0.000 A 
ATOM      3  C   UNL     1      12.810   2.935  32.901  0.00  0.00    +0.000 A 
ATOM      4  C   UNL     1      12.258   1.764  32.340  0.00  0.00    +0.000 A 
ATOM      5  C   UNL     1      12.930   0.586  32.510  0.00  0.00    +0.000 A 
ATOM      6  C   UNL     1      14.057   0.488  33.166  0.00  0.00    +0.000 A 
ATOM      7  C   UNL     1      14.623   1.658  33.734  0.00  0.00    +0.000 A 
ATOM      8  C   UNL     1      14.482  -0.878  33.149  0.00  0.00    +0.000 A 
ATOM      9  C   UNL     1      15.617  -1.517  33.700  0.00  0.00    +0.000 A 
ATOM     10  C   UNL     1      15.819  -2.873  33.552  0.00  0.00    +0.000 A 
ATOM     11  C   UNL     1      14.885  -3.638  32.841  0.00  0.00    +0.000 A 
ATOM     12  C   UNL     1      15.075  -5.002  32.683  0.00  0.00    +0.000 A 
ATOM     13  C   UNL     1      14.128  -5.716  31.975  0.00  0.00    +0.000 A 
ATOM     14  O   UNL     1      14.303  -7.103  31.804  0.00  0.00    +0.000 OA
ATOM     15  C   UNL     1      13.015  -5.128  31.426  0.00  0.00    +0.000 A 
ATOM     16  C   UNL     1      12.848  -3.757  31.599  0.00  0.00    +0.000 A 
ATOM     17  C   UNL     1      13.779  -3.025  32.302  0.00  0.00    +0.000 A 
ATOM     18  C   UNL     1      13.665  -1.664  32.505  0.00  0.00    +0.000 A 
ATOM     19  C   UNL     1      12.426  -0.785  31.942  0.00  0.00    +0.000 C 
ENDROOT
BRANCH  19  20
ATOM     20  C   UNL     1      13.000  -0.654  30.450  0.00  0.00    +0.000 A 
ATOM     21  C   UNL     1      12.300  -1.352  29.495  0.00  0.00    +0.000 A 
ATOM     22  C   UNL     1      12.713  -1.304  28.183  0.00  0.00    +0.000 A 
ATOM     23  C   UNL     1      13.838  -0.545  27.841  0.00  0.00    +0.000 A 
ATOM     24  C   UNL     1      14.494   0.129  28.846  0.00  0.00    +0.000 A 
ATOM     25  C   UNL     1      14.067   0.069  30.153  0.00  0.00    +0.000 A 
BRANCH  23  26
ATOM     26  O   UNL     1      14.268  -0.487  26.511  0.00  0.00    +0.000 OA
BRANCH  26  27
ATOM     27  C   UNL     1      15.547   0.068  26.277  0.00  0.00    +0.000 C 
BRANCH  27  28
ATOM     28  C   UNL     1      16.505  -0.989  25.785  0.00  0.00    +0.000 C 
BRANCH  28  29
ATOM     29  N   UNL     1      17.731  -0.850  26.541  0.00  0.00    +0.000 NA
ATOM     30  C   UNL     1      18.654  -1.902  26.123  0.00  0.00    +0.000 C 
ATOM     31  C   UNL     1      18.803  -1.756  24.608  0.00  0.00    +0.000 C 
ATOM     32  C   UNL     1      19.586  -0.466  24.394  0.00  0.00    +0.000 C 
ATOM     33  C   UNL     1      18.729   0.688  24.899  0.00  0.00    +0.000 C 
ATOM     34  C   UNL     1      18.329   0.463  26.354  0.00  0.00    +0.000 C 
ENDBRANCH  28  29
ENDBRANCH  27  28
ENDBRANCH  26  27
ENDBRANCH  23  26
ENDBRANCH  19  20
TORSDOF 5
ENDMDL
MODEL 7
REMARK VINA RESULT:      -6.2      8.124     10.424
REMARK  Name = 
REMARK  5 active torsions:
REMARK  status: ('A' for Active; 'I' for Inactive)
REMARK    1  A    between atoms: C_19  and  C_20
REMARK    2  A    between atoms: C_23  and  O_24
REMARK    3  A    between atoms: O_24  and  C_25
REMARK    4  A    between atoms: C_25  and  C_26
REMARK    5  A    between atoms: C_26  and  N_27
REMARK                            x       y       z     vdW  Elec       q    Type
REMARK                         _______ _______ _______ _____ _____    ______ ____
ROOT
ATOM      1  O   UNL     1      42.879  -3.237  11.641  0.00  0.00    +0.000 OA
ATOM      2  C   UNL     1      42.044  -2.580  12.573  0.00  0.00    +0.000 A 
ATOM      3  C   UNL     1      42.494  -1.464  13.238  0.00  0.00    +0.000 A 
ATOM      4  C   UNL     1      41.655  -0.813  14.166  0.00  0.00    +0.000 A 
ATOM      5  C   UNL     1      40.404  -1.323  14.375  0.00  0.00    +0.000 A 
ATOM      6  C   UNL     1      39.945  -2.381  13.759  0.00  0.00    +0.000 A 
ATOM      7  C   UNL     1      40.780  -3.044  12.823  0.00  0.00    +0.000 A 
ATOM      8  C   UNL     1      38.612  -2.634  14.210  0.00  0.00    +0.000 A 
ATOM      9  C   UNL     1      37.678  -3.640  13.867  0.00  0.00    +0.000 A 
ATOM     10  C   UNL     1      36.425  -3.683  14.445  0.00  0.00    +0.000 A 
ATOM     11  C   UNL     1      36.066  -2.712  15.391  0.00  0.00    +0.000 A 
ATOM     12  C   UNL     1      34.811  -2.742  15.979  0.00  0.00    +0.000 A 
ATOM     13  C   UNL     1      34.501  -1.766  16.905  0.00  0.00    +0.000 A 
ATOM     14  O   UNL     1      33.232  -1.780  17.514  0.00  0.00    +0.000 OA
ATOM     15  C   UNL     1      35.384  -0.775  17.261  0.00  0.00    +0.000 A 
ATOM     16  C   UNL     1      36.637  -0.768  16.655  0.00  0.00    +0.000 A 
ATOM     17  C   UNL     1      36.968  -1.732  15.729  0.00  0.00    +0.000 A 
ATOM     18  C   UNL     1      38.196  -1.775  15.097  0.00  0.00    +0.000 A 
ATOM     19  C   UNL     1      39.374  -0.699  15.379  0.00  0.00    +0.000 C 
ENDROOT
BRANCH  19  20
ATOM     20  C   UNL     1      38.768   0.441  14.428  0.00  0.00    +0.000 A 
ATOM     21  C   UNL     1      38.016  -0.020  13.375  0.00  0.00    +0.000 A 
ATOM     22  C   UNL     1      37.451   0.880  12.500  0.00  0.00    +0.000 A 
ATOM     23  C   UNL     1      37.651   2.251  12.697  0.00  0.00    +0.000 A 
ATOM     24  C   UNL     1      38.416   2.646  13.771  0.00  0.00    +0.000 A 
ATOM     25  C   UNL     1      38.973   1.731  14.635  0.00  0.00    +0.000 A 
BRANCH  23  26
ATOM     26  O   UNL     1      37.083   3.177  11.816  0.00  0.00    +0.000 OA
BRANCH  26  27
ATOM     27  C   UNL     1      37.595   3.204  10.498  0.00  0.00    +0.000 C 
BRANCH  27  28
ATOM     28  C   UNL     1      36.546   3.684   9.526  0.00  0.00    +0.000 C 
BRANCH  28  29
ATOM     29  N   UNL     1      37.197   4.570   8.585  0.00  0.00    +0.000 NA
ATOM     30  C   UNL     1      37.545   3.802   7.393  0.00  0.00    +0.000 C 
ATOM     31  C   UNL     1      36.241   3.173   6.899  0.00  0.00    +0.000 C 
ATOM     32  C   UNL     1      35.402   4.329   6.368  0.00  0.00    +0.000 C 
ATOM     33  C   UNL     1      35.072   5.243   7.541  0.00  0.00    +0.000 C 
ATOM     34  C   UNL     1      36.348   5.700   8.241  0.00  0.00    +0.000 C 
ENDBRANCH  28  29
ENDBRANCH  27  28
ENDBRANCH  26  27
ENDBRANCH  23  26
ENDBRANCH  19  20
TORSDOF 5
ENDMDL
MODEL 8
REMARK VINA RESULT:      -6.2      7.164      9.448
REMARK  Name = 
REMARK  5 active torsions:
REMARK  status: ('A' for Active; 'I' for Inactive)
REMARK    1  A    between atoms: C_19  and  C_20
REMARK    2  A    between atoms: C_23  and  O_24
REMARK    3  A    between atoms: O_24  and  C_25
REMARK    4  A    between atoms: C_25  and  C_26
REMARK    5  A    between atoms: C_26  and  N_27
REMARK                            x       y       z     vdW  Elec       q    Type
REMARK                         _______ _______ _______ _____ _____    ______ ____
ROOT
ATOM      1  O   UNL     1      42.878  -2.710  11.013  0.00  0.00    +0.000 OA
ATOM      2  C   UNL     1      42.101  -2.128  12.040  0.00  0.00    +0.000 A 
ATOM      3  C   UNL     1      42.594  -1.063  12.759  0.00  0.00    +0.000 A 
ATOM      4  C   UNL     1      41.813  -0.486  13.782  0.00  0.00    +0.000 A 
ATOM      5  C   UNL     1      40.576  -1.012  14.027  0.00  0.00    +0.000 A 
ATOM      6  C   UNL     1      40.079  -2.023  13.363  0.00  0.00    +0.000 A 
ATOM      7  C   UNL     1      40.854  -2.611  12.331  0.00  0.00    +0.000 A 
ATOM      8  C   UNL     1      38.774  -2.311  13.873  0.00  0.00    +0.000 A 
ATOM      9  C   UNL     1      37.819  -3.291  13.513  0.00  0.00    +0.000 A 
ATOM     10  C   UNL     1      36.604  -3.379  14.161  0.00  0.00    +0.000 A 
ATOM     11  C   UNL     1      36.305  -2.483  15.196  0.00  0.00    +0.000 A 
ATOM     12  C   UNL     1      35.087  -2.560  15.855  0.00  0.00    +0.000 A 
ATOM     13  C   UNL     1      34.836  -1.657  16.869  0.00  0.00    +0.000 A 
ATOM     14  O   UNL     1      33.606  -1.718  17.551  0.00  0.00    +0.000 OA
ATOM     15  C   UNL     1      35.741  -0.693  17.244  0.00  0.00    +0.000 A 
ATOM     16  C   UNL     1      36.955  -0.638  16.566  0.00  0.00    +0.000 A 
ATOM     17  C   UNL     1      37.228  -1.529  15.552  0.00  0.00    +0.000 A 
ATOM     18  C   UNL     1      38.415  -1.522  14.846  0.00  0.00    +0.000 A 
ATOM     19  C   UNL     1      39.610  -0.468  15.135  0.00  0.00    +0.000 C 
ENDROOT
BRANCH  19  20
ATOM     20  C   UNL     1      38.951   0.739  14.310  0.00  0.00    +0.000 A 
ATOM     21  C   UNL     1      38.123   0.357  13.283  0.00  0.00    +0.000 A 
ATOM     22  C   UNL     1      37.507   1.319  12.515  0.00  0.00    +0.000 A 
ATOM     23  C   UNL     1      37.734   2.671  12.792  0.00  0.00    +0.000 A 
ATOM     24  C   UNL     1      38.575   2.987  13.835  0.00  0.00    +0.000 A 
ATOM     25  C   UNL     1      39.182   2.011  14.592  0.00  0.00    +0.000 A 
BRANCH  23  26
ATOM     26  O   UNL     1      37.114   3.660  12.020  0.00  0.00    +0.000 OA
BRANCH  26  27
ATOM     27  C   UNL     1      36.780   4.867  12.675  0.00  0.00    +0.000 C 
BRANCH  27  28
ATOM     28  C   UNL     1      35.958   5.754  11.772  0.00  0.00    +0.000 C 
BRANCH  28  29
ATOM     29  N   UNL     1      35.338   6.764  12.602  0.00  0.00    +0.000 NA
ATOM     30  C   UNL     1      36.062   8.019  12.421  0.00  0.00    +0.000 C 
ATOM     31  C   UNL     1      36.039   8.308  10.919  0.00  0.00    +0.000 C 
ATOM     32  C   UNL     1      34.593   8.659  10.590  0.00  0.00    +0.000 C 
ATOM     33  C   UNL     1      33.743   7.422  10.848  0.00  0.00    +0.000 C 
ATOM     34  C   UNL     1      33.930   6.931  12.280  0.00  0.00    +0.000 C 
ENDBRANCH  28  29
ENDBRANCH  27  28
ENDBRANCH  26  27
ENDBRANCH  23  26
ENDBRANCH  19  20
TORSDOF 5
ENDMDL
MODEL 9
REMARK VINA RESULT:      -6.1     27.840     30.869
REMARK  Name = 
REMARK  5 active torsions:
REMARK  status: ('A' for Active; 'I' for Inactive)
REMARK    1  A    between atoms: C_19  and  C_20
REMARK    2  A    between atoms: C_23  and  O_24
REMARK    3  A    between atoms: O_24  and  C_25
REMARK    4  A    between atoms: C_25  and  C_26
REMARK    5  A    between atoms: C_26  and  N_27
REMARK                            x       y       z     vdW  Elec       q    Type
REMARK                         _______ _______ _______ _____ _____    ______ ____
ROOT
ATOM      1  O   UNL     1      13.781  -6.950   6.848  0.00  0.00    +0.000 OA
ATOM      2  C   UNL     1      13.697  -5.719   6.159  0.00  0.00    +0.000 A 
ATOM      3  C   UNL     1      12.493  -5.293   5.648  0.00  0.00    +0.000 A 
ATOM      4  C   UNL     1      12.417  -4.063   4.963  0.00  0.00    +0.000 A 
ATOM      5  C   UNL     1      13.560  -3.325   4.828  0.00  0.00    +0.000 A 
ATOM      6  C   UNL     1      14.720  -3.701   5.301  0.00  0.00    +0.000 A 
ATOM      7  C   UNL     1      14.809  -4.936   5.993  0.00  0.00    +0.000 A 
ATOM      8  C   UNL     1      15.691  -2.700   4.986  0.00  0.00    +0.000 A 
ATOM      9  C   UNL     1      17.076  -2.614   5.263  0.00  0.00    +0.000 A 
ATOM     10  C   UNL     1      17.823  -1.529   4.850  0.00  0.00    +0.000 A 
ATOM     11  C   UNL     1      17.203  -0.491   4.143  0.00  0.00    +0.000 A 
ATOM     12  C   UNL     1      17.941   0.605   3.723  0.00  0.00    +0.000 A 
ATOM     13  C   UNL     1      17.288   1.605   3.028  0.00  0.00    +0.000 A 
ATOM     14  O   UNL     1      18.020   2.726   2.593  0.00  0.00    +0.000 OA
ATOM     15  C   UNL     1      15.945   1.553   2.743  0.00  0.00    +0.000 A 
ATOM     16  C   UNL     1      15.228   0.442   3.176  0.00  0.00    +0.000 A 
ATOM     17  C   UNL     1      15.858  -0.567   3.870  0.00  0.00    +0.000 A 
ATOM     18  C   UNL     1      15.197  -1.692   4.324  0.00  0.00    +0.000 A 
ATOM     19  C   UNL     1      13.615  -1.944   4.088  0.00  0.00    +0.000 C 
ENDROOT
BRANCH  19  20
ATOM     20  C   UNL     1      13.131  -1.004   5.293  0.00  0.00    +0.000 A 
ATOM     21  C   UNL     1      12.126  -0.123   4.975  0.00  0.00    +0.000 A 
ATOM     22  C   UNL     1      11.639   0.728   5.942  0.00  0.00    +0.000 A 
ATOM     23  C   UNL     1      12.176   0.682   7.233  0.00  0.00    +0.000 A 
ATOM     24  C   UNL     1      13.181  -0.223   7.486  0.00  0.00    +0.000 A 
ATOM     25  C   UNL     1      13.655  -1.066   6.506  0.00  0.00    +0.000 A 
BRANCH  23  26
ATOM     26  O   UNL     1      11.691   1.541   8.226  0.00  0.00    +0.000 OA
BRANCH  26  27
ATOM     27  C   UNL     1      10.420   1.241   8.766  0.00  0.00    +0.000 C 
BRANCH  27  28
ATOM     28  C   UNL     1      10.042   2.241   9.831  0.00  0.00    +0.000 C 
BRANCH  28  29
ATOM     29  N   UNL     1       8.903   2.988   9.341  0.00  0.00    +0.000 NA
ATOM     30  C   UNL     1       7.862   2.965  10.364  0.00  0.00    +0.000 C 
ATOM     31  C   UNL     1       8.506   3.520  11.636  0.00  0.00    +0.000 C 
ATOM     32  C   UNL     1       8.734   5.003  11.368  0.00  0.00    +0.000 C 
ATOM     33  C   UNL     1       9.745   5.121  10.235  0.00  0.00    +0.000 C 
ATOM     34  C   UNL     1       9.265   4.356   9.005  0.00  0.00    +0.000 C 
ENDBRANCH  28  29
ENDBRANCH  27  28
ENDBRANCH  26  27
ENDBRANCH  23  26
ENDBRANCH  19  20
TORSDOF 5
ENDMDL
MODEL 10
REMARK VINA RESULT:      -6.1      2.928      6.136
REMARK  Name = 
REMARK  5 active torsions:
REMARK  status: ('A' for Active; 'I' for Inactive)
REMARK    1  A    between atoms: C_19  and  C_20
REMARK    2  A    between atoms: C_23  and  O_24
REMARK    3  A    between atoms: O_24  and  C_25
REMARK    4  A    between atoms: C_25  and  C_26
REMARK    5  A    between atoms: C_26  and  N_27
REMARK                            x       y       z     vdW  Elec       q    Type
REMARK                         _______ _______ _______ _____ _____    ______ ____
ROOT
ATOM      1  O   UNL     1      41.991  13.065  17.115  0.00  0.00    +0.000 OA
ATOM      2  C   UNL     1      41.943  11.932  17.960  0.00  0.00    +0.000 A 
ATOM      3  C   UNL     1      40.818  11.678  18.711  0.00  0.00    +0.000 A 
ATOM      4  C   UNL     1      40.776  10.546  19.551  0.00  0.00    +0.000 A 
ATOM      5  C   UNL     1      41.871   9.729  19.591  0.00  0.00    +0.000 A 
ATOM      6  C   UNL     1      42.954   9.942  18.891  0.00  0.00    +0.000 A 
ATOM      7  C   UNL     1      43.008  11.077  18.042  0.00  0.00    +0.000 A 
ATOM      8  C   UNL     1      43.894   8.900  19.169  0.00  0.00    +0.000 A 
ATOM      9  C   UNL     1      45.201   8.658  18.684  0.00  0.00    +0.000 A 
ATOM     10  C   UNL     1      45.931   7.565  19.105  0.00  0.00    +0.000 A 
ATOM     11  C   UNL     1      45.371   6.674  20.031  0.00  0.00    +0.000 A 
ATOM     12  C   UNL     1      46.092   5.572  20.462  0.00  0.00    +0.000 A 
ATOM     13  C   UNL     1      45.501   4.721  21.375  0.00  0.00    +0.000 A 
ATOM     14  O   UNL     1      46.217   3.596  21.826  0.00  0.00    +0.000 OA
ATOM     15  C   UNL     1      44.234   4.926  21.866  0.00  0.00    +0.000 A 
ATOM     16  C   UNL     1      43.532   6.041  21.417  0.00  0.00    +0.000 A 
ATOM     17  C   UNL     1      44.102   6.903  20.507  0.00  0.00    +0.000 A 
ATOM     18  C   UNL     1      43.453   8.023  20.027  0.00  0.00    +0.000 A 
ATOM     19  C   UNL     1      41.956   8.443  20.483  0.00  0.00    +0.000 C 
ENDROOT
BRANCH  19  20
ATOM     20  C   UNL     1      41.207   7.418  19.502  0.00  0.00    +0.000 A 
ATOM     21  C   UNL     1      40.035   6.896  19.993  0.00  0.00    +0.000 A 
ATOM     22  C   UNL     1      39.316   6.007  19.227  0.00  0.00    +0.000 A 
ATOM     23  C   UNL     1      39.789   5.648  17.960  0.00  0.00    +0.000 A 
ATOM     24  C   UNL     1      40.970   6.207  17.528  0.00  0.00    +0.000 A 
ATOM     25  C   UNL     1      41.676   7.095  18.309  0.00  0.00    +0.000 A 
BRANCH  23  26
ATOM     26  O   UNL     1      39.068   4.746  17.171  0.00  0.00    +0.000 OA
BRANCH  26  27
ATOM     27  C   UNL     1      38.454   5.263  16.007  0.00  0.00    +0.000 C 
BRANCH  27  28
ATOM     28  C   UNL     1      37.342   4.356  15.542  0.00  0.00    +0.000 C 
BRANCH  28  29
ATOM     29  N   UNL     1      37.617   3.031  16.057  0.00  0.00    +0.000 NA
ATOM     30  C   UNL     1      36.485   2.609  16.876  0.00  0.00    +0.000 C 
ATOM     31  C   UNL     1      35.250   2.715  15.978  0.00  0.00    +0.000 C 
ATOM     32  C   UNL     1      35.398   1.606  14.944  0.00  0.00    +0.000 C 
ATOM     33  C   UNL     1      36.626   1.917  14.099  0.00  0.00    +0.000 C 
ATOM     34  C   UNL     1      37.859   2.080  14.983  0.00  0.00    +0.000 C 
ENDBRANCH  28  29
ENDBRANCH  27  28
ENDBRANCH  26  27
ENDBRANCH  23  26
ENDBRANCH  19  20
TORSDOF 5
ENDMDL
