MODEL 1
REMARK VINA RESULT:      -6.6      0.000      0.000
REMARK  Name = 
REMARK  2 active torsions:
REMARK  status: ('A' for Active; 'I' for Inactive)
REMARK    1  A    between atoms: C_2  and  C_4
REMARK    2  A    between atoms: C_7  and  C_8
REMARK                            x       y       z     vdW  Elec       q    Type
REMARK                         _______ _______ _______ _____ _____    ______ ____
ROOT
ATOM      1  C   UNL     1      31.703  21.457   9.377  0.00  0.00    +0.000 A 
ATOM      2  C   UNL     1      31.508  21.629   8.033  0.00  0.00    +0.000 A 
ATOM      3  S   UNL     1      32.920  20.994   7.338  0.00  0.00    +0.000 S 
ATOM      4  C   UNL     1      33.732  20.521   8.756  0.00  0.00    +0.000 A 
ATOM      5  N   UNL     1      34.940  19.925   8.995  0.00  0.00    +0.000 NA
ATOM      6  C   UNL     1      35.340  19.654  10.257  0.00  0.00    +0.000 A 
ATOM      7  N   UNL     1      34.521  19.985  11.269  0.00  0.00    +0.000 N 
ATOM      8  N   UNL     1      34.937  19.702  12.597  0.00  0.00    +0.000 NA
ATOM      9  C   UNL     1      33.338  20.568  11.050  0.00  0.00    +0.000 A 
ATOM     10  O   UNL     1      32.659  20.830  12.081  0.00  0.00    +0.000 OA
ATOM     11  C   UNL     1      32.876  20.873   9.752  0.00  0.00    +0.000 A 
ENDROOT
BRANCH   1  15
ATOM     12  C   UNL     1      28.589  22.773  12.016  0.00  0.00    +0.000 A 
ATOM     13  C   UNL     1      29.757  23.483  11.920  0.00  0.00    +0.000 A 
ATOM     14  C   UNL     1      30.768  23.062  11.069  0.00  0.00    +0.000 A 
ATOM     15  C   UNL     1      30.630  21.934  10.304  0.00  0.00    +0.000 A 
ATOM     16  C   UNL     1      29.452  21.232  10.409  0.00  0.00    +0.000 A 
ATOM     17  C   UNL     1      28.425  21.640  11.260  0.00  0.00    +0.000 A 
BRANCH  12  19
ATOM     18  C   UNL     1      27.931  24.267  13.867  0.00  0.00    +0.000 C 
ATOM     19  C   UNL     1      27.499  23.198  12.911  0.00  0.00    +0.000 C 
ATOM     20  C   UNL     1      26.361  23.747  12.071  0.00  0.00    +0.000 C 
ENDBRANCH  12  19
ENDBRANCH   1  15
TORSDOF 2
ENDMDL
MODEL 2
REMARK VINA RESULT:      -6.6     13.227     15.876
REMARK  Name = 
REMARK  2 active torsions:
REMARK  status: ('A' for Active; 'I' for Inactive)
REMARK    1  A    between atoms: C_2  and  C_4
REMARK    2  A    between atoms: C_7  and  C_8
REMARK                            x       y       z     vdW  Elec       q    Type
REMARK                         _______ _______ _______ _____ _____    ______ ____
ROOT
ATOM      1  C   UNL     1      28.023  23.205  25.536  0.00  0.00    +0.000 A 
ATOM      2  C   UNL     1      26.863  22.919  26.204  0.00  0.00    +0.000 A 
ATOM      3  S   UNL     1      25.673  23.004  24.998  0.00  0.00    +0.000 S 
ATOM      4  C   UNL     1      26.661  23.398  23.669  0.00  0.00    +0.000 A 
ATOM      5  N   UNL     1      26.409  23.627  22.344  0.00  0.00    +0.000 NA
ATOM      6  C   UNL     1      27.414  23.924  21.491  0.00  0.00    +0.000 A 
ATOM      7  N   UNL     1      28.664  23.990  21.978  0.00  0.00    +0.000 N 
ATOM      8  N   UNL     1      29.723  24.301  21.084  0.00  0.00    +0.000 NA
ATOM      9  C   UNL     1      28.924  23.769  23.271  0.00  0.00    +0.000 A 
ATOM     10  O   UNL     1      30.137  23.858  23.606  0.00  0.00    +0.000 OA
ATOM     11  C   UNL     1      27.911  23.456  24.201  0.00  0.00    +0.000 A 
ENDROOT
BRANCH   1  15
ATOM     12  C   UNL     1      31.670  23.212  27.794  0.00  0.00    +0.000 A 
ATOM     13  C   UNL     1      31.036  24.391  27.504  0.00  0.00    +0.000 A 
ATOM     14  C   UNL     1      29.858  24.396  26.774  0.00  0.00    +0.000 A 
ATOM     15  C   UNL     1      29.294  23.231  26.325  0.00  0.00    +0.000 A 
ATOM     16  C   UNL     1      29.940  22.053  26.623  0.00  0.00    +0.000 A 
ATOM     17  C   UNL     1      31.127  22.030  27.356  0.00  0.00    +0.000 A 
BRANCH  12  19
ATOM     18  C   UNL     1      33.013  24.301  29.554  0.00  0.00    +0.000 C 
ATOM     19  C   UNL     1      32.923  23.179  28.567  0.00  0.00    +0.000 C 
ATOM     20  C   UNL     1      32.992  21.870  29.332  0.00  0.00    +0.000 C 
ENDBRANCH  12  19
ENDBRANCH   1  15
TORSDOF 2
ENDMDL
MODEL 3
REMARK VINA RESULT:      -6.4     30.454     32.553
REMARK  Name = 
REMARK  2 active torsions:
REMARK  status: ('A' for Active; 'I' for Inactive)
REMARK    1  A    between atoms: C_2  and  C_4
REMARK    2  A    between atoms: C_7  and  C_8
REMARK                            x       y       z     vdW  Elec       q    Type
REMARK                         _______ _______ _______ _____ _____    ______ ____
ROOT
ATOM      1  C   UNL     1      17.281  10.315  38.717  0.00  0.00    +0.000 A 
ATOM      2  C   UNL     1      17.071   9.604  39.868  0.00  0.00    +0.000 A 
ATOM      3  S   UNL     1      15.398   9.727  40.118  0.00  0.00    +0.000 S 
ATOM      4  C   UNL     1      14.990  10.674  38.764  0.00  0.00    +0.000 A 
ATOM      5  N   UNL     1      13.810  11.179  38.290  0.00  0.00    +0.000 NA
ATOM      6  C   UNL     1      13.779  11.914  37.156  0.00  0.00    +0.000 A 
ATOM      7  N   UNL     1      14.935  12.135  36.509  0.00  0.00    +0.000 N 
ATOM      8  N   UNL     1      14.907  12.906  35.316  0.00  0.00    +0.000 NA
ATOM      9  C   UNL     1      16.095  11.647  36.962  0.00  0.00    +0.000 A 
ATOM     10  O   UNL     1      17.111  11.922  36.266  0.00  0.00    +0.000 OA
ATOM     11  C   UNL     1      16.181  10.876  38.140  0.00  0.00    +0.000 A 
ENDROOT
BRANCH   1  15
ATOM     12  C   UNL     1      21.291  10.576  37.221  0.00  0.00    +0.000 A 
ATOM     13  C   UNL     1      20.858  11.444  38.189  0.00  0.00    +0.000 A 
ATOM     14  C   UNL     1      19.563  11.365  38.676  0.00  0.00    +0.000 A 
ATOM     15  C   UNL     1      18.684  10.424  38.209  0.00  0.00    +0.000 A 
ATOM     16  C   UNL     1      19.130   9.559  37.238  0.00  0.00    +0.000 A 
ATOM     17  C   UNL     1      20.431   9.624  36.736  0.00  0.00    +0.000 A 
BRANCH  12  19
ATOM     18  C   UNL     1      23.604  11.342  37.613  0.00  0.00    +0.000 C 
ATOM     19  C   UNL     1      22.663  10.638  36.686  0.00  0.00    +0.000 C 
ATOM     20  C   UNL     1      23.172   9.223  36.480  0.00  0.00    +0.000 C 
ENDBRANCH  12  19
ENDBRANCH   1  15
TORSDOF 2
ENDMDL
MODEL 4
REMARK VINA RESULT:      -6.4     29.840     31.000
REMARK  Name = 
REMARK  2 active torsions:
REMARK  status: ('A' for Active; 'I' for Inactive)
REMARK    1  A    between atoms: C_2  and  C_4
REMARK    2  A    between atoms: C_7  and  C_8
REMARK                            x       y       z     vdW  Elec       q    Type
REMARK                         _______ _______ _______ _____ _____    ______ ____
ROOT
ATOM      1  C   UNL     1      34.056   3.340  34.709  0.00  0.00    +0.000 A 
ATOM      2  C   UNL     1      33.808   3.017  33.402  0.00  0.00    +0.000 A 
ATOM      3  S   UNL     1      33.405   1.370  33.465  0.00  0.00    +0.000 S 
ATOM      4  C   UNL     1      33.555   1.117  35.141  0.00  0.00    +0.000 A 
ATOM      5  N   UNL     1      33.381   0.026  35.948  0.00  0.00    +0.000 NA
ATOM      6  C   UNL     1      33.569   0.117  37.282  0.00  0.00    +0.000 A 
ATOM      7  N   UNL     1      33.930   1.305  37.796  0.00  0.00    +0.000 N 
ATOM      8  N   UNL     1      34.128   1.405  39.199  0.00  0.00    +0.000 NA
ATOM      9  C   UNL     1      34.103   2.379  37.019  0.00  0.00    +0.000 A 
ATOM     10  O   UNL     1      34.441   3.437  37.618  0.00  0.00    +0.000 OA
ATOM     11  C   UNL     1      33.921   2.336  35.621  0.00  0.00    +0.000 A 
ENDROOT
BRANCH   1  15
ATOM     12  C   UNL     1      35.288   7.356  35.576  0.00  0.00    +0.000 A 
ATOM     13  C   UNL     1      33.959   7.022  35.599  0.00  0.00    +0.000 A 
ATOM     14  C   UNL     1      33.555   5.726  35.319  0.00  0.00    +0.000 A 
ATOM     15  C   UNL     1      34.464   4.747  35.014  0.00  0.00    +0.000 A 
ATOM     16  C   UNL     1      35.794   5.095  34.995  0.00  0.00    +0.000 A 
ATOM     17  C   UNL     1      36.219   6.395  35.273  0.00  0.00    +0.000 A 
BRANCH  12  19
ATOM     18  C   UNL     1      34.606   9.666  36.109  0.00  0.00    +0.000 C 
ATOM     19  C   UNL     1      35.745   8.725  35.869  0.00  0.00    +0.000 C 
ATOM     20  C   UNL     1      36.606   8.697  37.119  0.00  0.00    +0.000 C 
ENDBRANCH  12  19
ENDBRANCH   1  15
TORSDOF 2
ENDMDL
MODEL 5
REMARK VINA RESULT:      -6.3     18.639     19.554
REMARK  Name = 
REMARK  2 active torsions:
REMARK  status: ('A' for Active; 'I' for Inactive)
REMARK    1  A    between atoms: C_2  and  C_4
REMARK    2  A    between atoms: C_7  and  C_8
REMARK                            x       y       z     vdW  Elec       q    Type
REMARK                         _______ _______ _______ _____ _____    ______ ____
ROOT
ATOM      1  C   UNL     1      26.405   5.294  17.948  0.00  0.00    +0.000 A 
ATOM      2  C   UNL     1      27.011   5.631  19.128  0.00  0.00    +0.000 A 
ATOM      3  S   UNL     1      28.094   6.861  18.688  0.00  0.00    +0.000 S 
ATOM      4  C   UNL     1      27.762   6.931  17.021  0.00  0.00    +0.000 A 
ATOM      5  N   UNL     1      28.249   7.695  15.996  0.00  0.00    +0.000 NA
ATOM      6  C   UNL     1      27.788   7.536  14.736  0.00  0.00    +0.000 A 
ATOM      7  N   UNL     1      26.840   6.609  14.517  0.00  0.00    +0.000 N 
ATOM      8  N   UNL     1      26.352   6.439  13.194  0.00  0.00    +0.000 NA
ATOM      9  C   UNL     1      26.355   5.857  15.510  0.00  0.00    +0.000 A 
ATOM     10  O   UNL     1      25.468   5.023  15.179  0.00  0.00    +0.000 OA
ATOM     11  C   UNL     1      26.804   5.983  16.841  0.00  0.00    +0.000 A 
ENDROOT
BRANCH   1  15
ATOM     12  C   UNL     1      23.424   2.213  18.040  0.00  0.00    +0.000 A 
ATOM     13  C   UNL     1      24.729   1.902  17.759  0.00  0.00    +0.000 A 
ATOM     14  C   UNL     1      25.696   2.894  17.727  0.00  0.00    +0.000 A 
ATOM     15  C   UNL     1      25.382   4.204  17.975  0.00  0.00    +0.000 A 
ATOM     16  C   UNL     1      24.069   4.502  18.256  0.00  0.00    +0.000 A 
ATOM     17  C   UNL     1      23.081   3.517  18.291  0.00  0.00    +0.000 A 
BRANCH  12  19
ATOM     18  C   UNL     1      21.042   1.703  17.647  0.00  0.00    +0.000 C 
ATOM     19  C   UNL     1      22.375   1.179  18.081  0.00  0.00    +0.000 C 
ATOM     20  C   UNL     1      22.766   0.048  17.146  0.00  0.00    +0.000 C 
ENDBRANCH  12  19
ENDBRANCH   1  15
TORSDOF 2
ENDMDL
MODEL 6
REMARK VINA RESULT:      -6.3     31.027     32.643
REMARK  Name = 
REMARK  2 active torsions:
REMARK  status: ('A' for Active; 'I' for Inactive)
REMARK    1  A    between atoms: C_2  and  C_4
REMARK    2  A    between atoms: C_7  and  C_8
REMARK                            x       y       z     vdW  Elec       q    Type
REMARK                         _______ _______ _______ _____ _____    ______ ____
ROOT
ATOM      1  C   UNL     1      16.153  11.910  36.274  0.00  0.00    +0.000 A 
ATOM      2  C   UNL     1      16.118  12.622  35.105  0.00  0.00    +0.000 A 
ATOM      3  S   UNL     1      14.470  12.963  34.891  0.00  0.00    +0.000 S 
ATOM      4  C   UNL     1      13.852  12.203  36.282  0.00  0.00    +0.000 A 
ATOM      5  N   UNL     1      12.592  12.059  36.794  0.00  0.00    +0.000 NA
ATOM      6  C   UNL     1      12.388  11.391  37.951  0.00  0.00    +0.000 A 
ATOM      7  N   UNL     1      13.454  10.874  38.584  0.00  0.00    +0.000 N 
ATOM      8  N   UNL     1      13.245  10.172  39.801  0.00  0.00    +0.000 NA
ATOM      9  C   UNL     1      14.691  11.007  38.093  0.00  0.00    +0.000 A 
ATOM     10  O   UNL     1      15.609  10.478  38.778  0.00  0.00    +0.000 OA
ATOM     11  C   UNL     1      14.956  11.693  36.890  0.00  0.00    +0.000 A 
ENDROOT
BRANCH   1  15
ATOM     12  C   UNL     1      19.976  10.585  37.694  0.00  0.00    +0.000 A 
ATOM     13  C   UNL     1      19.221   9.774  36.888  0.00  0.00    +0.000 A 
ATOM     14  C   UNL     1      17.984  10.197  36.426  0.00  0.00    +0.000 A 
ATOM     15  C   UNL     1      17.483  11.428  36.758  0.00  0.00    +0.000 A 
ATOM     16  C   UNL     1      18.251  12.232  37.568  0.00  0.00    +0.000 A 
ATOM     17  C   UNL     1      19.497  11.822  38.043  0.00  0.00    +0.000 A 
BRANCH  12  19
ATOM     18  C   UNL     1      22.228   9.772  37.095  0.00  0.00    +0.000 C 
ATOM     19  C   UNL     1      21.293  10.160  38.199  0.00  0.00    +0.000 C 
ATOM     20  C   UNL     1      21.918  11.312  38.965  0.00  0.00    +0.000 C 
ENDBRANCH  12  19
ENDBRANCH   1  15
TORSDOF 2
ENDMDL
MODEL 7
REMARK VINA RESULT:      -6.2     30.296     32.400
REMARK  Name = 
REMARK  2 active torsions:
REMARK  status: ('A' for Active; 'I' for Inactive)
REMARK    1  A    between atoms: C_2  and  C_4
REMARK    2  A    between atoms: C_7  and  C_8
REMARK                            x       y       z     vdW  Elec       q    Type
REMARK                         _______ _______ _______ _____ _____    ______ ____
ROOT
ATOM      1  C   UNL     1      19.146  10.184  37.810  0.00  0.00    +0.000 A 
ATOM      2  C   UNL     1      20.491  10.247  37.561  0.00  0.00    +0.000 A 
ATOM      3  S   UNL     1      21.194   9.968  39.080  0.00  0.00    +0.000 S 
ATOM      4  C   UNL     1      19.778   9.774  40.004  0.00  0.00    +0.000 A 
ATOM      5  N   UNL     1      19.546   9.517  41.327  0.00  0.00    +0.000 NA
ATOM      6  C   UNL     1      18.285   9.408  41.799  0.00  0.00    +0.000 A 
ATOM      7  N   UNL     1      17.267   9.557  40.935  0.00  0.00    +0.000 N 
ATOM      8  N   UNL     1      15.939   9.442  41.427  0.00  0.00    +0.000 NA
ATOM      9  C   UNL     1      17.480   9.809  39.640  0.00  0.00    +0.000 A 
ATOM     10  O   UNL     1      16.444   9.928  38.930  0.00  0.00    +0.000 OA
ATOM     11  C   UNL     1      18.776   9.934  39.098  0.00  0.00    +0.000 A 
ENDROOT
BRANCH   1  15
ATOM     12  C   UNL     1      16.481  10.758  34.499  0.00  0.00    +0.000 A 
ATOM     13  C   UNL     1      16.704  11.775  35.390  0.00  0.00    +0.000 A 
ATOM     14  C   UNL     1      17.564  11.595  36.463  0.00  0.00    +0.000 A 
ATOM     15  C   UNL     1      18.212  10.406  36.663  0.00  0.00    +0.000 A 
ATOM     16  C   UNL     1      17.981   9.393  35.761  0.00  0.00    +0.000 A 
ATOM     17  C   UNL     1      17.118   9.556  34.677  0.00  0.00    +0.000 A 
BRANCH  12  19
ATOM     18  C   UNL     1      15.001  12.304  33.271  0.00  0.00    +0.000 C 
ATOM     19  C   UNL     1      15.573  10.923  33.351  0.00  0.00    +0.000 C 
ATOM     20  C   UNL     1      16.347  10.657  32.073  0.00  0.00    +0.000 C 
ENDBRANCH  12  19
ENDBRANCH   1  15
TORSDOF 2
ENDMDL
MODEL 8
REMARK VINA RESULT:      -6.1     14.055     15.784
REMARK  Name = 
REMARK  2 active torsions:
REMARK  status: ('A' for Active; 'I' for Inactive)
REMARK    1  A    between atoms: C_2  and  C_4
REMARK    2  A    between atoms: C_7  and  C_8
REMARK                            x       y       z     vdW  Elec       q    Type
REMARK                         _______ _______ _______ _____ _____    ______ ____
ROOT
ATOM      1  C   UNL     1      29.133  23.633  26.050  0.00  0.00    +0.000 A 
ATOM      2  C   UNL     1      28.934  23.394  27.383  0.00  0.00    +0.000 A 
ATOM      3  S   UNL     1      27.289  22.989  27.477  0.00  0.00    +0.000 S 
ATOM      4  C   UNL     1      26.881  23.126  25.831  0.00  0.00    +0.000 A 
ATOM      5  N   UNL     1      25.719  22.945  25.131  0.00  0.00    +0.000 NA
ATOM      6  C   UNL     1      25.684  23.123  23.793  0.00  0.00    +0.000 A 
ATOM      7  N   UNL     1      26.818  23.482  23.168  0.00  0.00    +0.000 N 
ATOM      8  N   UNL     1      26.786  23.669  21.760  0.00  0.00    +0.000 NA
ATOM      9  C   UNL     1      27.960  23.661  23.840  0.00  0.00    +0.000 A 
ATOM     10  O   UNL     1      28.957  23.996  23.142  0.00  0.00    +0.000 OA
ATOM     11  C   UNL     1      28.049  23.489  25.237  0.00  0.00    +0.000 A 
ENDROOT
BRANCH   1  15
ATOM     12  C   UNL     1      33.052  24.861  24.812  0.00  0.00    +0.000 A 
ATOM     13  C   UNL     1      32.656  23.558  24.656  0.00  0.00    +0.000 A 
ATOM     14  C   UNL     1      31.391  23.155  25.055  0.00  0.00    +0.000 A 
ATOM     15  C   UNL     1      30.505  24.039  25.611  0.00  0.00    +0.000 A 
ATOM     16  C   UNL     1      30.914  25.344  25.762  0.00  0.00    +0.000 A 
ATOM     17  C   UNL     1      32.184  25.767  25.367  0.00  0.00    +0.000 A 
BRANCH  12  19
ATOM     18  C   UNL     1      34.833  26.536  25.142  0.00  0.00    +0.000 C 
ATOM     19  C   UNL     1      34.390  25.316  24.397  0.00  0.00    +0.000 C 
ATOM     20  C   UNL     1      35.390  24.207  24.668  0.00  0.00    +0.000 C 
ENDBRANCH  12  19
ENDBRANCH   1  15
TORSDOF 2
ENDMDL
MODEL 9
REMARK VINA RESULT:      -6.0     34.676     35.780
REMARK  Name = 
REMARK  2 active torsions:
REMARK  status: ('A' for Active; 'I' for Inactive)
REMARK    1  A    between atoms: C_2  and  C_4
REMARK    2  A    between atoms: C_7  and  C_8
REMARK                            x       y       z     vdW  Elec       q    Type
REMARK                         _______ _______ _______ _____ _____    ______ ____
ROOT
ATOM      1  C   UNL     1      19.524  -7.708  26.215  0.00  0.00    +0.000 A 
ATOM      2  C   UNL     1      18.522  -6.804  25.984  0.00  0.00    +0.000 A 
ATOM      3  S   UNL     1      17.394  -7.134  27.207  0.00  0.00    +0.000 S 
ATOM      4  C   UNL     1      18.207  -8.406  27.991  0.00  0.00    +0.000 A 
ATOM      5  N   UNL     1      17.913  -9.183  29.078  0.00  0.00    +0.000 NA
ATOM      6  C   UNL     1      18.768 -10.143  29.493  0.00  0.00    +0.000 A 
ATOM      7  N   UNL     1      19.913 -10.315  28.811  0.00  0.00    +0.000 N 
ATOM      8  N   UNL     1      20.815 -11.323  29.244  0.00  0.00    +0.000 NA
ATOM      9  C   UNL     1      20.212  -9.562  27.747  0.00  0.00    +0.000 A 
ATOM     10  O   UNL     1      21.316  -9.819  27.192  0.00  0.00    +0.000 OA
ATOM     11  C   UNL     1      19.354  -8.549  27.274  0.00  0.00    +0.000 A 
ENDROOT
BRANCH   1  15
ATOM     12  C   UNL     1      22.910  -7.634  23.583  0.00  0.00    +0.000 A 
ATOM     13  C   UNL     1      21.964  -8.619  23.463  0.00  0.00    +0.000 A 
ATOM     14  C   UNL     1      20.868  -8.648  24.311  0.00  0.00    +0.000 A 
ATOM     15  C   UNL     1      20.697  -7.701  25.286  0.00  0.00    +0.000 A 
ATOM     16  C   UNL     1      21.653  -6.719  25.396  0.00  0.00    +0.000 A 
ATOM     17  C   UNL     1      22.764  -6.674  24.552  0.00  0.00    +0.000 A 
BRANCH  12  19
ATOM     18  C   UNL     1      25.314  -7.104  23.406  0.00  0.00    +0.000 C 
ATOM     19  C   UNL     1      24.085  -7.580  22.695  0.00  0.00    +0.000 C 
ATOM     20  C   UNL     1      24.358  -8.973  22.158  0.00  0.00    +0.000 C 
ENDBRANCH  12  19
ENDBRANCH   1  15
TORSDOF 2
ENDMDL
MODEL 10
REMARK VINA RESULT:      -6.0     33.244     35.360
REMARK  Name = 
REMARK  2 active torsions:
REMARK  status: ('A' for Active; 'I' for Inactive)
REMARK    1  A    between atoms: C_2  and  C_4
REMARK    2  A    between atoms: C_7  and  C_8
REMARK                            x       y       z     vdW  Elec       q    Type
REMARK                         _______ _______ _______ _____ _____    ______ ____
ROOT
ATOM      1  C   UNL     1      17.798   9.606  39.445  0.00  0.00    +0.000 A 
ATOM      2  C   UNL     1      19.133   9.404  39.221  0.00  0.00    +0.000 A 
ATOM      3  S   UNL     1      19.407  10.150  37.722  0.00  0.00    +0.000 S 
ATOM      4  C   UNL     1      17.831  10.706  37.403  0.00  0.00    +0.000 A 
ATOM      5  N   UNL     1      17.271  11.407  36.370  0.00  0.00    +0.000 NA
ATOM      6  C   UNL     1      15.958  11.724  36.382  0.00  0.00    +0.000 A 
ATOM      7  N   UNL     1      15.218  11.335  37.434  0.00  0.00    +0.000 N 
ATOM      8  N   UNL     1      13.837  11.668  37.451  0.00  0.00    +0.000 NA
ATOM      9  C   UNL     1      15.753  10.650  38.450  0.00  0.00    +0.000 A 
ATOM     10  O   UNL     1      14.957  10.343  39.379  0.00  0.00    +0.000 OA
ATOM     11  C   UNL     1      17.117  10.293  38.484  0.00  0.00    +0.000 A 
ENDROOT
BRANCH   1  15
ATOM     12  C   UNL     1      16.104   7.949  43.019  0.00  0.00    +0.000 A 
ATOM     13  C   UNL     1      16.456   9.272  42.972  0.00  0.00    +0.000 A 
ATOM     14  C   UNL     1      17.005   9.813  41.820  0.00  0.00    +0.000 A 
ATOM     15  C   UNL     1      17.209   9.049  40.702  0.00  0.00    +0.000 A 
ATOM     16  C   UNL     1      16.852   7.722  40.762  0.00  0.00    +0.000 A 
ATOM     17  C   UNL     1      16.299   7.160  41.913  0.00  0.00    +0.000 A 
BRANCH  12  19
ATOM     18  C   UNL     1      16.112   6.009  44.544  0.00  0.00    +0.000 C 
ATOM     19  C   UNL     1      15.520   7.348  44.231  0.00  0.00    +0.000 C 
ATOM     20  C   UNL     1      15.781   8.268  45.409  0.00  0.00    +0.000 C 
ENDBRANCH  12  19
ENDBRANCH   1  15
TORSDOF 2
ENDMDL
