MODEL 1
REMARK VINA RESULT:      -6.6      0.000      0.000
REMARK  Name = 
REMARK  5 active torsions:
REMARK  status: ('A' for Active; 'I' for Inactive)
REMARK    1  A    between atoms: C_2  and  N_3
REMARK    2  A    between atoms: C_2  and  C_10
REMARK    3  A    between atoms: N_3  and  N_4
REMARK    4  A    between atoms: C_5  and  O_7
REMARK    5  A    between atoms: O_7  and  C_8
REMARK                            x       y       z     vdW  Elec       q    Type
REMARK                         _______ _______ _______ _____ _____    ______ ____
ROOT
ATOM      1  C   UNL     1      14.667  11.902  37.448  0.00  0.00    +0.000 C 
ATOM      2  C   UNL     1      15.461  11.414  36.535  0.00  0.00    +0.000 C 
ENDROOT
BRANCH   2   3
ATOM      3  C   UNL     1      15.279  11.762  35.122  0.00  0.00    +0.000 A 
ATOM      4  C   UNL     1      14.554  12.772  34.581  0.00  0.00    +0.000 A 
ATOM      5  C   UNL     1      14.525  12.916  33.252  0.00  0.00    +0.000 A 
ATOM      6  C   UNL     1      13.820  13.908  32.553  0.00  0.00    +0.000 A 
ATOM      7  C   UNL     1      13.868  13.948  31.189  0.00  0.00    +0.000 A 
ATOM      8  C   UNL     1      14.578  13.064  30.418  0.00  0.00    +0.000 A 
ATOM      9  C   UNL     1      15.275  12.084  31.111  0.00  0.00    +0.000 A 
ATOM     10  C   UNL     1      15.242  12.019  32.512  0.00  0.00    +0.000 A 
ATOM     11  S   UNL     1      15.925  11.013  33.714  0.00  0.00    +0.000 S 
ENDBRANCH   2   3
BRANCH   2  12
ATOM     12  N   UNL     1      16.510  10.530  36.864  0.00  0.00    +0.000 NA
BRANCH  12  13
ATOM     13  N   UNL     1      17.806  11.083  36.914  0.00  0.00    +0.000 NA
ATOM     14  C   UNL     1      18.870  10.284  37.400  0.00  0.00    +0.000 C 
ATOM     15  O   UNL     1      18.623   9.125  37.758  0.00  0.00    +0.000 OA
BRANCH  14  16
ATOM     16  O   UNL     1      20.181  10.759  37.487  0.00  0.00    +0.000 OA
BRANCH  16  17
ATOM     17  C   UNL     1      21.245   9.833  37.664  0.00  0.00    +0.000 C 
ATOM     18  C   UNL     1      22.184  10.002  36.507  0.00  0.00    +0.000 C 
ENDBRANCH  16  17
ENDBRANCH  14  16
ENDBRANCH  12  13
ENDBRANCH   2  12
TORSDOF 5
ENDMDL
MODEL 2
REMARK VINA RESULT:      -5.7     19.405     20.959
REMARK  Name = 
REMARK  5 active torsions:
REMARK  status: ('A' for Active; 'I' for Inactive)
REMARK    1  A    between atoms: C_2  and  N_3
REMARK    2  A    between atoms: C_2  and  C_10
REMARK    3  A    between atoms: N_3  and  N_4
REMARK    4  A    between atoms: C_5  and  O_7
REMARK    5  A    between atoms: O_7  and  C_8
REMARK                            x       y       z     vdW  Elec       q    Type
REMARK                         _______ _______ _______ _____ _____    ______ ____
ROOT
ATOM      1  C   UNL     1      30.998  22.646  24.599  0.00  0.00    +0.000 C 
ATOM      2  C   UNL     1      29.728  22.942  24.639  0.00  0.00    +0.000 C 
ENDROOT
BRANCH   2   3
ATOM      3  C   UNL     1      29.003  22.955  25.914  0.00  0.00    +0.000 A 
ATOM      4  C   UNL     1      29.489  22.816  27.171  0.00  0.00    +0.000 A 
ATOM      5  C   UNL     1      28.646  22.863  28.207  0.00  0.00    +0.000 A 
ATOM      6  C   UNL     1      29.003  22.733  29.558  0.00  0.00    +0.000 A 
ATOM      7  C   UNL     1      28.043  22.797  30.528  0.00  0.00    +0.000 A 
ATOM      8  C   UNL     1      26.708  22.986  30.278  0.00  0.00    +0.000 A 
ATOM      9  C   UNL     1      26.357  23.115  28.941  0.00  0.00    +0.000 A 
ATOM     10  C   UNL     1      27.322  23.052  27.925  0.00  0.00    +0.000 A 
ATOM     11  S   UNL     1      27.321  23.156  26.219  0.00  0.00    +0.000 S 
ENDBRANCH   2   3
BRANCH   2  12
ATOM     12  N   UNL     1      29.003  23.248  23.468  0.00  0.00    +0.000 NA
BRANCH  12  13
ATOM     13  N   UNL     1      29.709  23.917  22.448  0.00  0.00    +0.000 NA
ATOM     14  C   UNL     1      28.976  24.605  21.449  0.00  0.00    +0.000 C 
ATOM     15  O   UNL     1      27.740  24.597  21.513  0.00  0.00    +0.000 OA
BRANCH  14  16
ATOM     16  O   UNL     1      29.601  25.288  20.402  0.00  0.00    +0.000 OA
BRANCH  16  17
ATOM     17  C   UNL     1      29.512  26.705  20.347  0.00  0.00    +0.000 C 
ATOM     18  C   UNL     1      30.277  27.157  19.139  0.00  0.00    +0.000 C 
ENDBRANCH  16  17
ENDBRANCH  14  16
ENDBRANCH  12  13
ENDBRANCH   2  12
TORSDOF 5
ENDMDL
MODEL 3
REMARK VINA RESULT:      -5.6     17.333     18.531
REMARK  Name = 
REMARK  5 active torsions:
REMARK  status: ('A' for Active; 'I' for Inactive)
REMARK    1  A    between atoms: C_2  and  N_3
REMARK    2  A    between atoms: C_2  and  C_10
REMARK    3  A    between atoms: N_3  and  N_4
REMARK    4  A    between atoms: C_5  and  O_7
REMARK    5  A    between atoms: O_7  and  C_8
REMARK                            x       y       z     vdW  Elec       q    Type
REMARK                         _______ _______ _______ _____ _____    ______ ____
ROOT
ATOM      1  C   UNL     1      30.092  22.433  28.051  0.00  0.00    +0.000 C 
ATOM      2  C   UNL     1      28.820  22.516  27.773  0.00  0.00    +0.000 C 
ENDROOT
BRANCH   2   3
ATOM      3  C   UNL     1      28.370  22.848  26.418  0.00  0.00    +0.000 A 
ATOM      4  C   UNL     1      29.112  23.106  25.314  0.00  0.00    +0.000 A 
ATOM      5  C   UNL     1      28.494  23.387  24.162  0.00  0.00    +0.000 A 
ATOM      6  C   UNL     1      29.129  23.675  22.944  0.00  0.00    +0.000 A 
ATOM      7  C   UNL     1      28.382  23.949  21.833  0.00  0.00    +0.000 A 
ATOM      8  C   UNL     1      27.012  23.965  21.812  0.00  0.00    +0.000 A 
ATOM      9  C   UNL     1      26.386  23.678  23.017  0.00  0.00    +0.000 A 
ATOM     10  C   UNL     1      27.128  23.395  24.174  0.00  0.00    +0.000 A 
ATOM     11  S   UNL     1      26.771  23.008  25.800  0.00  0.00    +0.000 S 
ENDBRANCH   2   3
BRANCH   2  12
ATOM     12  N   UNL     1      27.834  22.302  28.760  0.00  0.00    +0.000 NA
BRANCH  12  13
ATOM     13  N   UNL     1      27.359  23.445  29.433  0.00  0.00    +0.000 NA
ATOM     14  C   UNL     1      26.364  23.287  30.429  0.00  0.00    +0.000 C 
ATOM     15  O   UNL     1      25.950  22.147  30.675  0.00  0.00    +0.000 OA
BRANCH  14  16
ATOM     16  O   UNL     1      25.838  24.371  31.138  0.00  0.00    +0.000 OA
BRANCH  16  17
ATOM     17  C   UNL     1      25.430  25.533  30.428  0.00  0.00    +0.000 C 
ATOM     18  C   UNL     1      24.321  26.170  31.210  0.00  0.00    +0.000 C 
ENDBRANCH  16  17
ENDBRANCH  14  16
ENDBRANCH  12  13
ENDBRANCH   2  12
TORSDOF 5
ENDMDL
MODEL 4
REMARK VINA RESULT:      -5.5     21.056     22.622
REMARK  Name = 
REMARK  5 active torsions:
REMARK  status: ('A' for Active; 'I' for Inactive)
REMARK    1  A    between atoms: C_2  and  N_3
REMARK    2  A    between atoms: C_2  and  C_10
REMARK    3  A    between atoms: N_3  and  N_4
REMARK    4  A    between atoms: C_5  and  O_7
REMARK    5  A    between atoms: O_7  and  C_8
REMARK                            x       y       z     vdW  Elec       q    Type
REMARK                         _______ _______ _______ _____ _____    ______ ____
ROOT
ATOM      1  C   UNL     1      18.768  -5.368  26.592  0.00  0.00    +0.000 C 
ATOM      2  C   UNL     1      18.972  -6.625  26.311  0.00  0.00    +0.000 C 
ENDROOT
BRANCH   2   3
ATOM      3  C   UNL     1      20.259  -7.071  25.767  0.00  0.00    +0.000 A 
ATOM      4  C   UNL     1      21.223  -6.342  25.154  0.00  0.00    +0.000 A 
ATOM      5  C   UNL     1      22.335  -6.951  24.732  0.00  0.00    +0.000 A 
ATOM      6  C   UNL     1      23.412  -6.328  24.083  0.00  0.00    +0.000 A 
ATOM      7  C   UNL     1      24.496  -7.065  23.697  0.00  0.00    +0.000 A 
ATOM      8  C   UNL     1      24.620  -8.415  23.901  0.00  0.00    +0.000 A 
ATOM      9  C   UNL     1      23.555  -9.029  24.545  0.00  0.00    +0.000 A 
ATOM     10  C   UNL     1      22.429  -8.297  24.950  0.00  0.00    +0.000 A 
ATOM     11  S   UNL     1      20.953  -8.646  25.739  0.00  0.00    +0.000 S 
ENDBRANCH   2   3
BRANCH   2  12
ATOM     12  N   UNL     1      17.969  -7.598  26.506  0.00  0.00    +0.000 NA
BRANCH  12  13
ATOM     13  N   UNL     1      16.708  -7.323  25.940  0.00  0.00    +0.000 NA
ATOM     14  C   UNL     1      15.679  -8.290  26.062  0.00  0.00    +0.000 C 
ATOM     15  O   UNL     1      15.925  -9.341  26.668  0.00  0.00    +0.000 OA
BRANCH  14  16
ATOM     16  O   UNL     1      14.404  -8.096  25.524  0.00  0.00    +0.000 OA
BRANCH  16  17
ATOM     17  C   UNL     1      13.312  -8.847  26.038  0.00  0.00    +0.000 C 
ATOM     18  C   UNL     1      12.084  -8.424  25.289  0.00  0.00    +0.000 C 
ENDBRANCH  16  17
ENDBRANCH  14  16
ENDBRANCH  12  13
ENDBRANCH   2  12
TORSDOF 5
ENDMDL
MODEL 5
REMARK VINA RESULT:      -5.4     20.498     23.806
REMARK  Name = 
REMARK  5 active torsions:
REMARK  status: ('A' for Active; 'I' for Inactive)
REMARK    1  A    between atoms: C_2  and  N_3
REMARK    2  A    between atoms: C_2  and  C_10
REMARK    3  A    between atoms: N_3  and  N_4
REMARK    4  A    between atoms: C_5  and  O_7
REMARK    5  A    between atoms: O_7  and  C_8
REMARK                            x       y       z     vdW  Elec       q    Type
REMARK                         _______ _______ _______ _____ _____    ______ ____
ROOT
ATOM      1  C   UNL     1      32.522  -4.690  34.737  0.00  0.00    +0.000 C 
ATOM      2  C   UNL     1      33.398  -4.278  33.863  0.00  0.00    +0.000 C 
ENDROOT
BRANCH   2   3
ATOM      3  C   UNL     1      33.727  -5.095  32.692  0.00  0.00    +0.000 A 
ATOM      4  C   UNL     1      33.493  -4.838  31.381  0.00  0.00    +0.000 A 
ATOM      5  C   UNL     1      33.882  -5.726  30.461  0.00  0.00    +0.000 A 
ATOM      6  C   UNL     1      33.706  -5.597  29.075  0.00  0.00    +0.000 A 
ATOM      7  C   UNL     1      34.149  -6.580  28.236  0.00  0.00    +0.000 A 
ATOM      8  C   UNL     1      34.774  -7.725  28.654  0.00  0.00    +0.000 A 
ATOM      9  C   UNL     1      34.949  -7.851  30.026  0.00  0.00    +0.000 A 
ATOM     10  C   UNL     1      34.503  -6.858  30.911  0.00  0.00    +0.000 A 
ATOM     11  S   UNL     1      34.513  -6.624  32.604  0.00  0.00    +0.000 S 
ENDBRANCH   2   3
BRANCH   2  12
ATOM     12  N   UNL     1      34.068  -3.045  34.014  0.00  0.00    +0.000 NA
BRANCH  12  13
ATOM     13  N   UNL     1      33.453  -1.920  33.431  0.00  0.00    +0.000 NA
ATOM     14  C   UNL     1      33.582  -0.663  34.072  0.00  0.00    +0.000 C 
ATOM     15  O   UNL     1      34.237  -0.599  35.120  0.00  0.00    +0.000 OA
BRANCH  14  16
ATOM     16  O   UNL     1      32.998   0.499  33.561  0.00  0.00    +0.000 OA
BRANCH  16  17
ATOM     17  C   UNL     1      33.487   1.766  33.983  0.00  0.00    +0.000 C 
ATOM     18  C   UNL     1      33.852   2.539  32.752  0.00  0.00    +0.000 C 
ENDBRANCH  16  17
ENDBRANCH  14  16
ENDBRANCH  12  13
ENDBRANCH   2  12
TORSDOF 5
ENDMDL
MODEL 6
REMARK VINA RESULT:      -5.3     17.096     18.214
REMARK  Name = 
REMARK  5 active torsions:
REMARK  status: ('A' for Active; 'I' for Inactive)
REMARK    1  A    between atoms: C_2  and  N_3
REMARK    2  A    between atoms: C_2  and  C_10
REMARK    3  A    between atoms: N_3  and  N_4
REMARK    4  A    between atoms: C_5  and  O_7
REMARK    5  A    between atoms: O_7  and  C_8
REMARK                            x       y       z     vdW  Elec       q    Type
REMARK                         _______ _______ _______ _____ _____    ______ ____
ROOT
ATOM      1  C   UNL     1      26.445  22.191  30.234  0.00  0.00    +0.000 C 
ATOM      2  C   UNL     1      27.604  22.662  29.867  0.00  0.00    +0.000 C 
ENDROOT
BRANCH   2   3
ATOM      3  C   UNL     1      27.956  22.764  28.448  0.00  0.00    +0.000 A 
ATOM      4  C   UNL     1      29.129  22.466  27.838  0.00  0.00    +0.000 A 
ATOM      5  C   UNL     1      29.239  22.628  26.515  0.00  0.00    +0.000 A 
ATOM      6  C   UNL     1      30.386  22.364  25.752  0.00  0.00    +0.000 A 
ATOM      7  C   UNL     1      30.371  22.575  24.402  0.00  0.00    +0.000 A 
ATOM      8  C   UNL     1      29.285  23.040  23.708  0.00  0.00    +0.000 A 
ATOM      9  C   UNL     1      28.151  23.300  24.464  0.00  0.00    +0.000 A 
ATOM     10  C   UNL     1      28.138  23.094  25.852  0.00  0.00    +0.000 A 
ATOM     11  S   UNL     1      27.000  23.282  27.113  0.00  0.00    +0.000 S 
ENDBRANCH   2   3
BRANCH   2  12
ATOM     12  N   UNL     1      28.564  23.080  30.813  0.00  0.00    +0.000 NA
BRANCH  12  13
ATOM     13  N   UNL     1      29.336  22.067  31.416  0.00  0.00    +0.000 NA
ATOM     14  C   UNL     1      30.741  22.078  31.233  0.00  0.00    +0.000 C 
ATOM     15  O   UNL     1      31.240  22.984  30.553  0.00  0.00    +0.000 OA
BRANCH  14  16
ATOM     16  O   UNL     1      31.575  21.107  31.793  0.00  0.00    +0.000 OA
BRANCH  16  17
ATOM     17  C   UNL     1      32.811  21.503  32.372  0.00  0.00    +0.000 C 
ATOM     18  C   UNL     1      33.904  20.819  31.608  0.00  0.00    +0.000 C 
ENDBRANCH  16  17
ENDBRANCH  14  16
ENDBRANCH  12  13
ENDBRANCH   2  12
TORSDOF 5
ENDMDL
MODEL 7
REMARK VINA RESULT:      -5.3     21.916     23.044
REMARK  Name = 
REMARK  5 active torsions:
REMARK  status: ('A' for Active; 'I' for Inactive)
REMARK    1  A    between atoms: C_2  and  N_3
REMARK    2  A    between atoms: C_2  and  C_10
REMARK    3  A    between atoms: N_3  and  N_4
REMARK    4  A    between atoms: C_5  and  O_7
REMARK    5  A    between atoms: O_7  and  C_8
REMARK                            x       y       z     vdW  Elec       q    Type
REMARK                         _______ _______ _______ _____ _____    ______ ____
ROOT
ATOM      1  C   UNL     1      22.807  -9.600  23.239  0.00  0.00    +0.000 C 
ATOM      2  C   UNL     1      22.892  -8.551  24.009  0.00  0.00    +0.000 C 
ENDROOT
BRANCH   2   3
ATOM      3  C   UNL     1      21.719  -8.063  24.740  0.00  0.00    +0.000 A 
ATOM      4  C   UNL     1      21.353  -6.785  25.007  0.00  0.00    +0.000 A 
ATOM      5  C   UNL     1      20.229  -6.556  25.694  0.00  0.00    +0.000 A 
ATOM      6  C   UNL     1      19.728  -5.293  26.044  0.00  0.00    +0.000 A 
ATOM      7  C   UNL     1      18.565  -5.192  26.753  0.00  0.00    +0.000 A 
ATOM      8  C   UNL     1      17.819  -6.267  27.165  0.00  0.00    +0.000 A 
ATOM      9  C   UNL     1      18.315  -7.515  26.816  0.00  0.00    +0.000 A 
ATOM     10  C   UNL     1      19.508  -7.648  26.090  0.00  0.00    +0.000 A 
ATOM     11  S   UNL     1      20.439  -8.945  25.480  0.00  0.00    +0.000 S 
ENDBRANCH   2   3
BRANCH   2  12
ATOM     12  N   UNL     1      24.103  -7.842  24.161  0.00  0.00    +0.000 NA
BRANCH  12  13
ATOM     13  N   UNL     1      25.278  -8.513  23.769  0.00  0.00    +0.000 NA
ATOM     14  C   UNL     1      26.310  -7.773  23.140  0.00  0.00    +0.000 C 
ATOM     15  O   UNL     1      26.142  -6.560  22.963  0.00  0.00    +0.000 OA
BRANCH  14  16
ATOM     16  O   UNL     1      27.502  -8.366  22.718  0.00  0.00    +0.000 OA
BRANCH  16  17
ATOM     17  C   UNL     1      28.169  -7.845  21.575  0.00  0.00    +0.000 C 
ATOM     18  C   UNL     1      29.467  -7.258  22.041  0.00  0.00    +0.000 C 
ENDBRANCH  16  17
ENDBRANCH  14  16
ENDBRANCH  12  13
ENDBRANCH   2  12
TORSDOF 5
ENDMDL
MODEL 8
REMARK VINA RESULT:      -5.1     21.094     21.956
REMARK  Name = 
REMARK  5 active torsions:
REMARK  status: ('A' for Active; 'I' for Inactive)
REMARK    1  A    between atoms: C_2  and  N_3
REMARK    2  A    between atoms: C_2  and  C_10
REMARK    3  A    between atoms: N_3  and  N_4
REMARK    4  A    between atoms: C_5  and  O_7
REMARK    5  A    between atoms: O_7  and  C_8
REMARK                            x       y       z     vdW  Elec       q    Type
REMARK                         _______ _______ _______ _____ _____    ______ ____
ROOT
ATOM      1  C   UNL     1      16.455 -11.341  27.858  0.00  0.00    +0.000 C 
ATOM      2  C   UNL     1      17.325 -10.611  28.499  0.00  0.00    +0.000 C 
ENDROOT
BRANCH   2   3
ATOM      3  C   UNL     1      17.998  -9.492  27.833  0.00  0.00    +0.000 A 
ATOM      4  C   UNL     1      17.670  -8.177  27.835  0.00  0.00    +0.000 A 
ATOM      5  C   UNL     1      18.430  -7.312  27.157  0.00  0.00    +0.000 A 
ATOM      6  C   UNL     1      18.213  -5.929  27.068  0.00  0.00    +0.000 A 
ATOM      7  C   UNL     1      19.065  -5.149  26.337  0.00  0.00    +0.000 A 
ATOM      8  C   UNL     1      20.156  -5.628  25.659  0.00  0.00    +0.000 A 
ATOM      9  C   UNL     1      20.370  -6.996  25.749  0.00  0.00    +0.000 A 
ATOM     10  C   UNL     1      19.510  -7.821  26.491  0.00  0.00    +0.000 A 
ATOM     11  S   UNL     1      19.410  -9.489  26.849  0.00  0.00    +0.000 S 
ENDBRANCH   2   3
BRANCH   2  12
ATOM     12  N   UNL     1      17.659 -10.871  29.845  0.00  0.00    +0.000 NA
BRANCH  12  13
ATOM     13  N   UNL     1      17.024 -10.072  30.817  0.00  0.00    +0.000 NA
ATOM     14  C   UNL     1      16.114 -10.683  31.715  0.00  0.00    +0.000 C 
ATOM     15  O   UNL     1      15.913 -11.900  31.615  0.00  0.00    +0.000 OA
BRANCH  14  16
ATOM     16  O   UNL     1      15.440  -9.960  32.702  0.00  0.00    +0.000 OA
BRANCH  16  17
ATOM     17  C   UNL     1      14.232 -10.480  33.242  0.00  0.00    +0.000 C 
ATOM     18  C   UNL     1      13.103  -9.936  32.421  0.00  0.00    +0.000 C 
ENDBRANCH  16  17
ENDBRANCH  14  16
ENDBRANCH  12  13
ENDBRANCH   2  12
TORSDOF 5
ENDMDL
MODEL 9
REMARK VINA RESULT:      -5.1     17.198     18.435
REMARK  Name = 
REMARK  5 active torsions:
REMARK  status: ('A' for Active; 'I' for Inactive)
REMARK    1  A    between atoms: C_2  and  N_3
REMARK    2  A    between atoms: C_2  and  C_10
REMARK    3  A    between atoms: N_3  and  N_4
REMARK    4  A    between atoms: C_5  and  O_7
REMARK    5  A    between atoms: O_7  and  C_8
REMARK                            x       y       z     vdW  Elec       q    Type
REMARK                         _______ _______ _______ _____ _____    ______ ____
ROOT
ATOM      1  C   UNL     1      30.975  22.668  30.079  0.00  0.00    +0.000 C 
ATOM      2  C   UNL     1      29.772  22.632  29.576  0.00  0.00    +0.000 C 
ENDROOT
BRANCH   2   3
ATOM      3  C   UNL     1      29.562  22.740  28.130  0.00  0.00    +0.000 A 
ATOM      4  C   UNL     1      28.401  22.898  27.447  0.00  0.00    +0.000 A 
ATOM      5  C   UNL     1      28.433  22.978  26.113  0.00  0.00    +0.000 A 
ATOM      6  C   UNL     1      27.317  23.140  25.278  0.00  0.00    +0.000 A 
ATOM      7  C   UNL     1      27.482  23.205  23.923  0.00  0.00    +0.000 A 
ATOM      8  C   UNL     1      28.695  23.124  23.291  0.00  0.00    +0.000 A 
ATOM      9  C   UNL     1      29.798  22.965  24.119  0.00  0.00    +0.000 A 
ATOM     10  C   UNL     1      29.658  22.893  25.513  0.00  0.00    +0.000 A 
ATOM     11  S   UNL     1      30.709  22.706  26.847  0.00  0.00    +0.000 S 
ENDBRANCH   2   3
BRANCH   2  12
ATOM     12  N   UNL     1      28.633  22.501  30.398  0.00  0.00    +0.000 NA
BRANCH  12  13
ATOM     13  N   UNL     1      27.829  23.649  30.548  0.00  0.00    +0.000 NA
ATOM     14  C   UNL     1      26.428  23.489  30.687  0.00  0.00    +0.000 C 
ATOM     15  O   UNL     1      25.961  22.343  30.676  0.00  0.00    +0.000 OA
BRANCH  14  16
ATOM     16  O   UNL     1      25.563  24.577  30.834  0.00  0.00    +0.000 OA
BRANCH  16  17
ATOM     17  C   UNL     1      25.372  25.465  29.741  0.00  0.00    +0.000 C 
ATOM     18  C   UNL     1      24.193  26.331  30.067  0.00  0.00    +0.000 C 
ENDBRANCH  16  17
ENDBRANCH  14  16
ENDBRANCH  12  13
ENDBRANCH   2  12
TORSDOF 5
ENDMDL
MODEL 10
REMARK VINA RESULT:      -5.0     19.077     20.767
REMARK  Name = 
REMARK  5 active torsions:
REMARK  status: ('A' for Active; 'I' for Inactive)
REMARK    1  A    between atoms: C_2  and  N_3
REMARK    2  A    between atoms: C_2  and  C_10
REMARK    3  A    between atoms: N_3  and  N_4
REMARK    4  A    between atoms: C_5  and  O_7
REMARK    5  A    between atoms: O_7  and  C_8
REMARK                            x       y       z     vdW  Elec       q    Type
REMARK                         _______ _______ _______ _____ _____    ______ ____
ROOT
ATOM      1  C   UNL     1      29.201  24.553  21.442  0.00  0.00    +0.000 C 
ATOM      2  C   UNL     1      28.609  24.266  22.568  0.00  0.00    +0.000 C 
ENDROOT
BRANCH   2   3
ATOM      3  C   UNL     1      29.391  24.031  23.786  0.00  0.00    +0.000 A 
ATOM      4  C   UNL     1      29.325  22.991  24.652  0.00  0.00    +0.000 A 
ATOM      5  C   UNL     1      30.141  22.969  25.711  0.00  0.00    +0.000 A 
ATOM      6  C   UNL     1      30.185  21.964  26.689  0.00  0.00    +0.000 A 
ATOM      7  C   UNL     1      31.066  22.059  27.728  0.00  0.00    +0.000 A 
ATOM      8  C   UNL     1      31.945  23.097  27.898  0.00  0.00    +0.000 A 
ATOM      9  C   UNL     1      31.902  24.090  26.929  0.00  0.00    +0.000 A 
ATOM     10  C   UNL     1      31.006  24.018  25.852  0.00  0.00    +0.000 A 
ATOM     11  S   UNL     1      30.635  24.987  24.494  0.00  0.00    +0.000 S 
ENDBRANCH   2   3
BRANCH   2  12
ATOM     12  N   UNL     1      27.205  24.161  22.658  0.00  0.00    +0.000 NA
BRANCH  12  13
ATOM     13  N   UNL     1      26.587  24.861  23.714  0.00  0.00    +0.000 NA
ATOM     14  C   UNL     1      25.862  24.129  24.687  0.00  0.00    +0.000 C 
ATOM     15  O   UNL     1      25.802  22.898  24.576  0.00  0.00    +0.000 OA
BRANCH  14  16
ATOM     16  O   UNL     1      25.218  24.749  25.760  0.00  0.00    +0.000 OA
BRANCH  16  17
ATOM     17  C   UNL     1      25.501  24.317  27.085  0.00  0.00    +0.000 C 
ATOM     18  C   UNL     1      26.922  24.686  27.383  0.00  0.00    +0.000 C 
ENDBRANCH  16  17
ENDBRANCH  14  16
ENDBRANCH  12  13
ENDBRANCH   2  12
TORSDOF 5
ENDMDL
