MODEL 1
REMARK VINA RESULT:      -6.5      0.000      0.000
REMARK  Name = 
REMARK  5 active torsions:
REMARK  status: ('A' for Active; 'I' for Inactive)
REMARK    1  A    between atoms: C_2  and  O_3
REMARK    2  A    between atoms: O_3  and  C_4
REMARK    3  A    between atoms: C_7  and  C_8
REMARK    4  A    between atoms: C_8  and  C_10
REMARK    5  A    between atoms: C_13  and  C_14
REMARK                            x       y       z     vdW  Elec       q    Type
REMARK                         _______ _______ _______ _____ _____    ______ ____
ROOT
ATOM      1  C   UNL     1      16.052  10.868  34.211  0.00  0.00    +0.000 A 
ATOM      2  C   UNL     1      17.140  10.022  34.120  0.00  0.00    +0.000 A 
ATOM      3  C   UNL     1      17.948   9.811  35.213  0.00  0.00    +0.000 A 
ATOM      4  C   UNL     1      17.667  10.443  36.387  0.00  0.00    +0.000 A 
ATOM      5  C   UNL     1      16.634  11.261  36.516  0.00  0.00    +0.000 A 
ATOM      6  C   UNL     1      15.819  11.479  35.426  0.00  0.00    +0.000 A 
ENDROOT
BRANCH   6   7
ATOM      7  C   UNL     1      14.659  12.371  35.495  0.00  0.00    +0.000 A 
ATOM      8  C   UNL     1      14.431  13.497  34.740  0.00  0.00    +0.000 A 
ATOM      9  C   UNL     1      13.232  14.014  35.139  0.00  0.00    +0.000 A 
ATOM     10  N   UNL     1      12.661  15.190  34.579  0.00  0.00    +0.000 NA
ATOM     11  O   UNL     1      12.776  13.233  36.081  0.00  0.00    +0.000 OA
ATOM     12  N   UNL     1      13.592  12.260  36.312  0.00  0.00    +0.000 NA
ENDBRANCH   6   7
BRANCH   4  13
ATOM     13  C   UNL     1      18.654  10.148  37.617  0.00  0.00    +0.000 C 
ATOM     14  C   UNL     1      17.425  10.008  38.714  0.00  0.00    +0.000 C 
BRANCH  13  15
ATOM     15  C   UNL     1      18.941  11.729  38.013  0.00  0.00    +0.000 C 
ATOM     16  C   UNL     1      20.412  11.791  38.265  0.00  0.00    +0.000 C 
ENDBRANCH  13  15
ENDBRANCH   4  13
BRANCH   1  17
ATOM     17  O   UNL     1      15.224  11.092  33.111  0.00  0.00    +0.000 OA
BRANCH  17  19
ATOM     18  C   UNL     1      14.748  11.715  30.890  0.00  0.00    +0.000 C 
ATOM     19  C   UNL     1      15.834  11.340  31.873  0.00  0.00    +0.000 C 
ENDBRANCH  17  19
ENDBRANCH   1  17
TORSDOF 5
ENDMDL
MODEL 2
REMARK VINA RESULT:      -6.4     18.591     20.112
REMARK  Name = 
REMARK  5 active torsions:
REMARK  status: ('A' for Active; 'I' for Inactive)
REMARK    1  A    between atoms: C_2  and  O_3
REMARK    2  A    between atoms: O_3  and  C_4
REMARK    3  A    between atoms: C_7  and  C_8
REMARK    4  A    between atoms: C_8  and  C_10
REMARK    5  A    between atoms: C_13  and  C_14
REMARK                            x       y       z     vdW  Elec       q    Type
REMARK                         _______ _______ _______ _____ _____    ______ ____
ROOT
ATOM      1  C   UNL     1      26.352  23.584  26.024  0.00  0.00    +0.000 A 
ATOM      2  C   UNL     1      25.731  23.869  27.223  0.00  0.00    +0.000 A 
ATOM      3  C   UNL     1      24.902  24.962  27.334  0.00  0.00    +0.000 A 
ATOM      4  C   UNL     1      24.700  25.762  26.250  0.00  0.00    +0.000 A 
ATOM      5  C   UNL     1      25.276  25.524  25.082  0.00  0.00    +0.000 A 
ATOM      6  C   UNL     1      26.108  24.431  24.962  0.00  0.00    +0.000 A 
ENDROOT
BRANCH   6   7
ATOM      7  C   UNL     1      26.780  24.107  23.701  0.00  0.00    +0.000 A 
ATOM      8  C   UNL     1      27.998  24.571  23.266  0.00  0.00    +0.000 A 
ATOM      9  C   UNL     1      28.229  24.011  22.043  0.00  0.00    +0.000 A 
ATOM     10  N   UNL     1      29.401  24.261  21.276  0.00  0.00    +0.000 NA
ATOM     11  O   UNL     1      27.201  23.255  21.770  0.00  0.00    +0.000 OA
ATOM     12  N   UNL     1      26.333  23.290  22.725  0.00  0.00    +0.000 NA
ENDBRANCH   6   7
BRANCH   4  13
ATOM     13  C   UNL     1      23.721  27.017  26.455  0.00  0.00    +0.000 C 
ATOM     14  C   UNL     1      22.601  26.147  27.304  0.00  0.00    +0.000 C 
BRANCH  13  15
ATOM     15  C   UNL     1      22.896  26.850  25.030  0.00  0.00    +0.000 C 
ATOM     16  C   UNL     1      21.467  26.705  25.439  0.00  0.00    +0.000 C 
ENDBRANCH  13  15
ENDBRANCH   4  13
BRANCH   1  17
ATOM     17  O   UNL     1      27.195  22.480  25.896  0.00  0.00    +0.000 OA
BRANCH  17  19
ATOM     18  C   UNL     1      29.548  22.420  25.959  0.00  0.00    +0.000 C 
ATOM     19  C   UNL     1      28.279  22.380  26.780  0.00  0.00    +0.000 C 
ENDBRANCH  17  19
ENDBRANCH   1  17
TORSDOF 5
ENDMDL
MODEL 3
REMARK VINA RESULT:      -6.4      1.854      2.869
REMARK  Name = 
REMARK  5 active torsions:
REMARK  status: ('A' for Active; 'I' for Inactive)
REMARK    1  A    between atoms: C_2  and  O_3
REMARK    2  A    between atoms: O_3  and  C_4
REMARK    3  A    between atoms: C_7  and  C_8
REMARK    4  A    between atoms: C_8  and  C_10
REMARK    5  A    between atoms: C_13  and  C_14
REMARK                            x       y       z     vdW  Elec       q    Type
REMARK                         _______ _______ _______ _____ _____    ______ ____
ROOT
ATOM      1  C   UNL     1      16.394  10.857  36.055  0.00  0.00    +0.000 A 
ATOM      2  C   UNL     1      17.679  10.367  36.171  0.00  0.00    +0.000 A 
ATOM      3  C   UNL     1      18.185  10.031  37.406  0.00  0.00    +0.000 A 
ATOM      4  C   UNL     1      17.407  10.187  38.514  0.00  0.00    +0.000 A 
ATOM      5  C   UNL     1      16.170  10.654  38.445  0.00  0.00    +0.000 A 
ATOM      6  C   UNL     1      15.656  10.992  37.213  0.00  0.00    +0.000 A 
ENDROOT
BRANCH   6   7
ATOM      7  C   UNL     1      14.295  11.516  37.062  0.00  0.00    +0.000 A 
ATOM      8  C   UNL     1      13.132  10.951  37.527  0.00  0.00    +0.000 A 
ATOM      9  C   UNL     1      12.108  11.777  37.160  0.00  0.00    +0.000 A 
ATOM     10  N   UNL     1      10.744  11.517  37.468  0.00  0.00    +0.000 NA
ATOM     11  O   UNL     1      12.641  12.777  36.512  0.00  0.00    +0.000 OA
ATOM     12  N   UNL     1      13.923  12.652  36.438  0.00  0.00    +0.000 NA
ENDBRANCH   6   7
BRANCH   4  13
ATOM     13  C   UNL     1      18.065   9.775  39.918  0.00  0.00    +0.000 C 
ATOM     14  C   UNL     1      18.528   8.278  39.388  0.00  0.00    +0.000 C 
BRANCH  13  15
ATOM     15  C   UNL     1      16.680   9.193  40.614  0.00  0.00    +0.000 C 
ATOM     16  C   UNL     1      16.759   9.639  42.036  0.00  0.00    +0.000 C 
ENDBRANCH  13  15
ENDBRANCH   4  13
BRANCH   1  17
ATOM     17  O   UNL     1      15.867  11.202  34.810  0.00  0.00    +0.000 OA
BRANCH  17  19
ATOM     18  C   UNL     1      16.324  10.668  32.562  0.00  0.00    +0.000 C 
ATOM     19  C   UNL     1      16.770  11.463  33.768  0.00  0.00    +0.000 C 
ENDBRANCH  17  19
ENDBRANCH   1  17
TORSDOF 5
ENDMDL
MODEL 4
REMARK VINA RESULT:      -6.1     17.632     19.142
REMARK  Name = 
REMARK  5 active torsions:
REMARK  status: ('A' for Active; 'I' for Inactive)
REMARK    1  A    between atoms: C_2  and  O_3
REMARK    2  A    between atoms: O_3  and  C_4
REMARK    3  A    between atoms: C_7  and  C_8
REMARK    4  A    between atoms: C_8  and  C_10
REMARK    5  A    between atoms: C_13  and  C_14
REMARK                            x       y       z     vdW  Elec       q    Type
REMARK                         _______ _______ _______ _____ _____    ______ ____
ROOT
ATOM      1  C   UNL     1      30.224  22.629  29.341  0.00  0.00    +0.000 A 
ATOM      2  C   UNL     1      31.378  22.400  28.619  0.00  0.00    +0.000 A 
ATOM      3  C   UNL     1      31.332  22.310  27.247  0.00  0.00    +0.000 A 
ATOM      4  C   UNL     1      30.137  22.448  26.606  0.00  0.00    +0.000 A 
ATOM      5  C   UNL     1      29.008  22.668  27.261  0.00  0.00    +0.000 A 
ATOM      6  C   UNL     1      29.045  22.760  28.636  0.00  0.00    +0.000 A 
ENDROOT
BRANCH   6   7
ATOM      7  C   UNL     1      27.835  23.002  29.426  0.00  0.00    +0.000 A 
ATOM      8  C   UNL     1      27.290  24.219  29.758  0.00  0.00    +0.000 A 
ATOM      9  C   UNL     1      26.170  23.969  30.499  0.00  0.00    +0.000 A 
ATOM     10  N   UNL     1      25.336  24.994  31.026  0.00  0.00    +0.000 NA
ATOM     11  O   UNL     1      26.061  22.672  30.598  0.00  0.00    +0.000 OA
ATOM     12  N   UNL     1      27.023  22.077  29.978  0.00  0.00    +0.000 NA
ENDBRANCH   6   7
BRANCH   4  13
ATOM     13  C   UNL     1      30.163  22.329  25.006  0.00  0.00    +0.000 C 
ATOM     14  C   UNL     1      31.463  23.337  24.841  0.00  0.00    +0.000 C 
BRANCH  13  15
ATOM     15  C   UNL     1      29.077  23.543  24.709  0.00  0.00    +0.000 C 
ATOM     16  C   UNL     1      28.506  23.217  23.368  0.00  0.00    +0.000 C 
ENDBRANCH  13  15
ENDBRANCH   4  13
BRANCH   1  17
ATOM     17  O   UNL     1      30.255  22.724  30.733  0.00  0.00    +0.000 OA
BRANCH  17  19
ATOM     18  C   UNL     1      30.474  21.575  32.777  0.00  0.00    +0.000 C 
ATOM     19  C   UNL     1      31.101  21.847  31.428  0.00  0.00    +0.000 C 
ENDBRANCH  17  19
ENDBRANCH   1  17
TORSDOF 5
ENDMDL
MODEL 5
REMARK VINA RESULT:      -6.0     18.159     19.297
REMARK  Name = 
REMARK  5 active torsions:
REMARK  status: ('A' for Active; 'I' for Inactive)
REMARK    1  A    between atoms: C_2  and  O_3
REMARK    2  A    between atoms: O_3  and  C_4
REMARK    3  A    between atoms: C_7  and  C_8
REMARK    4  A    between atoms: C_8  and  C_10
REMARK    5  A    between atoms: C_13  and  C_14
REMARK                            x       y       z     vdW  Elec       q    Type
REMARK                         _______ _______ _______ _____ _____    ______ ____
ROOT
ATOM      1  C   UNL     1      25.694  24.553  25.870  0.00  0.00    +0.000 A 
ATOM      2  C   UNL     1      25.298  24.630  27.190  0.00  0.00    +0.000 A 
ATOM      3  C   UNL     1      25.936  23.880  28.151  0.00  0.00    +0.000 A 
ATOM      4  C   UNL     1      26.962  23.061  27.790  0.00  0.00    +0.000 A 
ATOM      5  C   UNL     1      27.372  22.958  26.535  0.00  0.00    +0.000 A 
ATOM      6  C   UNL     1      26.739  23.706  25.566  0.00  0.00    +0.000 A 
ENDROOT
BRANCH   6   7
ATOM      7  C   UNL     1      27.139  23.642  24.158  0.00  0.00    +0.000 A 
ATOM      8  C   UNL     1      28.315  24.096  23.607  0.00  0.00    +0.000 A 
ATOM      9  C   UNL     1      28.260  23.831  22.269  0.00  0.00    +0.000 A 
ATOM     10  N   UNL     1      29.306  24.162  21.363  0.00  0.00    +0.000 NA
ATOM     11  O   UNL     1      27.113  23.251  22.042  0.00  0.00    +0.000 OA
ATOM     12  N   UNL     1      26.433  23.126  23.132  0.00  0.00    +0.000 NA
ENDBRANCH   6   7
BRANCH   4  13
ATOM     13  C   UNL     1      27.657  22.218  28.965  0.00  0.00    +0.000 C 
ATOM     14  C   UNL     1      26.418  22.470  30.030  0.00  0.00    +0.000 C 
BRANCH  13  15
ATOM     15  C   UNL     1      28.557  23.462  29.585  0.00  0.00    +0.000 C 
ATOM     16  C   UNL     1      29.566  22.795  30.460  0.00  0.00    +0.000 C 
ENDBRANCH  13  15
ENDBRANCH   4  13
BRANCH   1  17
ATOM     17  O   UNL     1      25.056  25.307  24.884  0.00  0.00    +0.000 OA
BRANCH  17  19
ATOM     18  C   UNL     1      23.133  26.653  25.080  0.00  0.00    +0.000 C 
ATOM     19  C   UNL     1      24.638  26.603  25.221  0.00  0.00    +0.000 C 
ENDBRANCH  17  19
ENDBRANCH   1  17
TORSDOF 5
ENDMDL
MODEL 6
REMARK VINA RESULT:      -6.0     19.234     21.319
REMARK  Name = 
REMARK  5 active torsions:
REMARK  status: ('A' for Active; 'I' for Inactive)
REMARK    1  A    between atoms: C_2  and  O_3
REMARK    2  A    between atoms: O_3  and  C_4
REMARK    3  A    between atoms: C_7  and  C_8
REMARK    4  A    between atoms: C_8  and  C_10
REMARK    5  A    between atoms: C_13  and  C_14
REMARK                            x       y       z     vdW  Elec       q    Type
REMARK                         _______ _______ _______ _____ _____    ______ ____
ROOT
ATOM      1  C   UNL     1      33.420   1.474  34.260  0.00  0.00    +0.000 A 
ATOM      2  C   UNL     1      33.383   2.641  33.523  0.00  0.00    +0.000 A 
ATOM      3  C   UNL     1      33.735   3.839  34.101  0.00  0.00    +0.000 A 
ATOM      4  C   UNL     1      34.118   3.864  35.409  0.00  0.00    +0.000 A 
ATOM      5  C   UNL     1      34.166   2.768  36.150  0.00  0.00    +0.000 A 
ATOM      6  C   UNL     1      33.817   1.564  35.578  0.00  0.00    +0.000 A 
ENDROOT
BRANCH   6   7
ATOM      7  C   UNL     1      33.846   0.312  36.337  0.00  0.00    +0.000 A 
ATOM      8  C   UNL     1      34.954  -0.425  36.682  0.00  0.00    +0.000 A 
ATOM      9  C   UNL     1      34.513  -1.510  37.384  0.00  0.00    +0.000 A 
ATOM     10  N   UNL     1      35.381  -2.508  37.909  0.00  0.00    +0.000 NA
ATOM     11  O   UNL     1      33.213  -1.418  37.451  0.00  0.00    +0.000 OA
ATOM     12  N   UNL     1      32.791  -0.359  36.846  0.00  0.00    +0.000 NA
ENDBRANCH   6   7
BRANCH   4  13
ATOM     13  C   UNL     1      34.513   5.297  36.014  0.00  0.00    +0.000 C 
ATOM     14  C   UNL     1      33.505   6.127  34.999  0.00  0.00    +0.000 C 
BRANCH  13  15
ATOM     15  C   UNL     1      35.834   5.553  35.050  0.00  0.00    +0.000 C 
ATOM     16  C   UNL     1      37.004   5.266  35.933  0.00  0.00    +0.000 C 
ENDBRANCH  13  15
ENDBRANCH   4  13
BRANCH   1  17
ATOM     17  O   UNL     1      33.066   0.252  33.686  0.00  0.00    +0.000 OA
BRANCH  17  19
ATOM     18  C   UNL     1      33.812  -1.966  33.418  0.00  0.00    +0.000 C 
ATOM     19  C   UNL     1      34.084  -0.513  33.099  0.00  0.00    +0.000 C 
ENDBRANCH  17  19
ENDBRANCH   1  17
TORSDOF 5
ENDMDL
MODEL 7
REMARK VINA RESULT:      -6.0      1.638      2.388
REMARK  Name = 
REMARK  5 active torsions:
REMARK  status: ('A' for Active; 'I' for Inactive)
REMARK    1  A    between atoms: C_2  and  O_3
REMARK    2  A    between atoms: O_3  and  C_4
REMARK    3  A    between atoms: C_7  and  C_8
REMARK    4  A    between atoms: C_8  and  C_10
REMARK    5  A    between atoms: C_13  and  C_14
REMARK                            x       y       z     vdW  Elec       q    Type
REMARK                         _______ _______ _______ _____ _____    ______ ____
ROOT
ATOM      1  C   UNL     1      17.229  10.174  35.414  0.00  0.00    +0.000 A 
ATOM      2  C   UNL     1      18.449   9.537  35.525  0.00  0.00    +0.000 A 
ATOM      3  C   UNL     1      19.235   9.732  36.637  0.00  0.00    +0.000 A 
ATOM      4  C   UNL     1      18.801  10.560  37.628  0.00  0.00    +0.000 A 
ATOM      5  C   UNL     1      17.639  11.189  37.561  0.00  0.00    +0.000 A 
ATOM      6  C   UNL     1      16.844  10.999  36.451  0.00  0.00    +0.000 A 
ENDROOT
BRANCH   6   7
ATOM      7  C   UNL     1      15.546  11.664  36.308  0.00  0.00    +0.000 A 
ATOM      8  C   UNL     1      14.374  11.345  36.952  0.00  0.00    +0.000 A 
ATOM      9  C   UNL     1      13.424  12.224  36.518  0.00  0.00    +0.000 A 
ATOM     10  N   UNL     1      12.075  12.202  36.968  0.00  0.00    +0.000 NA
ATOM     11  O   UNL     1      14.005  13.020  35.663  0.00  0.00    +0.000 OA
ATOM     12  N   UNL     1      15.251  12.717  35.519  0.00  0.00    +0.000 NA
ENDBRANCH   6   7
BRANCH   4  13
ATOM     13  C   UNL     1      19.773  10.738  38.893  0.00  0.00    +0.000 C 
ATOM     14  C   UNL     1      21.146  10.776  37.973  0.00  0.00    +0.000 C 
BRANCH  13  15
ATOM     15  C   UNL     1      19.942   9.126  39.230  0.00  0.00    +0.000 C 
ATOM     16  C   UNL     1      18.939   8.860  40.305  0.00  0.00    +0.000 C 
ENDBRANCH  13  15
ENDBRANCH   4  13
BRANCH   1  17
ATOM     17  O   UNL     1      16.420   9.987  34.293  0.00  0.00    +0.000 OA
BRANCH  17  19
ATOM     18  C   UNL     1      15.726  11.028  32.298  0.00  0.00    +0.000 C 
ATOM     19  C   UNL     1      16.898  10.449  33.058  0.00  0.00    +0.000 C 
ENDBRANCH  17  19
ENDBRANCH   1  17
TORSDOF 5
ENDMDL
MODEL 8
REMARK VINA RESULT:      -6.0      3.156      5.642
REMARK  Name = 
REMARK  5 active torsions:
REMARK  status: ('A' for Active; 'I' for Inactive)
REMARK    1  A    between atoms: C_2  and  O_3
REMARK    2  A    between atoms: O_3  and  C_4
REMARK    3  A    between atoms: C_7  and  C_8
REMARK    4  A    between atoms: C_8  and  C_10
REMARK    5  A    between atoms: C_13  and  C_14
REMARK                            x       y       z     vdW  Elec       q    Type
REMARK                         _______ _______ _______ _____ _____    ______ ____
ROOT
ATOM      1  C   UNL     1      18.896  10.365  38.692  0.00  0.00    +0.000 A 
ATOM      2  C   UNL     1      19.121   9.968  39.995  0.00  0.00    +0.000 A 
ATOM      3  C   UNL     1      18.069   9.591  40.797  0.00  0.00    +0.000 A 
ATOM      4  C   UNL     1      16.802   9.614  40.296  0.00  0.00    +0.000 A 
ATOM      5  C   UNL     1      16.543   9.989  39.054  0.00  0.00    +0.000 A 
ATOM      6  C   UNL     1      17.591  10.367  38.242  0.00  0.00    +0.000 A 
ENDROOT
BRANCH   6   7
ATOM      7  C   UNL     1      17.380  10.794  36.857  0.00  0.00    +0.000 A 
ATOM      8  C   UNL     1      17.382  10.001  35.734  0.00  0.00    +0.000 A 
ATOM      9  C   UNL     1      17.144  10.816  34.665  0.00  0.00    +0.000 A 
ATOM     10  N   UNL     1      17.075  10.347  33.323  0.00  0.00    +0.000 NA
ATOM     11  O   UNL     1      17.009  12.027  35.132  0.00  0.00    +0.000 OA
ATOM     12  N   UNL     1      17.141  12.046  36.416  0.00  0.00    +0.000 NA
ENDBRANCH   6   7
BRANCH   4  13
ATOM     13  C   UNL     1      15.627   9.163  41.292  0.00  0.00    +0.000 C 
ATOM     14  C   UNL     1      16.419   9.688  42.645  0.00  0.00    +0.000 C 
BRANCH  13  15
ATOM     15  C   UNL     1      16.139   7.601  41.494  0.00  0.00    +0.000 C 
ATOM     16  C   UNL     1      16.036   7.360  42.964  0.00  0.00    +0.000 C 
ENDBRANCH  13  15
ENDBRANCH   4  13
BRANCH   1  17
ATOM     17  O   UNL     1      19.952  10.749  37.866  0.00  0.00    +0.000 OA
BRANCH  17  19
ATOM     18  C   UNL     1      21.646   9.814  36.523  0.00  0.00    +0.000 C 
ATOM     19  C   UNL     1      21.140  10.006  37.935  0.00  0.00    +0.000 C 
ENDBRANCH  17  19
ENDBRANCH   1  17
TORSDOF 5
ENDMDL
MODEL 9
REMARK VINA RESULT:      -5.9     20.122     21.275
REMARK  Name = 
REMARK  5 active torsions:
REMARK  status: ('A' for Active; 'I' for Inactive)
REMARK    1  A    between atoms: C_2  and  O_3
REMARK    2  A    between atoms: O_3  and  C_4
REMARK    3  A    between atoms: C_7  and  C_8
REMARK    4  A    between atoms: C_8  and  C_10
REMARK    5  A    between atoms: C_13  and  C_14
REMARK                            x       y       z     vdW  Elec       q    Type
REMARK                         _______ _______ _______ _____ _____    ______ ____
ROOT
ATOM      1  C   UNL     1      27.748  23.348  24.515  0.00  0.00    +0.000 A 
ATOM      2  C   UNL     1      27.547  22.717  25.726  0.00  0.00    +0.000 A 
ATOM      3  C   UNL     1      28.618  22.398  26.529  0.00  0.00    +0.000 A 
ATOM      4  C   UNL     1      29.880  22.710  26.118  0.00  0.00    +0.000 A 
ATOM      5  C   UNL     1      30.115  23.315  24.965  0.00  0.00    +0.000 A 
ATOM      6  C   UNL     1      29.047  23.638  24.155  0.00  0.00    +0.000 A 
ENDROOT
BRANCH   6   7
ATOM      7  C   UNL     1      29.233  24.308  22.865  0.00  0.00    +0.000 A 
ATOM      8  C   UNL     1      29.257  25.662  22.627  0.00  0.00    +0.000 A 
ATOM      9  C   UNL     1      29.454  25.832  21.287  0.00  0.00    +0.000 A 
ATOM     10  N   UNL     1      29.535  27.109  20.665  0.00  0.00    +0.000 NA
ATOM     11  O   UNL     1      29.542  24.641  20.761  0.00  0.00    +0.000 OA
ATOM     12  N   UNL     1      29.417  23.726  21.662  0.00  0.00    +0.000 NA
ENDBRANCH   6   7
BRANCH   4  13
ATOM     13  C   UNL     1      31.077  22.307  27.107  0.00  0.00    +0.000 C 
ATOM     14  C   UNL     1      30.253  22.753  28.469  0.00  0.00    +0.000 C 
BRANCH  13  15
ATOM     15  C   UNL     1      31.887  23.749  27.022  0.00  0.00    +0.000 C 
ATOM     16  C   UNL     1      31.469  24.486  28.251  0.00  0.00    +0.000 C 
ENDBRANCH  13  15
ENDBRANCH   4  13
BRANCH   1  17
ATOM     17  O   UNL     1      26.672  23.678  23.691  0.00  0.00    +0.000 OA
BRANCH  17  19
ATOM     18  C   UNL     1      25.954  25.761  24.521  0.00  0.00    +0.000 C 
ATOM     19  C   UNL     1      25.571  24.319  24.278  0.00  0.00    +0.000 C 
ENDBRANCH  17  19
ENDBRANCH   1  17
TORSDOF 5
ENDMDL
MODEL 10
REMARK VINA RESULT:      -5.7     21.700     23.886
REMARK  Name = 
REMARK  5 active torsions:
REMARK  status: ('A' for Active; 'I' for Inactive)
REMARK    1  A    between atoms: C_2  and  O_3
REMARK    2  A    between atoms: O_3  and  C_4
REMARK    3  A    between atoms: C_7  and  C_8
REMARK    4  A    between atoms: C_8  and  C_10
REMARK    5  A    between atoms: C_13  and  C_14
REMARK                            x       y       z     vdW  Elec       q    Type
REMARK                         _______ _______ _______ _____ _____    ______ ____
ROOT
ATOM      1  C   UNL     1      34.623  -3.797  34.983  0.00  0.00    +0.000 A 
ATOM      2  C   UNL     1      35.124  -5.079  34.871  0.00  0.00    +0.000 A 
ATOM      3  C   UNL     1      34.828  -5.846  33.768  0.00  0.00    +0.000 A 
ATOM      4  C   UNL     1      34.035  -5.332  32.787  0.00  0.00    +0.000 A 
ATOM      5  C   UNL     1      33.535  -4.108  32.855  0.00  0.00    +0.000 A 
ATOM      6  C   UNL     1      33.827  -3.332  33.956  0.00  0.00    +0.000 A 
ENDROOT
BRANCH   6   7
ATOM      7  C   UNL     1      33.308  -1.969  34.100  0.00  0.00    +0.000 A 
ATOM      8  C   UNL     1      33.832  -0.819  33.558  0.00  0.00    +0.000 A 
ATOM      9  C   UNL     1      33.028   0.212  33.949  0.00  0.00    +0.000 A 
ATOM     10  N   UNL     1      33.258   1.567  33.580  0.00  0.00    +0.000 NA
ATOM     11  O   UNL     1      32.079  -0.302  34.682  0.00  0.00    +0.000 OA
ATOM     12  N   UNL     1      32.216  -1.581  34.789  0.00  0.00    +0.000 NA
ENDBRANCH   6   7
BRANCH   4  13
ATOM     13  C   UNL     1      33.733  -6.286  31.532  0.00  0.00    +0.000 C 
ATOM     14  C   UNL     1      35.321  -6.377  31.078  0.00  0.00    +0.000 C 
BRANCH  13  15
ATOM     15  C   UNL     1      33.404  -5.077  30.450  0.00  0.00    +0.000 C 
ATOM     16  C   UNL     1      34.069  -5.515  29.186  0.00  0.00    +0.000 C 
ENDBRANCH  13  15
ENDBRANCH   4  13
BRANCH   1  17
ATOM     17  O   UNL     1      34.915  -3.007  36.095  0.00  0.00    +0.000 OA
BRANCH  17  19
ATOM     18  C   UNL     1      33.547  -3.689  37.887  0.00  0.00    +0.000 C 
ATOM     19  C   UNL     1      34.959  -3.634  37.349  0.00  0.00    +0.000 C 
ENDBRANCH  17  19
ENDBRANCH   1  17
TORSDOF 5
ENDMDL
