MODEL 1
REMARK VINA RESULT:      -7.7      0.000      0.000
REMARK  Name = 
REMARK  1 active torsions:
REMARK  status: ('A' for Active; 'I' for Inactive)
REMARK    1  A    between atoms: C_19  and  C_20
REMARK                            x       y       z     vdW  Elec       q    Type
REMARK                         _______ _______ _______ _____ _____    ______ ____
ROOT
ATOM      1  C   UNL     1      26.202  24.730  29.294  0.00  0.00    +0.000 C 
ATOM      2  C   UNL     1      26.839  23.725  28.376  0.00  0.00    +0.000 C 
ATOM      3  C   UNL     1      26.068  23.610  27.195  0.00  0.00    +0.000 C 
ATOM      4  C   UNL     1      26.525  23.126  25.932  0.00  0.00    +0.000 C 
ATOM      5  C   UNL     1      28.131  23.097  25.989  0.00  0.00    +0.000 C 
ATOM      6  C   UNL     1      28.361  23.486  24.499  0.00  0.00    +0.000 A 
ATOM      7  C   UNL     1      27.467  23.432  23.515  0.00  0.00    +0.000 A 
ATOM      8  C   UNL     1      27.866  23.807  22.246  0.00  0.00    +0.000 A 
ATOM      9  C   UNL     1      29.159  24.226  22.009  0.00  0.00    +0.000 A 
ATOM     10  O   UNL     1      29.613  24.614  20.751  0.00  0.00    +0.000 OA
ATOM     11  C   UNL     1      30.097  24.282  23.049  0.00  0.00    +0.000 A 
ATOM     12  C   UNL     1      29.643  23.900  24.274  0.00  0.00    +0.000 A 
ATOM     13  C   UNL     1      30.486  23.901  25.514  0.00  0.00    +0.000 C 
ATOM     14  C   UNL     1      29.895  24.731  26.571  0.00  0.00    +0.000 C 
ATOM     15  C   UNL     1      28.279  24.645  26.557  0.00  0.00    +0.000 C 
ATOM     16  C   UNL     1      28.282  24.366  28.214  0.00  0.00    +0.000 C 
ATOM     17  C   UNL     1      29.156  23.015  28.249  0.00  0.00    +0.000 C 
ATOM     18  C   UNL     1      28.622  22.668  29.621  0.00  0.00    +0.000 C 
ATOM     19  C   UNL     1      27.124  22.328  29.091  0.00  0.00    +0.000 C 
ENDROOT
BRANCH  19  20
ATOM     20  C   UNL     1      26.447  22.628  30.530  0.00  0.00    +0.000 C 
ATOM     21  O   UNL     1      25.771  21.489  30.906  0.00  0.00    +0.000 OA
ENDBRANCH  19  20
TORSDOF 1
ENDMDL
MODEL 2
REMARK VINA RESULT:      -7.2     30.971     32.561
REMARK  Name = 
REMARK  1 active torsions:
REMARK  status: ('A' for Active; 'I' for Inactive)
REMARK    1  A    between atoms: C_19  and  C_20
REMARK                            x       y       z     vdW  Elec       q    Type
REMARK                         _______ _______ _______ _____ _____    ______ ____
ROOT
ATOM      1  C   UNL     1      23.704  -8.410  21.518  0.00  0.00    +0.000 C 
ATOM      2  C   UNL     1      23.581  -8.020  22.964  0.00  0.00    +0.000 C 
ATOM      3  C   UNL     1      22.976  -6.745  23.060  0.00  0.00    +0.000 C 
ATOM      4  C   UNL     1      22.298  -6.215  24.199  0.00  0.00    +0.000 C 
ATOM      5  C   UNL     1      22.017  -7.443  25.196  0.00  0.00    +0.000 C 
ATOM      6  C   UNL     1      20.643  -6.928  25.717  0.00  0.00    +0.000 A 
ATOM      7  C   UNL     1      20.164  -5.691  25.612  0.00  0.00    +0.000 A 
ATOM      8  C   UNL     1      18.922  -5.421  26.155  0.00  0.00    +0.000 A 
ATOM      9  C   UNL     1      18.199  -6.411  26.788  0.00  0.00    +0.000 A 
ATOM     10  O   UNL     1      16.945  -6.193  27.351  0.00  0.00    +0.000 OA
ATOM     11  C   UNL     1      18.707  -7.713  26.896  0.00  0.00    +0.000 A 
ATOM     12  C   UNL     1      19.935  -7.915  26.342  0.00  0.00    +0.000 A 
ATOM     13  C   UNL     1      20.642  -9.237  26.342  0.00  0.00    +0.000 C 
ATOM     14  C   UNL     1      20.972  -9.676  24.980  0.00  0.00    +0.000 C 
ATOM     15  C   UNL     1      21.362  -8.423  24.033  0.00  0.00    +0.000 C 
ATOM     16  C   UNL     1      22.732  -9.244  23.514  0.00  0.00    +0.000 C 
ATOM     17  C   UNL     1      23.471  -9.438  24.931  0.00  0.00    +0.000 C 
ATOM     18  C   UNL     1      24.797  -9.675  24.242  0.00  0.00    +0.000 C 
ATOM     19  C   UNL     1      24.962  -8.133  23.755  0.00  0.00    +0.000 C 
ENDROOT
BRANCH  19  20
ATOM     20  C   UNL     1      25.936  -8.530  22.524  0.00  0.00    +0.000 C 
ATOM     21  O   UNL     1      27.030  -7.696  22.588  0.00  0.00    +0.000 OA
ENDBRANCH  19  20
TORSDOF 1
ENDMDL
MODEL 3
REMARK VINA RESULT:      -7.0      2.090      5.914
REMARK  Name = 
REMARK  1 active torsions:
REMARK  status: ('A' for Active; 'I' for Inactive)
REMARK    1  A    between atoms: C_19  and  C_20
REMARK                            x       y       z     vdW  Elec       q    Type
REMARK                         _______ _______ _______ _____ _____    ______ ____
ROOT
ATOM      1  C   UNL     1      28.041  25.445  23.237  0.00  0.00    +0.000 C 
ATOM      2  C   UNL     1      28.054  24.150  23.999  0.00  0.00    +0.000 C 
ATOM      3  C   UNL     1      29.389  23.705  24.150  0.00  0.00    +0.000 C 
ATOM      4  C   UNL     1      29.869  22.799  25.144  0.00  0.00    +0.000 C 
ATOM      5  C   UNL     1      28.726  22.678  26.267  0.00  0.00    +0.000 C 
ATOM      6  C   UNL     1      29.694  22.534  27.479  0.00  0.00    +0.000 A 
ATOM      7  C   UNL     1      30.986  22.220  27.433  0.00  0.00    +0.000 A 
ATOM      8  C   UNL     1      31.678  22.125  28.625  0.00  0.00    +0.000 A 
ATOM      9  C   UNL     1      31.044  22.349  29.830  0.00  0.00    +0.000 A 
ATOM     10  O   UNL     1      31.695  22.265  31.058  0.00  0.00    +0.000 OA
ATOM     11  C   UNL     1      29.683  22.680  29.872  0.00  0.00    +0.000 A 
ATOM     12  C   UNL     1      29.056  22.758  28.665  0.00  0.00    +0.000 A 
ATOM     13  C   UNL     1      27.608  23.111  28.499  0.00  0.00    +0.000 C 
ATOM     14  C   UNL     1      27.432  24.284  27.633  0.00  0.00    +0.000 C 
ATOM     15  C   UNL     1      28.529  24.312  26.444  0.00  0.00    +0.000 C 
ATOM     16  C   UNL     1      27.307  24.598  25.327  0.00  0.00    +0.000 C 
ATOM     17  C   UNL     1      26.421  23.276  25.567  0.00  0.00    +0.000 C 
ATOM     18  C   UNL     1      25.753  23.443  24.220  0.00  0.00    +0.000 C 
ATOM     19  C   UNL     1      27.082  23.052  23.371  0.00  0.00    +0.000 C 
ENDROOT
BRANCH  19  20
ATOM     20  C   UNL     1      26.592  23.860  22.056  0.00  0.00    +0.000 C 
ATOM     21  O   UNL     1      25.680  23.059  21.406  0.00  0.00    +0.000 OA
ENDBRANCH  19  20
TORSDOF 1
ENDMDL
MODEL 4
REMARK VINA RESULT:      -6.9     20.900     22.265
REMARK  Name = 
REMARK  1 active torsions:
REMARK  status: ('A' for Active; 'I' for Inactive)
REMARK    1  A    between atoms: C_19  and  C_20
REMARK                            x       y       z     vdW  Elec       q    Type
REMARK                         _______ _______ _______ _____ _____    ______ ____
ROOT
ATOM      1  C   UNL     1      23.896   0.619  17.771  0.00  0.00    +0.000 C 
ATOM      2  C   UNL     1      23.805   2.112  17.624  0.00  0.00    +0.000 C 
ATOM      3  C   UNL     1      24.510   2.734  18.682  0.00  0.00    +0.000 C 
ATOM      4  C   UNL     1      25.031   4.063  18.682  0.00  0.00    +0.000 C 
ATOM      5  C   UNL     1      25.010   4.581  17.161  0.00  0.00    +0.000 C 
ATOM      6  C   UNL     1      26.319   5.421  17.250  0.00  0.00    +0.000 A 
ATOM      7  C   UNL     1      26.930   5.828  18.359  0.00  0.00    +0.000 A 
ATOM      8  C   UNL     1      28.081   6.583  18.233  0.00  0.00    +0.000 A 
ATOM      9  C   UNL     1      28.580   6.906  16.988  0.00  0.00    +0.000 A 
ATOM     10  O   UNL     1      29.734   7.663  16.806  0.00  0.00    +0.000 OA
ATOM     11  C   UNL     1      27.932   6.475  15.823  0.00  0.00    +0.000 A 
ATOM     12  C   UNL     1      26.804   5.735  16.013  0.00  0.00    +0.000 A 
ATOM     13  C   UNL     1      25.978   5.171  14.896  0.00  0.00    +0.000 C 
ATOM     14  C   UNL     1      25.847   3.713  15.001  0.00  0.00    +0.000 C 
ATOM     15  C   UNL     1      25.754   3.237  16.544  0.00  0.00    +0.000 C 
ATOM     16  C   UNL     1      24.418   2.289  16.170  0.00  0.00    +0.000 C 
ATOM     17  C   UNL     1      23.430   3.437  15.626  0.00  0.00    +0.000 C 
ATOM     18  C   UNL     1      22.226   2.548  15.845  0.00  0.00    +0.000 C 
ATOM     19  C   UNL     1      22.304   2.629  17.466  0.00  0.00    +0.000 C 
ENDROOT
BRANCH  19  20
ATOM     20  C   UNL     1      21.523   1.225  17.666  0.00  0.00    +0.000 C 
ATOM     21  O   UNL     1      20.177   1.511  17.695  0.00  0.00    +0.000 OA
ENDBRANCH  19  20
TORSDOF 1
ENDMDL
MODEL 5
REMARK VINA RESULT:      -6.8      1.266      1.465
REMARK  Name = 
REMARK  1 active torsions:
REMARK  status: ('A' for Active; 'I' for Inactive)
REMARK    1  A    between atoms: C_19  and  C_20
REMARK                            x       y       z     vdW  Elec       q    Type
REMARK                         _______ _______ _______ _____ _____    ______ ____
ROOT
ATOM      1  C   UNL     1      27.775  25.457  29.319  0.00  0.00    +0.000 C 
ATOM      2  C   UNL     1      27.302  24.690  28.116  0.00  0.00    +0.000 C 
ATOM      3  C   UNL     1      26.770  25.590  27.163  0.00  0.00    +0.000 C 
ATOM      4  C   UNL     1      26.625  25.349  25.763  0.00  0.00    +0.000 C 
ATOM      5  C   UNL     1      27.508  24.053  25.412  0.00  0.00    +0.000 C 
ATOM      6  C   UNL     1      27.956  24.530  23.999  0.00  0.00    +0.000 A 
ATOM      7  C   UNL     1      27.404  25.500  23.274  0.00  0.00    +0.000 A 
ATOM      8  C   UNL     1      27.936  25.769  22.028  0.00  0.00    +0.000 A 
ATOM      9  C   UNL     1      29.011  25.049  21.549  0.00  0.00    +0.000 A 
ATOM     10  O   UNL     1      29.585  25.279  20.302  0.00  0.00    +0.000 OA
ATOM     11  C   UNL     1      29.589  24.029  22.316  0.00  0.00    +0.000 A 
ATOM     12  C   UNL     1      29.020  23.811  23.534  0.00  0.00    +0.000 A 
ATOM     13  C   UNL     1      29.500  22.776  24.507  0.00  0.00    +0.000 C 
ATOM     14  C   UNL     1      29.854  23.370  25.802  0.00  0.00    +0.000 C 
ATOM     15  C   UNL     1      28.871  24.599  26.177  0.00  0.00    +0.000 C 
ATOM     16  C   UNL     1      28.646  23.949  27.710  0.00  0.00    +0.000 C 
ATOM     17  C   UNL     1      28.024  22.523  27.298  0.00  0.00    +0.000 C 
ATOM     18  C   UNL     1      27.440  22.343  28.682  0.00  0.00    +0.000 C 
ATOM     19  C   UNL     1      26.312  23.498  28.492  0.00  0.00    +0.000 C 
ENDROOT
BRANCH  19  20
ATOM     20  C   UNL     1      26.181  23.760  30.085  0.00  0.00    +0.000 C 
ATOM     21  O   UNL     1      25.988  22.534  30.682  0.00  0.00    +0.000 OA
ENDBRANCH  19  20
TORSDOF 1
ENDMDL
MODEL 6
REMARK VINA RESULT:      -6.8      2.285      3.223
REMARK  Name = 
REMARK  1 active torsions:
REMARK  status: ('A' for Active; 'I' for Inactive)
REMARK    1  A    between atoms: C_19  and  C_20
REMARK                            x       y       z     vdW  Elec       q    Type
REMARK                         _______ _______ _______ _____ _____    ______ ____
ROOT
ATOM      1  C   UNL     1      30.697  24.482  30.621  0.00  0.00    +0.000 C 
ATOM      2  C   UNL     1      30.327  23.341  29.715  0.00  0.00    +0.000 C 
ATOM      3  C   UNL     1      28.934  23.368  29.469  0.00  0.00    +0.000 C 
ATOM      4  C   UNL     1      28.261  22.767  28.362  0.00  0.00    +0.000 C 
ATOM      5  C   UNL     1      29.380  22.394  27.272  0.00  0.00    +0.000 C 
ATOM      6  C   UNL     1      28.503  22.690  26.019  0.00  0.00    +0.000 A 
ATOM      7  C   UNL     1      27.178  22.807  25.985  0.00  0.00    +0.000 A 
ATOM      8  C   UNL     1      26.575  23.057  24.767  0.00  0.00    +0.000 A 
ATOM      9  C   UNL     1      27.329  23.181  23.619  0.00  0.00    +0.000 A 
ATOM     10  O   UNL     1      26.772  23.433  22.368  0.00  0.00    +0.000 OA
ATOM     11  C   UNL     1      28.724  23.058  23.660  0.00  0.00    +0.000 A 
ATOM     12  C   UNL     1      29.259  22.812  24.889  0.00  0.00    +0.000 A 
ATOM     13  C   UNL     1      30.729  22.660  25.144  0.00  0.00    +0.000 C 
ATOM     14  C   UNL     1      31.208  23.622  26.143  0.00  0.00    +0.000 C 
ATOM     15  C   UNL     1      30.097  23.886  27.290  0.00  0.00    +0.000 C 
ATOM     16  C   UNL     1      31.267  23.652  28.474  0.00  0.00    +0.000 C 
ATOM     17  C   UNL     1      31.703  22.146  28.113  0.00  0.00    +0.000 C 
ATOM     18  C   UNL     1      32.295  21.954  29.492  0.00  0.00    +0.000 C 
ATOM     19  C   UNL     1      30.855  21.933  30.245  0.00  0.00    +0.000 C 
ENDROOT
BRANCH  19  20
ATOM     20  C   UNL     1      31.484  22.406  31.660  0.00  0.00    +0.000 C 
ATOM     21  O   UNL     1      31.071  21.499  32.610  0.00  0.00    +0.000 OA
ENDBRANCH  19  20
TORSDOF 1
ENDMDL
MODEL 7
REMARK VINA RESULT:      -6.7      1.554      6.545
REMARK  Name = 
REMARK  1 active torsions:
REMARK  status: ('A' for Active; 'I' for Inactive)
REMARK    1  A    between atoms: C_19  and  C_20
REMARK                            x       y       z     vdW  Elec       q    Type
REMARK                         _______ _______ _______ _____ _____    ______ ____
ROOT
ATOM      1  C   UNL     1      27.166  26.474  22.104  0.00  0.00    +0.000 C 
ATOM      2  C   UNL     1      27.970  25.825  23.196  0.00  0.00    +0.000 C 
ATOM      3  C   UNL     1      28.036  26.692  24.312  0.00  0.00    +0.000 C 
ATOM      4  C   UNL     1      28.306  26.312  25.661  0.00  0.00    +0.000 C 
ATOM      5  C   UNL     1      28.145  24.715  25.745  0.00  0.00    +0.000 C 
ATOM      6  C   UNL     1      27.555  24.679  27.186  0.00  0.00    +0.000 A 
ATOM      7  C   UNL     1      27.600  25.655  28.089  0.00  0.00    +0.000 A 
ATOM      8  C   UNL     1      27.030  25.428  29.327  0.00  0.00    +0.000 A 
ATOM      9  C   UNL     1      26.431  24.219  29.617  0.00  0.00    +0.000 A 
ATOM     10  O   UNL     1      25.843  23.938  30.847  0.00  0.00    +0.000 OA
ATOM     11  C   UNL     1      26.386  23.194  28.662  0.00  0.00    +0.000 A 
ATOM     12  C   UNL     1      26.965  23.479  27.463  0.00  0.00    +0.000 A 
ATOM     13  C   UNL     1      27.009  22.522  26.309  0.00  0.00    +0.000 C 
ATOM     14  C   UNL     1      26.390  23.092  25.107  0.00  0.00    +0.000 C 
ATOM     15  C   UNL     1      26.670  24.682  24.995  0.00  0.00    +0.000 C 
ATOM     16  C   UNL     1      27.143  24.484  23.395  0.00  0.00    +0.000 C 
ATOM     17  C   UNL     1      28.372  23.468  23.611  0.00  0.00    +0.000 C 
ATOM     18  C   UNL     1      28.943  23.821  22.255  0.00  0.00    +0.000 C 
ATOM     19  C   UNL     1      29.397  25.317  22.696  0.00  0.00    +0.000 C 
ENDROOT
BRANCH  19  20
ATOM     20  C   UNL     1      29.356  25.877  21.178  0.00  0.00    +0.000 C 
ATOM     21  O   UNL     1      29.735  24.841  20.354  0.00  0.00    +0.000 OA
ENDBRANCH  19  20
TORSDOF 1
ENDMDL
MODEL 8
REMARK VINA RESULT:      -6.4     20.742     22.435
REMARK  Name = 
REMARK  1 active torsions:
REMARK  status: ('A' for Active; 'I' for Inactive)
REMARK    1  A    between atoms: C_19  and  C_20
REMARK                            x       y       z     vdW  Elec       q    Type
REMARK                         _______ _______ _______ _____ _____    ______ ____
ROOT
ATOM      1  C   UNL     1      29.086   4.326  16.208  0.00  0.00    +0.000 C 
ATOM      2  C   UNL     1      27.686   4.852  16.062  0.00  0.00    +0.000 C 
ATOM      3  C   UNL     1      27.000   4.101  15.077  0.00  0.00    +0.000 C 
ATOM      4  C   UNL     1      25.584   3.977  14.945  0.00  0.00    +0.000 C 
ATOM      5  C   UNL     1      24.932   4.516  16.311  0.00  0.00    +0.000 C 
ATOM      6  C   UNL     1      23.747   3.506  16.344  0.00  0.00    +0.000 A 
ATOM      7  C   UNL     1      23.299   2.771  15.329  0.00  0.00    +0.000 A 
ATOM      8  C   UNL     1      22.219   1.937  15.551  0.00  0.00    +0.000 A 
ATOM      9  C   UNL     1      21.623   1.871  16.793  0.00  0.00    +0.000 A 
ATOM     10  O   UNL     1      20.534   1.050  17.070  0.00  0.00    +0.000 OA
ATOM     11  C   UNL     1      22.099   2.647  17.859  0.00  0.00    +0.000 A 
ATOM     12  C   UNL     1      23.164   3.448  17.577  0.00  0.00    +0.000 A 
ATOM     13  C   UNL     1      23.825   4.341  18.583  0.00  0.00    +0.000 C 
ATOM     14  C   UNL     1      25.256   4.042  18.718  0.00  0.00    +0.000 C 
ATOM     15  C   UNL     1      25.906   3.614  17.299  0.00  0.00    +0.000 C 
ATOM     16  C   UNL     1      27.169   4.692  17.554  0.00  0.00    +0.000 C 
ATOM     17  C   UNL     1      26.325   6.058  17.669  0.00  0.00    +0.000 C 
ATOM     18  C   UNL     1      27.559   6.881  17.370  0.00  0.00    +0.000 C 
ATOM     19  C   UNL     1      27.639   6.426  15.812  0.00  0.00    +0.000 C 
ENDROOT
BRANCH  19  20
ATOM     20  C   UNL     1      29.227   6.722  15.712  0.00  0.00    +0.000 C 
ATOM     21  O   UNL     1      29.526   7.659  16.676  0.00  0.00    +0.000 OA
ENDBRANCH  19  20
TORSDOF 1
ENDMDL
MODEL 9
REMARK VINA RESULT:      -6.1     15.744     17.463
REMARK  Name = 
REMARK  1 active torsions:
REMARK  status: ('A' for Active; 'I' for Inactive)
REMARK    1  A    between atoms: C_19  and  C_20
REMARK                            x       y       z     vdW  Elec       q    Type
REMARK                         _______ _______ _______ _____ _____    ______ ____
ROOT
ATOM      1  C   UNL     1      11.223  27.172  21.522  0.00  0.00    +0.000 C 
ATOM      2  C   UNL     1      11.678  25.873  22.127  0.00  0.00    +0.000 C 
ATOM      3  C   UNL     1      10.550  25.090  22.468  0.00  0.00    +0.000 C 
ATOM      4  C   UNL     1      10.528  23.674  22.647  0.00  0.00    +0.000 C 
ATOM      5  C   UNL     1      11.896  23.098  22.032  0.00  0.00    +0.000 C 
ATOM      6  C   UNL     1      11.293  21.768  21.490  0.00  0.00    +0.000 A 
ATOM      7  C   UNL     1      10.130  21.223  21.837  0.00  0.00    +0.000 A 
ATOM      8  C   UNL     1       9.770  20.023  21.254  0.00  0.00    +0.000 A 
ATOM      9  C   UNL     1      10.598  19.408  20.337  0.00  0.00    +0.000 A 
ATOM     10  O   UNL     1      10.284  18.199  19.722  0.00  0.00    +0.000 OA
ATOM     11  C   UNL     1      11.821  19.987  19.975  0.00  0.00    +0.000 A 
ATOM     12  C   UNL     1      12.119  21.168  20.584  0.00  0.00    +0.000 A 
ATOM     13  C   UNL     1      13.372  21.950  20.321  0.00  0.00    +0.000 C 
ATOM     14  C   UNL     1      13.075  23.314  19.867  0.00  0.00    +0.000 C 
ATOM     15  C   UNL     1      11.756  23.906  20.594  0.00  0.00    +0.000 C 
ATOM     16  C   UNL     1      12.590  25.320  20.952  0.00  0.00    +0.000 C 
ATOM     17  C   UNL     1      13.782  24.700  21.837  0.00  0.00    +0.000 C 
ATOM     18  C   UNL     1      14.067  26.052  22.455  0.00  0.00    +0.000 C 
ATOM     19  C   UNL     1      12.701  26.078  23.334  0.00  0.00    +0.000 C 
ENDROOT
BRANCH  19  20
ATOM     20  C   UNL     1      12.680  27.695  23.422  0.00  0.00    +0.000 C 
ATOM     21  O   UNL     1      12.427  28.026  24.734  0.00  0.00    +0.000 OA
ENDBRANCH  19  20
TORSDOF 1
ENDMDL
MODEL 10
REMARK VINA RESULT:      -6.1     17.499     20.853
REMARK  Name = 
REMARK  1 active torsions:
REMARK  status: ('A' for Active; 'I' for Inactive)
REMARK    1  A    between atoms: C_19  and  C_20
REMARK                            x       y       z     vdW  Elec       q    Type
REMARK                         _______ _______ _______ _____ _____    ______ ____
ROOT
ATOM      1  C   UNL     1      23.745  12.039  38.376  0.00  0.00    +0.000 C 
ATOM      2  C   UNL     1      22.935  10.775  38.462  0.00  0.00    +0.000 C 
ATOM      3  C   UNL     1      22.710  10.451  39.821  0.00  0.00    +0.000 C 
ATOM      4  C   UNL     1      21.664   9.623  40.329  0.00  0.00    +0.000 C 
ATOM      5  C   UNL     1      20.588   9.441  39.149  0.00  0.00    +0.000 C 
ATOM      6  C   UNL     1      19.331   9.420  40.068  0.00  0.00    +0.000 A 
ATOM      7  C   UNL     1      19.308   9.217  41.382  0.00  0.00    +0.000 A 
ATOM      8  C   UNL     1      18.085   9.220  42.024  0.00  0.00    +0.000 A 
ATOM      9  C   UNL     1      16.918   9.429  41.318  0.00  0.00    +0.000 A 
ATOM     10  O   UNL     1      15.660   9.442  41.915  0.00  0.00    +0.000 OA
ATOM     11  C   UNL     1      16.947   9.643  39.933  0.00  0.00    +0.000 A 
ATOM     12  C   UNL     1      18.182   9.628  39.359  0.00  0.00    +0.000 A 
ATOM     13  C   UNL     1      18.424   9.850  37.896  0.00  0.00    +0.000 C 
ATOM     14  C   UNL     1      19.339  10.975  37.662  0.00  0.00    +0.000 C 
ATOM     15  C   UNL     1      20.479  11.057  38.807  0.00  0.00    +0.000 C 
ATOM     16  C   UNL     1      21.659  11.201  37.619  0.00  0.00    +0.000 C 
ATOM     17  C   UNL     1      21.409   9.817  36.837  0.00  0.00    +0.000 C 
ATOM     18  C   UNL     1      22.789   9.882  36.220  0.00  0.00    +0.000 C 
ATOM     19  C   UNL     1      23.564   9.578  37.616  0.00  0.00    +0.000 C 
ENDROOT
BRANCH  19  20
ATOM     20  C   UNL     1      24.928  10.297  37.121  0.00  0.00    +0.000 C 
ATOM     21  O   UNL     1      24.916  10.285  35.744  0.00  0.00    +0.000 OA
ENDBRANCH  19  20
TORSDOF 1
ENDMDL
