MODEL 1
REMARK VINA RESULT:      -7.5      0.000      0.000
REMARK  Name = 
REMARK  3 active torsions:
REMARK  status: ('A' for Active; 'I' for Inactive)
REMARK    1  A    between atoms: C_2  and  C_4
REMARK    2  A    between atoms: C_2  and  C_13
REMARK    3  A    between atoms: N_6  and  N_7
REMARK                            x       y       z     vdW  Elec       q    Type
REMARK                         _______ _______ _______ _____ _____    ______ ____
ROOT
ATOM      1  C   UNL     1      14.394  11.408  30.802  0.00  0.00    +0.000 C 
ATOM      2  C   UNL     1      15.304  12.083  31.803  0.00  0.00    +0.000 C 
ATOM      3  O   UNL     1      16.340  12.701  31.077  0.00  0.00    +0.000 OA
ENDROOT
BRANCH   2   4
ATOM      4  C   UNL     1      14.554  13.097  32.568  0.00  0.00    +0.000 A 
ATOM      5  C   UNL     1      14.398  12.930  33.933  0.00  0.00    +0.000 A 
ATOM      6  C   UNL     1      13.705  13.846  34.710  0.00  0.00    +0.000 A 
ATOM      7  C   UNL     1      13.144  14.966  34.132  0.00  0.00    +0.000 A 
ATOM      8  C   UNL     1      13.300  15.131  32.772  0.00  0.00    +0.000 A 
ATOM      9  C   UNL     1      13.997  14.209  31.991  0.00  0.00    +0.000 A 
ENDBRANCH   2   4
BRANCH   2  10
ATOM     10  C   UNL     1      15.912  11.040  32.670  0.00  0.00    +0.000 C 
ATOM     11  O   UNL     1      15.339   9.923  32.760  0.00  0.00    +0.000 OA
ATOM     12  N   UNL     1      17.110  11.236  33.407  0.00  0.00    +0.000 NA
BRANCH  12  13
ATOM     13  N   UNL     1      17.681  10.254  34.224  0.00  0.00    +0.000 NA
ATOM     14  C   UNL     1      17.425  10.160  35.467  0.00  0.00    +0.000 C 
ATOM     15  C   UNL     1      17.977   9.160  36.398  0.00  0.00    +0.000 C 
ATOM     16  C   UNL     1      18.098   9.907  37.687  0.00  0.00    +0.000 C 
ATOM     17  C   UNL     1      17.259  11.155  37.561  0.00  0.00    +0.000 C 
ATOM     18  C   UNL     1      16.520  11.029  36.240  0.00  0.00    +0.000 C 
ENDBRANCH  12  13
ENDBRANCH   2  10
TORSDOF 3
ENDMDL
MODEL 2
REMARK VINA RESULT:      -6.3     28.316     29.824
REMARK  Name = 
REMARK  3 active torsions:
REMARK  status: ('A' for Active; 'I' for Inactive)
REMARK    1  A    between atoms: C_2  and  C_4
REMARK    2  A    between atoms: C_2  and  C_13
REMARK    3  A    between atoms: N_6  and  N_7
REMARK                            x       y       z     vdW  Elec       q    Type
REMARK                         _______ _______ _______ _____ _____    ______ ____
ROOT
ATOM      1  C   UNL     1      30.956  20.402  12.188  0.00  0.00    +0.000 C 
ATOM      2  C   UNL     1      30.316  21.382  11.233  0.00  0.00    +0.000 C 
ATOM      3  O   UNL     1      29.628  20.631  10.260  0.00  0.00    +0.000 OA
ENDROOT
BRANCH   2   4
ATOM      4  C   UNL     1      29.367  22.251  11.956  0.00  0.00    +0.000 A 
ATOM      5  C   UNL     1      29.787  22.892  13.108  0.00  0.00    +0.000 A 
ATOM      6  C   UNL     1      28.946  23.722  13.836  0.00  0.00    +0.000 A 
ATOM      7  C   UNL     1      27.647  23.933  13.420  0.00  0.00    +0.000 A 
ATOM      8  C   UNL     1      27.230  23.293  12.273  0.00  0.00    +0.000 A 
ATOM      9  C   UNL     1      28.077  22.459  11.542  0.00  0.00    +0.000 A 
ENDBRANCH   2   4
BRANCH   2  10
ATOM     10  C   UNL     1      31.389  22.148  10.547  0.00  0.00    +0.000 C 
ATOM     11  O   UNL     1      31.132  22.684   9.438  0.00  0.00    +0.000 OA
ATOM     12  N   UNL     1      32.697  22.309  11.078  0.00  0.00    +0.000 NA
BRANCH  12  13
ATOM     13  N   UNL     1      33.707  23.029  10.432  0.00  0.00    +0.000 NA
ATOM     14  C   UNL     1      34.902  22.602  10.335  0.00  0.00    +0.000 C 
ATOM     15  C   UNL     1      36.023  23.292   9.673  0.00  0.00    +0.000 C 
ATOM     16  C   UNL     1      37.209  22.910  10.498  0.00  0.00    +0.000 C 
ATOM     17  C   UNL     1      36.804  21.724  11.341  0.00  0.00    +0.000 C 
ATOM     18  C   UNL     1      35.418  21.328  10.863  0.00  0.00    +0.000 C 
ENDBRANCH  12  13
ENDBRANCH   2  10
TORSDOF 3
ENDMDL
MODEL 3
REMARK VINA RESULT:      -6.0     28.103     29.952
REMARK  Name = 
REMARK  3 active torsions:
REMARK  status: ('A' for Active; 'I' for Inactive)
REMARK    1  A    between atoms: C_2  and  C_4
REMARK    2  A    between atoms: C_2  and  C_13
REMARK    3  A    between atoms: N_6  and  N_7
REMARK                            x       y       z     vdW  Elec       q    Type
REMARK                         _______ _______ _______ _____ _____    ______ ____
ROOT
ATOM      1  C   UNL     1      33.205  20.546  11.880  0.00  0.00    +0.000 C 
ATOM      2  C   UNL     1      32.465  21.252  10.767  0.00  0.00    +0.000 C 
ATOM      3  O   UNL     1      32.759  22.625  10.873  0.00  0.00    +0.000 OA
ENDROOT
BRANCH   2   4
ATOM      4  C   UNL     1      32.914  20.744   9.457  0.00  0.00    +0.000 A 
ATOM      5  C   UNL     1      32.387  21.298   8.304  0.00  0.00    +0.000 A 
ATOM      6  C   UNL     1      32.767  20.867   7.041  0.00  0.00    +0.000 A 
ATOM      7  C   UNL     1      33.697  19.857   6.901  0.00  0.00    +0.000 A 
ATOM      8  C   UNL     1      34.221  19.305   8.050  0.00  0.00    +0.000 A 
ATOM      9  C   UNL     1      33.838  19.740   9.320  0.00  0.00    +0.000 A 
ENDBRANCH   2   4
BRANCH   2  10
ATOM     10  C   UNL     1      31.005  21.078  10.982  0.00  0.00    +0.000 C 
ATOM     11  O   UNL     1      30.582  19.956  11.364  0.00  0.00    +0.000 OA
ATOM     12  N   UNL     1      30.055  22.114  10.778  0.00  0.00    +0.000 NA
BRANCH  12  13
ATOM     13  N   UNL     1      28.680  21.949  10.980  0.00  0.00    +0.000 NA
ATOM     14  C   UNL     1      27.999  22.714  11.736  0.00  0.00    +0.000 C 
ATOM     15  C   UNL     1      26.554  22.613  12.003  0.00  0.00    +0.000 C 
ATOM     16  C   UNL     1      26.426  23.058  13.425  0.00  0.00    +0.000 C 
ATOM     17  C   UNL     1      27.710  23.763  13.789  0.00  0.00    +0.000 C 
ATOM     18  C   UNL     1      28.511  23.863  12.503  0.00  0.00    +0.000 C 
ENDBRANCH  12  13
ENDBRANCH   2  10
TORSDOF 3
ENDMDL
MODEL 4
REMARK VINA RESULT:      -6.0     28.662     30.371
REMARK  Name = 
REMARK  3 active torsions:
REMARK  status: ('A' for Active; 'I' for Inactive)
REMARK    1  A    between atoms: C_2  and  C_4
REMARK    2  A    between atoms: C_2  and  C_13
REMARK    3  A    between atoms: N_6  and  N_7
REMARK                            x       y       z     vdW  Elec       q    Type
REMARK                         _______ _______ _______ _____ _____    ______ ____
ROOT
ATOM      1  C   UNL     1      31.234  20.668  12.458  0.00  0.00    +0.000 C 
ATOM      2  C   UNL     1      30.420  21.413  11.426  0.00  0.00    +0.000 C 
ATOM      3  O   UNL     1      29.750  20.452  10.646  0.00  0.00    +0.000 OA
ENDROOT
BRANCH   2   4
ATOM      4  C   UNL     1      29.438  22.291  12.091  0.00  0.00    +0.000 A 
ATOM      5  C   UNL     1      28.189  22.458  11.519  0.00  0.00    +0.000 A 
ATOM      6  C   UNL     1      27.220  23.268  12.093  0.00  0.00    +0.000 A 
ATOM      7  C   UNL     1      27.482  23.939  13.270  0.00  0.00    +0.000 A 
ATOM      8  C   UNL     1      28.727  23.772  13.839  0.00  0.00    +0.000 A 
ATOM      9  C   UNL     1      29.700  22.956  13.260  0.00  0.00    +0.000 A 
ENDBRANCH   2   4
BRANCH   2  10
ATOM     10  C   UNL     1      31.348  22.159  10.537  0.00  0.00    +0.000 C 
ATOM     11  O   UNL     1      32.385  22.667  11.039  0.00  0.00    +0.000 OA
ATOM     12  N   UNL     1      31.129  22.331   9.144  0.00  0.00    +0.000 NA
BRANCH  12  13
ATOM     13  N   UNL     1      32.004  23.034   8.308  0.00  0.00    +0.000 NA
ATOM     14  C   UNL     1      32.804  22.454   7.506  0.00  0.00    +0.000 C 
ATOM     15  C   UNL     1      33.754  23.113   6.594  0.00  0.00    +0.000 C 
ATOM     16  C   UNL     1      34.920  22.179   6.562  0.00  0.00    +0.000 C 
ATOM     17  C   UNL     1      34.449  20.858   7.122  0.00  0.00    +0.000 C 
ATOM     18  C   UNL     1      32.950  21.000   7.320  0.00  0.00    +0.000 C 
ENDBRANCH  12  13
ENDBRANCH   2  10
TORSDOF 3
ENDMDL
MODEL 5
REMARK VINA RESULT:      -5.9     18.118     19.199
REMARK  Name = 
REMARK  3 active torsions:
REMARK  status: ('A' for Active; 'I' for Inactive)
REMARK    1  A    between atoms: C_2  and  C_4
REMARK    2  A    between atoms: C_2  and  C_13
REMARK    3  A    between atoms: N_6  and  N_7
REMARK                            x       y       z     vdW  Elec       q    Type
REMARK                         _______ _______ _______ _____ _____    ______ ____
ROOT
ATOM      1  C   UNL     1      27.250  25.374  23.347  0.00  0.00    +0.000 C 
ATOM      2  C   UNL     1      27.473  23.998  23.931  0.00  0.00    +0.000 C 
ATOM      3  O   UNL     1      26.961  23.064  23.010  0.00  0.00    +0.000 OA
ENDROOT
BRANCH   2   4
ATOM      4  C   UNL     1      28.915  23.761  24.135  0.00  0.00    +0.000 A 
ATOM      5  C   UNL     1      29.816  24.750  23.784  0.00  0.00    +0.000 A 
ATOM      6  C   UNL     1      31.184  24.592  23.951  0.00  0.00    +0.000 A 
ATOM      7  C   UNL     1      31.689  23.422  24.480  0.00  0.00    +0.000 A 
ATOM      8  C   UNL     1      30.790  22.436  24.829  0.00  0.00    +0.000 A 
ATOM      9  C   UNL     1      29.415  22.598  24.661  0.00  0.00    +0.000 A 
ENDBRANCH   2   4
BRANCH   2  10
ATOM     10  C   UNL     1      26.687  23.883  25.187  0.00  0.00    +0.000 C 
ATOM     11  O   UNL     1      25.753  23.041  25.237  0.00  0.00    +0.000 OA
ATOM     12  N   UNL     1      26.934  24.675  26.340  0.00  0.00    +0.000 NA
BRANCH  12  13
ATOM     13  N   UNL     1      26.193  24.566  27.522  0.00  0.00    +0.000 NA
ATOM     14  C   UNL     1      26.638  23.981  28.561  0.00  0.00    +0.000 C 
ATOM     15  C   UNL     1      25.929  23.823  29.842  0.00  0.00    +0.000 C 
ATOM     16  C   UNL     1      26.392  22.491  30.340  0.00  0.00    +0.000 C 
ATOM     17  C   UNL     1      27.624  22.122  29.548  0.00  0.00    +0.000 C 
ATOM     18  C   UNL     1      27.957  23.340  28.704  0.00  0.00    +0.000 C 
ENDBRANCH  12  13
ENDBRANCH   2  10
TORSDOF 3
ENDMDL
MODEL 6
REMARK VINA RESULT:      -5.8     27.595     29.470
REMARK  Name = 
REMARK  3 active torsions:
REMARK  status: ('A' for Active; 'I' for Inactive)
REMARK    1  A    between atoms: C_2  and  C_4
REMARK    2  A    between atoms: C_2  and  C_13
REMARK    3  A    between atoms: N_6  and  N_7
REMARK                            x       y       z     vdW  Elec       q    Type
REMARK                         _______ _______ _______ _____ _____    ______ ____
ROOT
ATOM      1  C   UNL     1      31.521  19.629  11.637  0.00  0.00    +0.000 C 
ATOM      2  C   UNL     1      31.825  21.103  11.506  0.00  0.00    +0.000 C 
ATOM      3  O   UNL     1      33.069  21.332  12.124  0.00  0.00    +0.000 OA
ENDROOT
BRANCH   2   4
ATOM      4  C   UNL     1      31.896  21.482  10.082  0.00  0.00    +0.000 A 
ATOM      5  C   UNL     1      32.852  22.396   9.676  0.00  0.00    +0.000 A 
ATOM      6  C   UNL     1      32.973  22.795   8.353  0.00  0.00    +0.000 A 
ATOM      7  C   UNL     1      32.128  22.279   7.391  0.00  0.00    +0.000 A 
ATOM      8  C   UNL     1      31.177  21.368   7.796  0.00  0.00    +0.000 A 
ATOM      9  C   UNL     1      31.056  20.968   9.128  0.00  0.00    +0.000 A 
ENDBRANCH   2   4
BRANCH   2  10
ATOM     10  C   UNL     1      30.793  21.869  12.254  0.00  0.00    +0.000 C 
ATOM     11  O   UNL     1      30.538  21.535  13.440  0.00  0.00    +0.000 OA
ATOM     12  N   UNL     1      30.077  22.963  11.699  0.00  0.00    +0.000 NA
BRANCH  12  13
ATOM     13  N   UNL     1      29.105  23.683  12.404  0.00  0.00    +0.000 NA
ATOM     14  C   UNL     1      27.863  23.415  12.331  0.00  0.00    +0.000 C 
ATOM     15  C   UNL     1      26.778  24.117  13.037  0.00  0.00    +0.000 C 
ATOM     16  C   UNL     1      25.637  24.062  12.072  0.00  0.00    +0.000 C 
ATOM     17  C   UNL     1      25.972  23.010  11.043  0.00  0.00    +0.000 C 
ATOM     18  C   UNL     1      27.248  22.344  11.528  0.00  0.00    +0.000 C 
ENDBRANCH  12  13
ENDBRANCH   2  10
TORSDOF 3
ENDMDL
MODEL 7
REMARK VINA RESULT:      -5.8     20.245     22.197
REMARK  Name = 
REMARK  3 active torsions:
REMARK  status: ('A' for Active; 'I' for Inactive)
REMARK    1  A    between atoms: C_2  and  C_4
REMARK    2  A    between atoms: C_2  and  C_13
REMARK    3  A    between atoms: N_6  and  N_7
REMARK                            x       y       z     vdW  Elec       q    Type
REMARK                         _______ _______ _______ _____ _____    ______ ____
ROOT
ATOM      1  C   UNL     1      18.119 -10.063  26.222  0.00  0.00    +0.000 C 
ATOM      2  C   UNL     1      17.328  -8.797  26.459  0.00  0.00    +0.000 C 
ATOM      3  O   UNL     1      16.816  -8.861  27.769  0.00  0.00    +0.000 OA
ENDROOT
BRANCH   2   4
ATOM      4  C   UNL     1      18.205  -7.618  26.322  0.00  0.00    +0.000 A 
ATOM      5  C   UNL     1      17.786  -6.404  26.836  0.00  0.00    +0.000 A 
ATOM      6  C   UNL     1      18.562  -5.258  26.741  0.00  0.00    +0.000 A 
ATOM      7  C   UNL     1      19.794  -5.302  26.121  0.00  0.00    +0.000 A 
ATOM      8  C   UNL     1      20.211  -6.512  25.609  0.00  0.00    +0.000 A 
ATOM      9  C   UNL     1      19.429  -7.663  25.705  0.00  0.00    +0.000 A 
ENDBRANCH   2   4
BRANCH   2  10
ATOM     10  C   UNL     1      16.179  -8.771  25.517  0.00  0.00    +0.000 C 
ATOM     11  O   UNL     1      16.342  -9.228  24.356  0.00  0.00    +0.000 OA
ATOM     12  N   UNL     1      14.900  -8.257  25.859  0.00  0.00    +0.000 NA
BRANCH  12  13
ATOM     13  N   UNL     1      13.818  -8.232  24.971  0.00  0.00    +0.000 NA
ATOM     14  C   UNL     1      12.620  -8.448  25.341  0.00  0.00    +0.000 C 
ATOM     15  C   UNL     1      11.426  -8.440  24.478  0.00  0.00    +0.000 C 
ATOM     16  C   UNL     1      10.548  -9.489  25.079  0.00  0.00    +0.000 C 
ATOM     17  C   UNL     1      11.077  -9.773  26.465  0.00  0.00    +0.000 C 
ATOM     18  C   UNL     1      12.171  -8.749  26.711  0.00  0.00    +0.000 C 
ENDBRANCH  12  13
ENDBRANCH   2  10
TORSDOF 3
ENDMDL
MODEL 8
REMARK VINA RESULT:      -5.7     20.577     22.622
REMARK  Name = 
REMARK  3 active torsions:
REMARK  status: ('A' for Active; 'I' for Inactive)
REMARK    1  A    between atoms: C_2  and  C_4
REMARK    2  A    between atoms: C_2  and  C_13
REMARK    3  A    between atoms: N_6  and  N_7
REMARK                            x       y       z     vdW  Elec       q    Type
REMARK                         _______ _______ _______ _____ _____    ______ ____
ROOT
ATOM      1  C   UNL     1      34.998  -0.604  36.413  0.00  0.00    +0.000 C 
ATOM      2  C   UNL     1      33.632  -0.191  35.918  0.00  0.00    +0.000 C 
ATOM      3  O   UNL     1      32.767  -0.185  37.029  0.00  0.00    +0.000 OA
ENDROOT
BRANCH   2   4
ATOM      4  C   UNL     1      33.694   1.159  35.326  0.00  0.00    +0.000 A 
ATOM      5  C   UNL     1      34.034   2.232  36.131  0.00  0.00    +0.000 A 
ATOM      6  C   UNL     1      34.111   3.526  35.637  0.00  0.00    +0.000 A 
ATOM      7  C   UNL     1      33.845   3.781  34.307  0.00  0.00    +0.000 A 
ATOM      8  C   UNL     1      33.506   2.712  33.506  0.00  0.00    +0.000 A 
ATOM      9  C   UNL     1      33.429   1.410  34.004  0.00  0.00    +0.000 A 
ENDBRANCH   2   4
BRANCH   2  10
ATOM     10  C   UNL     1      33.143  -1.217  34.960  0.00  0.00    +0.000 C 
ATOM     11  O   UNL     1      31.924  -1.530  34.983  0.00  0.00    +0.000 OA
ATOM     12  N   UNL     1      33.980  -1.867  34.015  0.00  0.00    +0.000 NA
BRANCH  12  13
ATOM     13  N   UNL     1      33.519  -2.833  33.114  0.00  0.00    +0.000 NA
ATOM     14  C   UNL     1      33.759  -4.075  33.256  0.00  0.00    +0.000 C 
ATOM     15  C   UNL     1      33.312  -5.156  32.361  0.00  0.00    +0.000 C 
ATOM     16  C   UNL     1      34.435  -6.143  32.412  0.00  0.00    +0.000 C 
ATOM     17  C   UNL     1      35.281  -5.795  33.613  0.00  0.00    +0.000 C 
ATOM     18  C   UNL     1      34.532  -4.695  34.346  0.00  0.00    +0.000 C 
ENDBRANCH  12  13
ENDBRANCH   2  10
TORSDOF 3
ENDMDL
MODEL 9
REMARK VINA RESULT:      -5.7      4.539      7.029
REMARK  Name = 
REMARK  3 active torsions:
REMARK  status: ('A' for Active; 'I' for Inactive)
REMARK    1  A    between atoms: C_2  and  C_4
REMARK    2  A    between atoms: C_2  and  C_13
REMARK    3  A    between atoms: N_6  and  N_7
REMARK                            x       y       z     vdW  Elec       q    Type
REMARK                         _______ _______ _______ _____ _____    ______ ____
ROOT
ATOM      1  C   UNL     1      17.479   9.835  39.834  0.00  0.00    +0.000 C 
ATOM      2  C   UNL     1      18.406   9.477  38.696  0.00  0.00    +0.000 C 
ATOM      3  O   UNL     1      18.610   8.085  38.743  0.00  0.00    +0.000 OA
ENDROOT
BRANCH   2   4
ATOM      4  C   UNL     1      17.794   9.850  37.406  0.00  0.00    +0.000 A 
ATOM      5  C   UNL     1      18.067   9.085  36.286  0.00  0.00    +0.000 A 
ATOM      6  C   UNL     1      17.524   9.380  35.044  0.00  0.00    +0.000 A 
ATOM      7  C   UNL     1      16.683  10.464  34.892  0.00  0.00    +0.000 A 
ATOM      8  C   UNL     1      16.412  11.225  36.009  0.00  0.00    +0.000 A 
ATOM      9  C   UNL     1      16.959  10.927  37.257  0.00  0.00    +0.000 A 
ENDBRANCH   2   4
BRANCH   2  10
ATOM     10  C   UNL     1      19.717  10.140  38.924  0.00  0.00    +0.000 C 
ATOM     11  O   UNL     1      20.087  10.351  40.108  0.00  0.00    +0.000 OA
ATOM     12  N   UNL     1      20.579  10.550  37.872  0.00  0.00    +0.000 NA
BRANCH  12  13
ATOM     13  N   UNL     1      21.813  11.176  38.088  0.00  0.00    +0.000 NA
ATOM     14  C   UNL     1      22.800  11.039  37.296  0.00  0.00    +0.000 C 
ATOM     15  C   UNL     1      24.128  11.660  37.445  0.00  0.00    +0.000 C 
ATOM     16  C   UNL     1      25.062  10.633  36.890  0.00  0.00    +0.000 C 
ATOM     17  C   UNL     1      24.229   9.656  36.094  0.00  0.00    +0.000 C 
ATOM     18  C   UNL     1      22.825  10.234  36.063  0.00  0.00    +0.000 C 
ENDBRANCH  12  13
ENDBRANCH   2  10
TORSDOF 3
ENDMDL
MODEL 10
REMARK VINA RESULT:      -5.7      3.863      7.772
REMARK  Name = 
REMARK  3 active torsions:
REMARK  status: ('A' for Active; 'I' for Inactive)
REMARK    1  A    between atoms: C_2  and  C_4
REMARK    2  A    between atoms: C_2  and  C_13
REMARK    3  A    between atoms: N_6  and  N_7
REMARK                            x       y       z     vdW  Elec       q    Type
REMARK                         _______ _______ _______ _____ _____    ______ ____
ROOT
ATOM      1  C   UNL     1      19.785  10.234  40.710  0.00  0.00    +0.000 C 
ATOM      2  C   UNL     1      19.051   9.306  39.769  0.00  0.00    +0.000 C 
ATOM      3  O   UNL     1      19.905   8.220  39.500  0.00  0.00    +0.000 OA
ENDROOT
BRANCH   2   4
ATOM      4  C   UNL     1      17.809   8.822  40.401  0.00  0.00    +0.000 A 
ATOM      5  C   UNL     1      17.693   7.480  40.716  0.00  0.00    +0.000 A 
ATOM      6  C   UNL     1      16.553   6.961  41.311  0.00  0.00    +0.000 A 
ATOM      7  C   UNL     1      15.486   7.784  41.609  0.00  0.00    +0.000 A 
ATOM      8  C   UNL     1      15.602   9.121  41.293  0.00  0.00    +0.000 A 
ATOM      9  C   UNL     1      16.750   9.642  40.695  0.00  0.00    +0.000 A 
ENDBRANCH   2   4
BRANCH   2  10
ATOM     10  C   UNL     1      18.805  10.024  38.491  0.00  0.00    +0.000 C 
ATOM     11  O   UNL     1      19.442  11.086  38.264  0.00  0.00    +0.000 OA
ATOM     12  N   UNL     1      17.886   9.574  37.506  0.00  0.00    +0.000 NA
BRANCH  12  13
ATOM     13  N   UNL     1      17.655  10.250  36.303  0.00  0.00    +0.000 NA
ATOM     14  C   UNL     1      16.744  11.130  36.173  0.00  0.00    +0.000 C 
ATOM     15  C   UNL     1      16.434  11.889  34.949  0.00  0.00    +0.000 C 
ATOM     16  C   UNL     1      14.951  12.070  35.012  0.00  0.00    +0.000 C 
ATOM     17  C   UNL     1      14.525  11.770  36.429  0.00  0.00    +0.000 C 
ATOM     18  C   UNL     1      15.808  11.577  37.219  0.00  0.00    +0.000 C 
ENDBRANCH  12  13
ENDBRANCH   2  10
TORSDOF 3
ENDMDL
