MODEL 1
REMARK VINA RESULT:      -9.1      0.000      0.000
REMARK  Name = 
REMARK  5 active torsions:
REMARK  status: ('A' for Active; 'I' for Inactive)
REMARK    1  A    between atoms: C_7  and  N_8
REMARK    2  A    between atoms: N_8  and  C_9
REMARK    3  A    between atoms: C_11  and  C_12
REMARK    4  A    between atoms: C_12  and  C_14
REMARK    5  A    between atoms: C_22  and  C_23
REMARK                            x       y       z     vdW  Elec       q    Type
REMARK                         _______ _______ _______ _____ _____    ______ ____
ROOT
ATOM      1  C   UNL     1      37.217   4.684  14.762  0.00  0.00    +0.000 A 
ATOM      2  S   UNL     1      38.231   5.985  15.196  0.00  0.00    +0.000 S 
ATOM      3  C   UNL     1      38.610   5.535  16.775  0.00  0.00    +0.000 A 
ATOM      4  C   UNL     1      37.924   4.354  16.939  0.00  0.00    +0.000 A 
ATOM      5  N   UNL     1      38.081   3.721  18.247  0.00  0.00    +0.000 NA
ATOM      6  C   UNL     1      37.199   3.893  15.917  0.00  0.00    +0.000 A 
ENDROOT
BRANCH   6   7
ATOM      7  C   UNL     1      36.398   2.648  15.879  0.00  0.00    +0.000 C 
ATOM      8  O   UNL     1      35.256   2.679  16.540  0.00  0.00    +0.000 OA
ATOM      9  N   UNL     1      36.678   1.449  15.246  0.00  0.00    +0.000 N 
ATOM     10  C   UNL     1      37.808   1.096  14.478  0.00  0.00    +0.000 C 
ATOM     11  C   UNL     1      38.598   0.023  15.183  0.00  0.00    +0.000 C 
ATOM     12  C   UNL     1      37.713  -0.960  15.894  0.00  0.00    +0.000 A 
ATOM     13  C   UNL     1      38.298  -2.073  16.480  0.00  0.00    +0.000 A 
ATOM     14  C   UNL     1      37.561  -3.019  17.147  0.00  0.00    +0.000 A 
ATOM     15  C   UNL     1      36.199  -2.831  17.220  0.00  0.00    +0.000 A 
ATOM     16  C   UNL     1      35.591  -1.751  16.656  0.00  0.00    +0.000 A 
ATOM     17  C   UNL     1      36.358  -0.811  15.988  0.00  0.00    +0.000 A 
ATOM     18  C   UNL     1      35.656   0.367  15.375  0.00  0.00    +0.000 C 
ENDBRANCH   6   7
BRANCH   3  19
ATOM     19  C   UNL     1      39.471   6.275  17.700  0.00  0.00    +0.000 C 
ATOM     20  O   UNL     1      40.730   6.165  17.667  0.00  0.00    +0.000 OA
BRANCH  19  21
ATOM     21  C   UNL     1      38.919   7.174  18.700  0.00  0.00    +0.000 A 
ATOM     22  C   UNL     1      37.807   7.929  18.438  0.00  0.00    +0.000 A 
ATOM     23  C   UNL     1      37.235   8.799  19.341  0.00  0.00    +0.000 A 
ATOM     24  C   UNL     1      37.811   8.921  20.580  0.00  0.00    +0.000 A 
ATOM     25  C   UNL     1      38.930   8.171  20.863  0.00  0.00    +0.000 A 
ATOM     26  C   UNL     1      39.490   7.304  19.947  0.00  0.00    +0.000 A 
ENDBRANCH  19  21
ENDBRANCH   3  19
BRANCH   1  27
ATOM     27  N   UNL     1      36.544   4.463  13.501  0.00  0.00    +0.000 NA
BRANCH  27  34
ATOM     28  C   UNL     1      36.614   5.435  10.793  0.00  0.00    +0.000 C 
ATOM     29  C   UNL     1      35.611   5.910  11.774  0.00  0.00    +0.000 A 
ATOM     30  C   UNL     1      34.666   6.863  11.370  0.00  0.00    +0.000 A 
ATOM     31  C   UNL     1      33.716   7.331  12.250  0.00  0.00    +0.000 A 
ATOM     32  C   UNL     1      33.715   6.845  13.531  0.00  0.00    +0.000 A 
ATOM     33  C   UNL     1      34.653   5.909  13.905  0.00  0.00    +0.000 A 
ATOM     34  C   UNL     1      35.612   5.422  13.054  0.00  0.00    +0.000 A 
ENDBRANCH  27  34
ENDBRANCH   1  27
TORSDOF 5
ENDMDL
MODEL 2
REMARK VINA RESULT:      -9.0      3.037      5.742
REMARK  Name = 
REMARK  5 active torsions:
REMARK  status: ('A' for Active; 'I' for Inactive)
REMARK    1  A    between atoms: C_7  and  N_8
REMARK    2  A    between atoms: N_8  and  C_9
REMARK    3  A    between atoms: C_11  and  C_12
REMARK    4  A    between atoms: C_12  and  C_14
REMARK    5  A    between atoms: C_22  and  C_23
REMARK                            x       y       z     vdW  Elec       q    Type
REMARK                         _______ _______ _______ _____ _____    ______ ____
ROOT
ATOM      1  C   UNL     1      37.186   2.022  15.406  0.00  0.00    +0.000 A 
ATOM      2  S   UNL     1      37.017   3.263  16.565  0.00  0.00    +0.000 S 
ATOM      3  C   UNL     1      38.007   4.436  15.870  0.00  0.00    +0.000 A 
ATOM      4  C   UNL     1      38.461   3.826  14.723  0.00  0.00    +0.000 A 
ATOM      5  N   UNL     1      39.356   4.638  13.901  0.00  0.00    +0.000 NA
ATOM      6  C   UNL     1      38.053   2.582  14.460  0.00  0.00    +0.000 A 
ENDROOT
BRANCH   6   7
ATOM      7  C   UNL     1      38.411   1.753  13.287  0.00  0.00    +0.000 C 
ATOM      8  O   UNL     1      37.408   1.403  12.504  0.00  0.00    +0.000 OA
ATOM      9  N   UNL     1      39.654   1.288  12.893  0.00  0.00    +0.000 N 
ATOM     10  C   UNL     1      40.907   1.476  13.514  0.00  0.00    +0.000 C 
ATOM     11  C   UNL     1      41.432   0.160  14.029  0.00  0.00    +0.000 C 
ATOM     12  C   UNL     1      41.102  -0.982  13.111  0.00  0.00    +0.000 A 
ATOM     13  C   UNL     1      41.630  -2.232  13.395  0.00  0.00    +0.000 A 
ATOM     14  C   UNL     1      41.378  -3.327  12.608  0.00  0.00    +0.000 A 
ATOM     15  C   UNL     1      40.572  -3.148  11.507  0.00  0.00    +0.000 A 
ATOM     16  C   UNL     1      40.035  -1.935  11.198  0.00  0.00    +0.000 A 
ATOM     17  C   UNL     1      40.306  -0.845  12.009  0.00  0.00    +0.000 A 
ATOM     18  C   UNL     1      39.702   0.479  11.639  0.00  0.00    +0.000 C 
ENDBRANCH   6   7
BRANCH   3  19
ATOM     19  C   UNL     1      38.277   5.768  16.414  0.00  0.00    +0.000 C 
ATOM     20  O   UNL     1      37.615   6.781  16.049  0.00  0.00    +0.000 OA
BRANCH  19  21
ATOM     21  C   UNL     1      39.319   5.990  17.402  0.00  0.00    +0.000 A 
ATOM     22  C   UNL     1      40.621   6.191  17.025  0.00  0.00    +0.000 A 
ATOM     23  C   UNL     1      41.656   6.407  17.910  0.00  0.00    +0.000 A 
ATOM     24  C   UNL     1      41.370   6.424  19.252  0.00  0.00    +0.000 A 
ATOM     25  C   UNL     1      40.068   6.224  19.651  0.00  0.00    +0.000 A 
ATOM     26  C   UNL     1      39.043   6.009  18.751  0.00  0.00    +0.000 A 
ENDBRANCH  19  21
ENDBRANCH   3  19
BRANCH   1  27
ATOM     27  N   UNL     1      36.575   0.710  15.412  0.00  0.00    +0.000 NA
BRANCH  27  34
ATOM     28  C   UNL     1      35.652  -0.100  18.015  0.00  0.00    +0.000 C 
ATOM     29  C   UNL     1      36.808  -0.748  17.352  0.00  0.00    +0.000 A 
ATOM     30  C   UNL     1      37.473  -1.789  18.014  0.00  0.00    +0.000 A 
ATOM     31  C   UNL     1      38.551  -2.419  17.435  0.00  0.00    +0.000 A 
ATOM     32  C   UNL     1      38.961  -2.005  16.194  0.00  0.00    +0.000 A 
ATOM     33  C   UNL     1      38.293  -0.980  15.563  0.00  0.00    +0.000 A 
ATOM     34  C   UNL     1      37.216  -0.333  16.112  0.00  0.00    +0.000 A 
ENDBRANCH  27  34
ENDBRANCH   1  27
TORSDOF 5
ENDMDL
MODEL 3
REMARK VINA RESULT:      -9.0      1.447      2.159
REMARK  Name = 
REMARK  5 active torsions:
REMARK  status: ('A' for Active; 'I' for Inactive)
REMARK    1  A    between atoms: C_7  and  N_8
REMARK    2  A    between atoms: N_8  and  C_9
REMARK    3  A    between atoms: C_11  and  C_12
REMARK    4  A    between atoms: C_12  and  C_14
REMARK    5  A    between atoms: C_22  and  C_23
REMARK                            x       y       z     vdW  Elec       q    Type
REMARK                         _______ _______ _______ _____ _____    ______ ____
ROOT
ATOM      1  C   UNL     1      37.458   5.178  14.897  0.00  0.00    +0.000 A 
ATOM      2  S   UNL     1      38.063   6.578  15.662  0.00  0.00    +0.000 S 
ATOM      3  C   UNL     1      38.371   5.953  17.195  0.00  0.00    +0.000 A 
ATOM      4  C   UNL     1      37.989   4.636  17.081  0.00  0.00    +0.000 A 
ATOM      5  N   UNL     1      38.157   3.834  18.291  0.00  0.00    +0.000 NA
ATOM      6  C   UNL     1      37.515   4.211  15.908  0.00  0.00    +0.000 A 
ENDROOT
BRANCH   6   7
ATOM      7  C   UNL     1      37.059   2.843  15.569  0.00  0.00    +0.000 C 
ATOM      8  O   UNL     1      35.951   2.444  16.165  0.00  0.00    +0.000 OA
ATOM      9  N   UNL     1      37.632   1.918  14.714  0.00  0.00    +0.000 N 
ATOM     10  C   UNL     1      38.810   2.035  13.945  0.00  0.00    +0.000 C 
ATOM     11  C   UNL     1      39.853   1.069  14.448  0.00  0.00    +0.000 C 
ATOM     12  C   UNL     1      39.253  -0.234  14.891  0.00  0.00    +0.000 A 
ATOM     13  C   UNL     1      40.107  -1.263  15.260  0.00  0.00    +0.000 A 
ATOM     14  C   UNL     1      39.641  -2.485  15.676  0.00  0.00    +0.000 A 
ATOM     15  C   UNL     1      38.277  -2.666  15.720  0.00  0.00    +0.000 A 
ATOM     16  C   UNL     1      37.409  -1.677  15.366  0.00  0.00    +0.000 A 
ATOM     17  C   UNL     1      37.906  -0.454  14.948  0.00  0.00    +0.000 A 
ATOM     18  C   UNL     1      36.922   0.613  14.562  0.00  0.00    +0.000 C 
ENDBRANCH   6   7
BRANCH   3  19
ATOM     19  C   UNL     1      38.916   6.693  18.335  0.00  0.00    +0.000 C 
ATOM     20  O   UNL     1      38.186   7.429  19.059  0.00  0.00    +0.000 OA
BRANCH  19  21
ATOM     21  C   UNL     1      40.323   6.618  18.689  0.00  0.00    +0.000 A 
ATOM     22  C   UNL     1      41.299   6.677  17.730  0.00  0.00    +0.000 A 
ATOM     23  C   UNL     1      42.650   6.610  17.998  0.00  0.00    +0.000 A 
ATOM     24  C   UNL     1      43.047   6.478  19.305  0.00  0.00    +0.000 A 
ATOM     25  C   UNL     1      42.081   6.417  20.283  0.00  0.00    +0.000 A 
ATOM     26  C   UNL     1      40.732   6.485  19.998  0.00  0.00    +0.000 A 
ENDBRANCH  19  21
ENDBRANCH   3  19
BRANCH   1  27
ATOM     27  N   UNL     1      37.000   5.038  13.532  0.00  0.00    +0.000 NA
BRANCH  27  34
ATOM     28  C   UNL     1      36.682   5.872  10.795  0.00  0.00    +0.000 C 
ATOM     29  C   UNL     1      35.667   6.170  11.832  0.00  0.00    +0.000 A 
ATOM     30  C   UNL     1      34.515   6.880  11.469  0.00  0.00    +0.000 A 
ATOM     31  C   UNL     1      33.547   7.178  12.400  0.00  0.00    +0.000 A 
ATOM     32  C   UNL     1      33.733   6.764  13.693  0.00  0.00    +0.000 A 
ATOM     33  C   UNL     1      34.873   6.068  14.027  0.00  0.00    +0.000 A 
ATOM     34  C   UNL     1      35.856   5.755  13.124  0.00  0.00    +0.000 A 
ENDBRANCH  27  34
ENDBRANCH   1  27
TORSDOF 5
ENDMDL
MODEL 4
REMARK VINA RESULT:      -8.6      2.058      7.020
REMARK  Name = 
REMARK  5 active torsions:
REMARK  status: ('A' for Active; 'I' for Inactive)
REMARK    1  A    between atoms: C_7  and  N_8
REMARK    2  A    between atoms: N_8  and  C_9
REMARK    3  A    between atoms: C_11  and  C_12
REMARK    4  A    between atoms: C_12  and  C_14
REMARK    5  A    between atoms: C_22  and  C_23
REMARK                            x       y       z     vdW  Elec       q    Type
REMARK                         _______ _______ _______ _____ _____    ______ ____
ROOT
ATOM      1  C   UNL     1      36.911   5.366  14.065  0.00  0.00    +0.000 A 
ATOM      2  S   UNL     1      35.560   4.323  14.060  0.00  0.00    +0.000 S 
ATOM      3  C   UNL     1      35.927   3.378  15.406  0.00  0.00    +0.000 A 
ATOM      4  C   UNL     1      37.120   3.904  15.844  0.00  0.00    +0.000 A 
ATOM      5  N   UNL     1      37.681   3.264  17.032  0.00  0.00    +0.000 NA
ATOM      6  C   UNL     1      37.649   4.928  15.171  0.00  0.00    +0.000 A 
ENDROOT
BRANCH   6   7
ATOM      7  C   UNL     1      38.911   5.642  15.475  0.00  0.00    +0.000 C 
ATOM      8  O   UNL     1      39.939   5.344  14.702  0.00  0.00    +0.000 OA
ATOM      9  N   UNL     1      39.168   6.582  16.458  0.00  0.00    +0.000 N 
ATOM     10  C   UNL     1      38.293   7.100  17.437  0.00  0.00    +0.000 C 
ATOM     11  C   UNL     1      38.742   6.669  18.810  0.00  0.00    +0.000 C 
ATOM     12  C   UNL     1      40.238   6.641  18.936  0.00  0.00    +0.000 A 
ATOM     13  C   UNL     1      40.792   6.385  20.182  0.00  0.00    +0.000 A 
ATOM     14  C   UNL     1      42.148   6.343  20.383  0.00  0.00    +0.000 A 
ATOM     15  C   UNL     1      42.961   6.566  19.295  0.00  0.00    +0.000 A 
ATOM     16  C   UNL     1      42.452   6.820  18.057  0.00  0.00    +0.000 A 
ATOM     17  C   UNL     1      41.079   6.858  17.882  0.00  0.00    +0.000 A 
ATOM     18  C   UNL     1      40.550   7.144  16.505  0.00  0.00    +0.000 C 
ENDBRANCH   6   7
BRANCH   3  19
ATOM     19  C   UNL     1      35.121   2.274  15.928  0.00  0.00    +0.000 C 
ATOM     20  O   UNL     1      34.043   2.477  16.558  0.00  0.00    +0.000 OA
BRANCH  19  21
ATOM     21  C   UNL     1      35.520   0.888  15.749  0.00  0.00    +0.000 A 
ATOM     22  C   UNL     1      35.090  -0.090  16.606  0.00  0.00    +0.000 A 
ATOM     23  C   UNL     1      35.432  -1.421  16.493  0.00  0.00    +0.000 A 
ATOM     24  C   UNL     1      36.252  -1.795  15.458  0.00  0.00    +0.000 A 
ATOM     25  C   UNL     1      36.695  -0.827  14.586  0.00  0.00    +0.000 A 
ATOM     26  C   UNL     1      36.343   0.502  14.714  0.00  0.00    +0.000 A 
ENDBRANCH  19  21
ENDBRANCH   3  19
BRANCH   1  27
ATOM     27  N   UNL     1      37.209   6.439  13.142  0.00  0.00    +0.000 NA
BRANCH  27  34
ATOM     28  C   UNL     1      35.113   6.865  11.216  0.00  0.00    +0.000 C 
ATOM     29  C   UNL     1      35.412   7.847  12.284  0.00  0.00    +0.000 A 
ATOM     30  C   UNL     1      34.649   9.020  12.359  0.00  0.00    +0.000 A 
ATOM     31  C   UNL     1      34.893   9.958  13.336  0.00  0.00    +0.000 A 
ATOM     32  C   UNL     1      35.899   9.720  14.236  0.00  0.00    +0.000 A 
ATOM     33  C   UNL     1      36.635   8.560  14.142  0.00  0.00    +0.000 A 
ATOM     34  C   UNL     1      36.418   7.606  13.182  0.00  0.00    +0.000 A 
ENDBRANCH  27  34
ENDBRANCH   1  27
TORSDOF 5
ENDMDL
MODEL 5
REMARK VINA RESULT:      -8.4      1.907      7.135
REMARK  Name = 
REMARK  5 active torsions:
REMARK  status: ('A' for Active; 'I' for Inactive)
REMARK    1  A    between atoms: C_7  and  N_8
REMARK    2  A    between atoms: N_8  and  C_9
REMARK    3  A    between atoms: C_11  and  C_12
REMARK    4  A    between atoms: C_12  and  C_14
REMARK    5  A    between atoms: C_22  and  C_23
REMARK                            x       y       z     vdW  Elec       q    Type
REMARK                         _______ _______ _______ _____ _____    ______ ____
ROOT
ATOM      1  C   UNL     1      37.142   4.776  13.898  0.00  0.00    +0.000 A 
ATOM      2  S   UNL     1      35.767   3.766  13.944  0.00  0.00    +0.000 S 
ATOM      3  C   UNL     1      35.974   3.077  15.467  0.00  0.00    +0.000 A 
ATOM      4  C   UNL     1      37.135   3.658  15.922  0.00  0.00    +0.000 A 
ATOM      5  N   UNL     1      37.558   3.237  17.256  0.00  0.00    +0.000 NA
ATOM      6  C   UNL     1      37.757   4.537  15.133  0.00  0.00    +0.000 A 
ENDROOT
BRANCH   6   7
ATOM      7  C   UNL     1      39.004   5.278  15.429  0.00  0.00    +0.000 C 
ATOM      8  O   UNL     1      40.066   4.916  14.733  0.00  0.00    +0.000 OA
ATOM      9  N   UNL     1      39.218   6.302  16.336  0.00  0.00    +0.000 N 
ATOM     10  C   UNL     1      38.300   6.902  17.225  0.00  0.00    +0.000 C 
ATOM     11  C   UNL     1      38.687   6.595  18.650  0.00  0.00    +0.000 C 
ATOM     12  C   UNL     1      40.175   6.583  18.845  0.00  0.00    +0.000 A 
ATOM     13  C   UNL     1      40.672   6.439  20.132  0.00  0.00    +0.000 A 
ATOM     14  C   UNL     1      42.018   6.419  20.398  0.00  0.00    +0.000 A 
ATOM     15  C   UNL     1      42.879   6.547  19.332  0.00  0.00    +0.000 A 
ATOM     16  C   UNL     1      42.427   6.689  18.055  0.00  0.00    +0.000 A 
ATOM     17  C   UNL     1      41.063   6.708  17.815  0.00  0.00    +0.000 A 
ATOM     18  C   UNL     1      40.598   6.870  16.396  0.00  0.00    +0.000 C 
ENDBRANCH   6   7
BRANCH   3  19
ATOM     19  C   UNL     1      35.088   2.095  16.096  0.00  0.00    +0.000 C 
ATOM     20  O   UNL     1      34.040   2.444  16.712  0.00  0.00    +0.000 OA
BRANCH  19  21
ATOM     21  C   UNL     1      35.369   0.671  16.042  0.00  0.00    +0.000 A 
ATOM     22  C   UNL     1      34.789  -0.200  16.925  0.00  0.00    +0.000 A 
ATOM     23  C   UNL     1      35.013  -1.560  16.929  0.00  0.00    +0.000 A 
ATOM     24  C   UNL     1      35.869  -2.080  15.991  0.00  0.00    +0.000 A 
ATOM     25  C   UNL     1      36.462  -1.221  15.094  0.00  0.00    +0.000 A 
ATOM     26  C   UNL     1      36.227   0.139  15.104  0.00  0.00    +0.000 A 
ENDBRANCH  19  21
ENDBRANCH   3  19
BRANCH   1  27
ATOM     27  N   UNL     1      37.561   5.661  12.833  0.00  0.00    +0.000 NA
BRANCH  27  34
ATOM     28  C   UNL     1      35.310   6.639  11.329  0.00  0.00    +0.000 C 
ATOM     29  C   UNL     1      36.296   5.700  10.747  0.00  0.00    +0.000 A 
ATOM     30  C   UNL     1      36.129   5.275   9.423  0.00  0.00    +0.000 A 
ATOM     31  C   UNL     1      37.022   4.403   8.843  0.00  0.00    +0.000 A 
ATOM     32  C   UNL     1      38.081   3.958   9.591  0.00  0.00    +0.000 A 
ATOM     33  C   UNL     1      38.226   4.390  10.890  0.00  0.00    +0.000 A 
ATOM     34  C   UNL     1      37.354   5.258  11.497  0.00  0.00    +0.000 A 
ENDBRANCH  27  34
ENDBRANCH   1  27
TORSDOF 5
ENDMDL
MODEL 6
REMARK VINA RESULT:      -8.2      3.254      5.985
REMARK  Name = 
REMARK  5 active torsions:
REMARK  status: ('A' for Active; 'I' for Inactive)
REMARK    1  A    between atoms: C_7  and  N_8
REMARK    2  A    between atoms: N_8  and  C_9
REMARK    3  A    between atoms: C_11  and  C_12
REMARK    4  A    between atoms: C_12  and  C_14
REMARK    5  A    between atoms: C_22  and  C_23
REMARK                            x       y       z     vdW  Elec       q    Type
REMARK                         _______ _______ _______ _____ _____    ______ ____
ROOT
ATOM      1  C   UNL     1      40.246   1.746  12.908  0.00  0.00    +0.000 A 
ATOM      2  S   UNL     1      40.334   3.367  13.433  0.00  0.00    +0.000 S 
ATOM      3  C   UNL     1      38.917   3.447  14.341  0.00  0.00    +0.000 A 
ATOM      4  C   UNL     1      38.390   2.182  14.216  0.00  0.00    +0.000 A 
ATOM      5  N   UNL     1      37.132   1.960  14.926  0.00  0.00    +0.000 NA
ATOM      6  C   UNL     1      39.055   1.286  13.483  0.00  0.00    +0.000 A 
ENDROOT
BRANCH   6   7
ATOM      7  C   UNL     1      38.673  -0.121  13.227  0.00  0.00    +0.000 C 
ATOM      8  O   UNL     1      37.925  -0.327  12.159  0.00  0.00    +0.000 OA
ATOM      9  N   UNL     1      38.989  -1.258  13.951  0.00  0.00    +0.000 N 
ATOM     10  C   UNL     1      39.753  -1.370  15.133  0.00  0.00    +0.000 C 
ATOM     11  C   UNL     1      38.877  -1.820  16.274  0.00  0.00    +0.000 C 
ATOM     12  C   UNL     1      37.838  -2.812  15.836  0.00  0.00    +0.000 A 
ATOM     13  C   UNL     1      37.043  -3.407  16.803  0.00  0.00    +0.000 A 
ATOM     14  C   UNL     1      36.072  -4.324  16.489  0.00  0.00    +0.000 A 
ATOM     15  C   UNL     1      35.905  -4.644  15.160  0.00  0.00    +0.000 A 
ATOM     16  C   UNL     1      36.668  -4.079  14.183  0.00  0.00    +0.000 A 
ATOM     17  C   UNL     1      37.642  -3.157  14.529  0.00  0.00    +0.000 A 
ATOM     18  C   UNL     1      38.467  -2.555  13.427  0.00  0.00    +0.000 C 
ENDBRANCH   6   7
BRANCH   3  19
ATOM     19  C   UNL     1      38.423   4.619  15.066  0.00  0.00    +0.000 C 
ATOM     20  O   UNL     1      37.406   5.261  14.677  0.00  0.00    +0.000 OA
BRANCH  19  21
ATOM     21  C   UNL     1      39.078   5.102  16.270  0.00  0.00    +0.000 A 
ATOM     22  C   UNL     1      38.549   4.861  17.510  0.00  0.00    +0.000 A 
ATOM     23  C   UNL     1      39.119   5.290  18.689  0.00  0.00    +0.000 A 
ATOM     24  C   UNL     1      40.289   6.003  18.623  0.00  0.00    +0.000 A 
ATOM     25  C   UNL     1      40.837   6.256  17.386  0.00  0.00    +0.000 A 
ATOM     26  C   UNL     1      40.253   5.818  16.214  0.00  0.00    +0.000 A 
ENDBRANCH  19  21
ENDBRANCH   3  19
BRANCH   1  27
ATOM     27  N   UNL     1      41.184   1.031  12.069  0.00  0.00    +0.000 NA
BRANCH  27  34
ATOM     28  C   UNL     1      41.354  -1.639  11.009  0.00  0.00    +0.000 C 
ATOM     29  C   UNL     1      42.138  -1.210  12.190  0.00  0.00    +0.000 A 
ATOM     30  C   UNL     1      42.990  -2.134  12.810  0.00  0.00    +0.000 A 
ATOM     31  C   UNL     1      43.736  -1.777  13.910  0.00  0.00    +0.000 A 
ATOM     32  C   UNL     1      43.629  -0.496  14.386  0.00  0.00    +0.000 A 
ATOM     33  C   UNL     1      42.785   0.394  13.761  0.00  0.00    +0.000 A 
ATOM     34  C   UNL     1      42.028   0.071  12.664  0.00  0.00    +0.000 A 
ENDBRANCH  27  34
ENDBRANCH   1  27
TORSDOF 5
ENDMDL
MODEL 7
REMARK VINA RESULT:      -8.2      2.057      6.877
REMARK  Name = 
REMARK  5 active torsions:
REMARK  status: ('A' for Active; 'I' for Inactive)
REMARK    1  A    between atoms: C_7  and  N_8
REMARK    2  A    between atoms: N_8  and  C_9
REMARK    3  A    between atoms: C_11  and  C_12
REMARK    4  A    between atoms: C_12  and  C_14
REMARK    5  A    between atoms: C_22  and  C_23
REMARK                            x       y       z     vdW  Elec       q    Type
REMARK                         _______ _______ _______ _____ _____    ______ ____
ROOT
ATOM      1  C   UNL     1      37.630   3.804  15.421  0.00  0.00    +0.000 A 
ATOM      2  S   UNL     1      38.085   4.066  17.044  0.00  0.00    +0.000 S 
ATOM      3  C   UNL     1      38.314   5.735  17.008  0.00  0.00    +0.000 A 
ATOM      4  C   UNL     1      38.025   6.064  15.704  0.00  0.00    +0.000 A 
ATOM      5  N   UNL     1      38.138   7.486  15.384  0.00  0.00    +0.000 NA
ATOM      6  C   UNL     1      37.670   5.088  14.866  0.00  0.00    +0.000 A 
ENDROOT
BRANCH   6   7
ATOM      7  C   UNL     1      37.312   5.224  13.435  0.00  0.00    +0.000 C 
ATOM      8  O   UNL     1      38.290   5.007  12.576  0.00  0.00    +0.000 OA
ATOM      9  N   UNL     1      36.092   5.549  12.867  0.00  0.00    +0.000 N 
ATOM     10  C   UNL     1      34.869   5.846  13.506  0.00  0.00    +0.000 C 
ATOM     11  C   UNL     1      34.496   7.286  13.264  0.00  0.00    +0.000 C 
ATOM     12  C   UNL     1      34.866   7.745  11.882  0.00  0.00    +0.000 A 
ATOM     13  C   UNL     1      34.468   9.010  11.478  0.00  0.00    +0.000 A 
ATOM     14  C   UNL     1      34.764   9.505  10.233  0.00  0.00    +0.000 A 
ATOM     15  C   UNL     1      35.481   8.696   9.379  0.00  0.00    +0.000 A 
ATOM     16  C   UNL     1      35.888   7.448   9.744  0.00  0.00    +0.000 A 
ATOM     17  C   UNL     1      35.574   6.973  11.006  0.00  0.00    +0.000 A 
ATOM     18  C   UNL     1      36.036   5.592  11.375  0.00  0.00    +0.000 C 
ENDBRANCH   6   7
BRANCH   3  19
ATOM     19  C   UNL     1      38.726   6.572  18.136  0.00  0.00    +0.000 C 
ATOM     20  O   UNL     1      37.911   7.338  18.727  0.00  0.00    +0.000 OA
BRANCH  19  21
ATOM     21  C   UNL     1      40.091   6.565  18.632  0.00  0.00    +0.000 A 
ATOM     22  C   UNL     1      41.158   6.614  17.773  0.00  0.00    +0.000 A 
ATOM     23  C   UNL     1      42.475   6.609  18.178  0.00  0.00    +0.000 A 
ATOM     24  C   UNL     1      42.742   6.553  19.523  0.00  0.00    +0.000 A 
ATOM     25  C   UNL     1      41.684   6.503  20.402  0.00  0.00    +0.000 A 
ATOM     26  C   UNL     1      40.369   6.508  19.980  0.00  0.00    +0.000 A 
ENDBRANCH  19  21
ENDBRANCH   3  19
BRANCH   1  27
ATOM     27  N   UNL     1      37.287   2.550  14.785  0.00  0.00    +0.000 NA
BRANCH  27  34
ATOM     28  C   UNL     1      38.267  -0.147  15.001  0.00  0.00    +0.000 C 
ATOM     29  C   UNL     1      37.013   0.289  15.657  0.00  0.00    +0.000 A 
ATOM     30  C   UNL     1      36.280  -0.640  16.407  0.00  0.00    +0.000 A 
ATOM     31  C   UNL     1      35.109  -0.276  17.033  0.00  0.00    +0.000 A 
ATOM     32  C   UNL     1      34.675   1.017  16.907  0.00  0.00    +0.000 A 
ATOM     33  C   UNL     1      35.411   1.914  16.165  0.00  0.00    +0.000 A 
ATOM     34  C   UNL     1      36.581   1.583  15.530  0.00  0.00    +0.000 A 
ENDBRANCH  27  34
ENDBRANCH   1  27
TORSDOF 5
ENDMDL
MODEL 8
REMARK VINA RESULT:      -8.1      3.605      6.316
REMARK  Name = 
REMARK  5 active torsions:
REMARK  status: ('A' for Active; 'I' for Inactive)
REMARK    1  A    between atoms: C_7  and  N_8
REMARK    2  A    between atoms: N_8  and  C_9
REMARK    3  A    between atoms: C_11  and  C_12
REMARK    4  A    between atoms: C_12  and  C_14
REMARK    5  A    between atoms: C_22  and  C_23
REMARK                            x       y       z     vdW  Elec       q    Type
REMARK                         _______ _______ _______ _____ _____    ______ ____
ROOT
ATOM      1  C   UNL     1      37.788   0.832  12.918  0.00  0.00    +0.000 A 
ATOM      2  S   UNL     1      37.499   2.321  12.137  0.00  0.00    +0.000 S 
ATOM      3  C   UNL     1      37.741   3.372  13.432  0.00  0.00    +0.000 A 
ATOM      4  C   UNL     1      38.050   2.525  14.472  0.00  0.00    +0.000 A 
ATOM      5  N   UNL     1      38.321   3.183  15.748  0.00  0.00    +0.000 NA
ATOM      6  C   UNL     1      38.081   1.212  14.234  0.00  0.00    +0.000 A 
ENDROOT
BRANCH   6   7
ATOM      7  C   UNL     1      38.395   0.135  15.201  0.00  0.00    +0.000 C 
ATOM      8  O   UNL     1      39.654  -0.263  15.227  0.00  0.00    +0.000 OA
ATOM      9  N   UNL     1      37.554  -0.518  16.084  0.00  0.00    +0.000 N 
ATOM     10  C   UNL     1      36.169  -0.334  16.289  0.00  0.00    +0.000 C 
ATOM     11  C   UNL     1      35.415  -1.567  15.860  0.00  0.00    +0.000 C 
ATOM     12  C   UNL     1      36.161  -2.830  16.182  0.00  0.00    +0.000 A 
ATOM     13  C   UNL     1      35.530  -4.045  15.958  0.00  0.00    +0.000 A 
ATOM     14  C   UNL     1      36.140  -5.244  16.226  0.00  0.00    +0.000 A 
ATOM     15  C   UNL     1      37.420  -5.209  16.732  0.00  0.00    +0.000 A 
ATOM     16  C   UNL     1      38.069  -4.035  16.964  0.00  0.00    +0.000 A 
ATOM     17  C   UNL     1      37.430  -2.838  16.686  0.00  0.00    +0.000 A 
ATOM     18  C   UNL     1      38.174  -1.561  16.956  0.00  0.00    +0.000 C 
ENDBRANCH   6   7
BRANCH   3  19
ATOM     19  C   UNL     1      37.632   4.831  13.390  0.00  0.00    +0.000 C 
ATOM     20  O   UNL     1      38.645   5.577  13.511  0.00  0.00    +0.000 OA
BRANCH  19  21
ATOM     21  C   UNL     1      36.352   5.494  13.206  0.00  0.00    +0.000 A 
ATOM     22  C   UNL     1      35.435   5.558  14.222  0.00  0.00    +0.000 A 
ATOM     23  C   UNL     1      34.204   6.169  14.113  0.00  0.00    +0.000 A 
ATOM     24  C   UNL     1      33.872   6.753  12.917  0.00  0.00    +0.000 A 
ATOM     25  C   UNL     1      34.780   6.699  11.884  0.00  0.00    +0.000 A 
ATOM     26  C   UNL     1      36.009   6.082  12.009  0.00  0.00    +0.000 A 
ENDBRANCH  19  21
ENDBRANCH   3  19
BRANCH   1  27
ATOM     27  N   UNL     1      37.739  -0.496  12.347  0.00  0.00    +0.000 NA
BRANCH  27  34
ATOM     28  C   UNL     1      38.432  -3.126  13.289  0.00  0.00    +0.000 C 
ATOM     29  C   UNL     1      39.313  -2.359  12.379  0.00  0.00    +0.000 A 
ATOM     30  C   UNL     1      40.522  -2.932  11.964  0.00  0.00    +0.000 A 
ATOM     31  C   UNL     1      41.371  -2.254  11.118  0.00  0.00    +0.000 A 
ATOM     32  C   UNL     1      41.007  -1.003  10.691  0.00  0.00    +0.000 A 
ATOM     33  C   UNL     1      39.814  -0.460  11.112  0.00  0.00    +0.000 A 
ATOM     34  C   UNL     1      38.947  -1.109  11.953  0.00  0.00    +0.000 A 
ENDBRANCH  27  34
ENDBRANCH   1  27
TORSDOF 5
ENDMDL
MODEL 9
REMARK VINA RESULT:      -8.1      2.877      5.714
REMARK  Name = 
REMARK  5 active torsions:
REMARK  status: ('A' for Active; 'I' for Inactive)
REMARK    1  A    between atoms: C_7  and  N_8
REMARK    2  A    between atoms: N_8  and  C_9
REMARK    3  A    between atoms: C_11  and  C_12
REMARK    4  A    between atoms: C_12  and  C_14
REMARK    5  A    between atoms: C_22  and  C_23
REMARK                            x       y       z     vdW  Elec       q    Type
REMARK                         _______ _______ _______ _____ _____    ______ ____
ROOT
ATOM      1  C   UNL     1      37.464   3.585  15.438  0.00  0.00    +0.000 A 
ATOM      2  S   UNL     1      38.016   3.942  17.013  0.00  0.00    +0.000 S 
ATOM      3  C   UNL     1      38.152   5.617  16.892  0.00  0.00    +0.000 A 
ATOM      4  C   UNL     1      37.757   5.873  15.600  0.00  0.00    +0.000 A 
ATOM      5  N   UNL     1      37.772   7.283  15.214  0.00  0.00    +0.000 NA
ATOM      6  C   UNL     1      37.397   4.844  14.829  0.00  0.00    +0.000 A 
ENDROOT
BRANCH   6   7
ATOM      7  C   UNL     1      36.935   4.898  13.423  0.00  0.00    +0.000 C 
ATOM      8  O   UNL     1      35.627   4.914  13.249  0.00  0.00    +0.000 OA
ATOM      9  N   UNL     1      37.683   4.933  12.259  0.00  0.00    +0.000 N 
ATOM     10  C   UNL     1      39.086   4.918  12.107  0.00  0.00    +0.000 C 
ATOM     11  C   UNL     1      39.519   3.640  11.435  0.00  0.00    +0.000 C 
ATOM     12  C   UNL     1      38.546   3.193  10.382  0.00  0.00    +0.000 A 
ATOM     13  C   UNL     1      38.878   2.101   9.596  0.00  0.00    +0.000 A 
ATOM     14  C   UNL     1      38.047   1.629   8.612  0.00  0.00    +0.000 A 
ATOM     15  C   UNL     1      36.849   2.282   8.423  0.00  0.00    +0.000 A 
ATOM     16  C   UNL     1      36.490   3.358   9.177  0.00  0.00    +0.000 A 
ATOM     17  C   UNL     1      37.349   3.814  10.163  0.00  0.00    +0.000 A 
ATOM     18  C   UNL     1      36.924   5.004  10.975  0.00  0.00    +0.000 C 
ENDBRANCH   6   7
BRANCH   3  19
ATOM     19  C   UNL     1      38.595   6.524  17.953  0.00  0.00    +0.000 C 
ATOM     20  O   UNL     1      37.804   7.347  18.496  0.00  0.00    +0.000 OA
BRANCH  19  21
ATOM     21  C   UNL     1      39.966   6.521  18.433  0.00  0.00    +0.000 A 
ATOM     22  C   UNL     1      40.249   6.447  19.772  0.00  0.00    +0.000 A 
ATOM     23  C   UNL     1      41.525   6.441  20.292  0.00  0.00    +0.000 A 
ATOM     24  C   UNL     1      42.582   6.513  19.421  0.00  0.00    +0.000 A 
ATOM     25  C   UNL     1      42.320   6.589  18.072  0.00  0.00    +0.000 A 
ATOM     26  C   UNL     1      41.035   6.594  17.566  0.00  0.00    +0.000 A 
ENDBRANCH  19  21
ENDBRANCH   3  19
BRANCH   1  27
ATOM     27  N   UNL     1      37.146   2.289  14.879  0.00  0.00    +0.000 NA
BRANCH  27  34
ATOM     28  C   UNL     1      36.549   0.702  12.554  0.00  0.00    +0.000 C 
ATOM     29  C   UNL     1      37.919   0.802  13.107  0.00  0.00    +0.000 A 
ATOM     30  C   UNL     1      38.957   0.103  12.479  0.00  0.00    +0.000 A 
ATOM     31  C   UNL     1      40.245   0.168  12.960  0.00  0.00    +0.000 A 
ATOM     32  C   UNL     1      40.490   0.935  14.069  0.00  0.00    +0.000 A 
ATOM     33  C   UNL     1      39.454   1.614  14.671  0.00  0.00    +0.000 A 
ATOM     34  C   UNL     1      38.161   1.569  14.216  0.00  0.00    +0.000 A 
ENDBRANCH  27  34
ENDBRANCH   1  27
TORSDOF 5
ENDMDL
MODEL 10
REMARK VINA RESULT:      -8.0      2.183      5.612
REMARK  Name = 
REMARK  5 active torsions:
REMARK  status: ('A' for Active; 'I' for Inactive)
REMARK    1  A    between atoms: C_7  and  N_8
REMARK    2  A    between atoms: N_8  and  C_9
REMARK    3  A    between atoms: C_11  and  C_12
REMARK    4  A    between atoms: C_12  and  C_14
REMARK    5  A    between atoms: C_22  and  C_23
REMARK                            x       y       z     vdW  Elec       q    Type
REMARK                         _______ _______ _______ _____ _____    ______ ____
ROOT
ATOM      1  C   UNL     1      36.729   3.995  15.137  0.00  0.00    +0.000 A 
ATOM      2  S   UNL     1      37.398   4.100  16.703  0.00  0.00    +0.000 S 
ATOM      3  C   UNL     1      38.434   5.411  16.481  0.00  0.00    +0.000 A 
ATOM      4  C   UNL     1      38.235   5.750  15.163  0.00  0.00    +0.000 A 
ATOM      5  N   UNL     1      39.021   6.887  14.690  0.00  0.00    +0.000 NA
ATOM      6  C   UNL     1      37.362   5.037  14.447  0.00  0.00    +0.000 A 
ENDROOT
BRANCH   6   7
ATOM      7  C   UNL     1      36.995   5.236  13.026  0.00  0.00    +0.000 C 
ATOM      8  O   UNL     1      35.808   5.772  12.810  0.00  0.00    +0.000 OA
ATOM      9  N   UNL     1      37.723   4.939  11.887  0.00  0.00    +0.000 N 
ATOM     10  C   UNL     1      39.005   4.357  11.782  0.00  0.00    +0.000 C 
ATOM     11  C   UNL     1      38.903   2.996  11.141  0.00  0.00    +0.000 C 
ATOM     12  C   UNL     1      37.859   2.952  10.063  0.00  0.00    +0.000 A 
ATOM     13  C   UNL     1      37.744   1.798   9.302  0.00  0.00    +0.000 A 
ATOM     14  C   UNL     1      36.817   1.676   8.298  0.00  0.00    +0.000 A 
ATOM     15  C   UNL     1      35.988   2.749   8.061  0.00  0.00    +0.000 A 
ATOM     16  C   UNL     1      36.073   3.897   8.789  0.00  0.00    +0.000 A 
ATOM     17  C   UNL     1      37.019   3.995   9.796  0.00  0.00    +0.000 A 
ATOM     18  C   UNL     1      37.088   5.276  10.578  0.00  0.00    +0.000 C 
ENDBRANCH   6   7
BRANCH   3  19
ATOM     19  C   UNL     1      39.310   5.997  17.496  0.00  0.00    +0.000 C 
ATOM     20  O   UNL     1      40.540   5.711  17.557  0.00  0.00    +0.000 OA
BRANCH  19  21
ATOM     21  C   UNL     1      38.809   6.938  18.484  0.00  0.00    +0.000 A 
ATOM     22  C   UNL     1      39.380   7.033  19.726  0.00  0.00    +0.000 A 
ATOM     23  C   UNL     1      38.953   7.902  20.706  0.00  0.00    +0.000 A 
ATOM     24  C   UNL     1      37.892   8.727  20.427  0.00  0.00    +0.000 A 
ATOM     25  C   UNL     1      37.305   8.646  19.185  0.00  0.00    +0.000 A 
ATOM     26  C   UNL     1      37.745   7.770  18.213  0.00  0.00    +0.000 A 
ENDBRANCH  19  21
ENDBRANCH   3  19
BRANCH   1  27
ATOM     27  N   UNL     1      35.745   3.052  14.651  0.00  0.00    +0.000 NA
BRANCH  27  34
ATOM     28  C   UNL     1      34.947   1.249  16.748  0.00  0.00    +0.000 C 
ATOM     29  C   UNL     1      35.727   0.794  15.573  0.00  0.00    +0.000 A 
ATOM     30  C   UNL     1      36.086  -0.557  15.479  0.00  0.00    +0.000 A 
ATOM     31  C   UNL     1      36.810  -1.021  14.405  0.00  0.00    +0.000 A 
ATOM     32  C   UNL     1      37.171  -0.133  13.426  0.00  0.00    +0.000 A 
ATOM     33  C   UNL     1      36.807   1.190  13.539  0.00  0.00    +0.000 A 
ATOM     34  C   UNL     1      36.087   1.685  14.596  0.00  0.00    +0.000 A 
ENDBRANCH  27  34
ENDBRANCH   1  27
TORSDOF 5
ENDMDL
