MODEL 1
REMARK VINA RESULT:      -8.7      0.000      0.000
REMARK  Name = 
REMARK  5 active torsions:
REMARK  status: ('A' for Active; 'I' for Inactive)
REMARK    1  A    between atoms: C_3  and  C_4
REMARK    2  A    between atoms: N_6  and  C_7
REMARK    3  A    between atoms: C_7  and  C_8
REMARK    4  A    between atoms: N_24  and  C_25
REMARK    5  A    between atoms: C_25  and  C_26
REMARK                            x       y       z     vdW  Elec       q    Type
REMARK                         _______ _______ _______ _____ _____    ______ ____
ROOT
ATOM      1  N   UNL     1      40.473   2.246  13.549  0.00  0.00    +0.000 NA
ATOM      2  C   UNL     1      39.389   1.551  14.158  0.00  0.00    +0.000 A 
ATOM      3  C   UNL     1      38.445   2.116  14.974  0.00  0.00    +0.000 A 
ATOM      4  C   UNL     1      37.584   1.084  15.340  0.00  0.00    +0.000 A 
ATOM      5  N   UNL     1      36.488   1.067  16.118  0.00  0.00    +0.000 NA
ATOM      6  C   UNL     1      35.862  -0.126  16.271  0.00  0.00    +0.000 A 
ATOM      7  C   UNL     1      34.724  -0.220  17.061  0.00  0.00    +0.000 A 
ATOM      8  C   UNL     1      34.073  -1.434  17.226  0.00  0.00    +0.000 A 
ATOM      9  C   UNL     1      34.539  -2.590  16.607  0.00  0.00    +0.000 A 
ATOM     10  C   UNL     1      35.669  -2.475  15.829  0.00  0.00    +0.000 A 
ATOM     11  C   UNL     1      36.322  -1.267  15.661  0.00  0.00    +0.000 A 
ATOM     12  N   UNL     1      37.417  -1.208  14.893  0.00  0.00    +0.000 NA
ATOM     13  C   UNL     1      38.074  -0.043  14.711  0.00  0.00    +0.000 A 
ATOM     14  N   UNL     1      39.165   0.235  13.996  0.00  0.00    +0.000 N 
ENDROOT
BRANCH   3  15
ATOM     15  C   UNL     1      38.366   3.515  15.374  0.00  0.00    +0.000 C 
ATOM     16  O   UNL     1      38.149   4.394  14.504  0.00  0.00    +0.000 OA
ATOM     17  N   UNL     1      38.521   3.941  16.714  0.00  0.00    +0.000 NA
BRANCH  17  18
ATOM     18  C   UNL     1      38.424   5.356  17.017  0.00  0.00    +0.000 C 
BRANCH  18  19
ATOM     19  C   UNL     1      39.545   5.839  17.866  0.00  0.00    +0.000 A 
ATOM     20  C   UNL     1      40.807   6.094  17.340  0.00  0.00    +0.000 A 
ATOM     21  C   UNL     1      41.838   6.538  18.110  0.00  0.00    +0.000 A 
ATOM     22  C   UNL     1      41.659   6.758  19.473  0.00  0.00    +0.000 A 
ATOM     23  C   UNL     1      40.410   6.512  20.024  0.00  0.00    +0.000 A 
ATOM     24  C   UNL     1      39.395   6.064  19.213  0.00  0.00    +0.000 A 
ENDBRANCH  18  19
ENDBRANCH  17  18
ENDBRANCH   3  15
BRANCH  14  25
ATOM     25  C   UNL     1      39.925  -0.738  13.218  0.00  0.00    +0.000 C 
BRANCH  25  26
ATOM     26  C   UNL     1      40.926  -1.380  14.146  0.00  0.00    +0.000 C 
ATOM     27  C   UNL     1      40.911  -2.874  13.818  0.00  0.00    +0.000 C 
ATOM     28  C   UNL     1      41.878  -3.228  12.729  0.00  0.00    +0.000 C 
ATOM     29  C   UNL     1      41.918  -2.099  11.696  0.00  0.00    +0.000 C 
ATOM     30  C   UNL     1      42.516  -0.843  12.317  0.00  0.00    +0.000 C 
ATOM     31  C   UNL     1      42.299  -0.847  13.815  0.00  0.00    +0.000 C 
ENDBRANCH  25  26
ENDBRANCH  14  25
TORSDOF 5
ENDMDL
MODEL 2
REMARK VINA RESULT:      -8.5      1.039      4.941
REMARK  Name = 
REMARK  5 active torsions:
REMARK  status: ('A' for Active; 'I' for Inactive)
REMARK    1  A    between atoms: C_3  and  C_4
REMARK    2  A    between atoms: N_6  and  C_7
REMARK    3  A    between atoms: C_7  and  C_8
REMARK    4  A    between atoms: N_24  and  C_25
REMARK    5  A    between atoms: C_25  and  C_26
REMARK                            x       y       z     vdW  Elec       q    Type
REMARK                         _______ _______ _______ _____ _____    ______ ____
ROOT
ATOM      1  N   UNL     1      35.383   1.346  15.497  0.00  0.00    +0.000 NA
ATOM      2  C   UNL     1      36.699   0.900  15.185  0.00  0.00    +0.000 A 
ATOM      3  C   UNL     1      37.810   1.699  15.115  0.00  0.00    +0.000 A 
ATOM      4  C   UNL     1      38.870   0.858  14.784  0.00  0.00    +0.000 A 
ATOM      5  N   UNL     1      40.178   1.100  14.590  0.00  0.00    +0.000 NA
ATOM      6  C   UNL     1      40.960   0.038  14.278  0.00  0.00    +0.000 A 
ATOM      7  C   UNL     1      42.320   0.213  14.064  0.00  0.00    +0.000 A 
ATOM      8  C   UNL     1      43.133  -0.866  13.744  0.00  0.00    +0.000 A 
ATOM      9  C   UNL     1      42.610  -2.150  13.629  0.00  0.00    +0.000 A 
ATOM     10  C   UNL     1      41.259  -2.302  13.844  0.00  0.00    +0.000 A 
ATOM     11  C   UNL     1      40.444  -1.230  14.164  0.00  0.00    +0.000 A 
ATOM     12  N   UNL     1      39.136  -1.430  14.365  0.00  0.00    +0.000 NA
ATOM     13  C   UNL     1      38.318  -0.404  14.678  0.00  0.00    +0.000 A 
ATOM     14  N   UNL     1      37.006  -0.382  14.919  0.00  0.00    +0.000 N 
ENDROOT
BRANCH   3  15
ATOM     15  C   UNL     1      37.862   3.137  15.340  0.00  0.00    +0.000 C 
ATOM     16  O   UNL     1      37.514   3.919  14.421  0.00  0.00    +0.000 OA
ATOM     17  N   UNL     1      38.291   3.708  16.562  0.00  0.00    +0.000 NA
BRANCH  17  18
ATOM     18  C   UNL     1      38.308   5.153  16.694  0.00  0.00    +0.000 C 
BRANCH  18  19
ATOM     19  C   UNL     1      39.437   5.639  17.530  0.00  0.00    +0.000 A 
ATOM     20  C   UNL     1      39.340   5.731  18.915  0.00  0.00    +0.000 A 
ATOM     21  C   UNL     1      40.370   6.173  19.687  0.00  0.00    +0.000 A 
ATOM     22  C   UNL     1      41.577   6.552  19.107  0.00  0.00    +0.000 A 
ATOM     23  C   UNL     1      41.702   6.470  17.728  0.00  0.00    +0.000 A 
ATOM     24  C   UNL     1      40.638   6.019  16.982  0.00  0.00    +0.000 A 
ENDBRANCH  18  19
ENDBRANCH  17  18
ENDBRANCH   3  15
BRANCH  14  25
ATOM     25  C   UNL     1      36.130  -1.549  14.881  0.00  0.00    +0.000 C 
BRANCH  25  26
ATOM     26  C   UNL     1      36.080  -2.125  16.274  0.00  0.00    +0.000 C 
ATOM     27  C   UNL     1      34.600  -2.187  16.654  0.00  0.00    +0.000 C 
ATOM     28  C   UNL     1      33.955  -3.472  16.231  0.00  0.00    +0.000 C 
ATOM     29  C   UNL     1      34.540  -3.917  14.887  0.00  0.00    +0.000 C 
ATOM     30  C   UNL     1      36.009  -4.286  15.052  0.00  0.00    +0.000 C 
ATOM     31  C   UNL     1      36.605  -3.540  16.227  0.00  0.00    +0.000 C 
ENDBRANCH  25  26
ENDBRANCH  14  25
TORSDOF 5
ENDMDL
MODEL 3
REMARK VINA RESULT:      -7.9      0.944      5.049
REMARK  Name = 
REMARK  5 active torsions:
REMARK  status: ('A' for Active; 'I' for Inactive)
REMARK    1  A    between atoms: C_3  and  C_4
REMARK    2  A    between atoms: N_6  and  C_7
REMARK    3  A    between atoms: C_7  and  C_8
REMARK    4  A    between atoms: N_24  and  C_25
REMARK    5  A    between atoms: C_25  and  C_26
REMARK                            x       y       z     vdW  Elec       q    Type
REMARK                         _______ _______ _______ _____ _____    ______ ____
ROOT
ATOM      1  N   UNL     1      35.595   2.143  16.459  0.00  0.00    +0.000 NA
ATOM      2  C   UNL     1      36.740   1.676  15.751  0.00  0.00    +0.000 A 
ATOM      3  C   UNL     1      37.831   2.436  15.421  0.00  0.00    +0.000 A 
ATOM      4  C   UNL     1      38.702   1.587  14.742  0.00  0.00    +0.000 A 
ATOM      5  N   UNL     1      39.913   1.795  14.198  0.00  0.00    +0.000 NA
ATOM      6  C   UNL     1      40.510   0.734  13.601  0.00  0.00    +0.000 A 
ATOM      7  C   UNL     1      41.761   0.876  13.018  0.00  0.00    +0.000 A 
ATOM      8  C   UNL     1      42.385  -0.201  12.404  0.00  0.00    +0.000 A 
ATOM      9  C   UNL     1      41.776  -1.451  12.354  0.00  0.00    +0.000 A 
ATOM     10  C   UNL     1      40.534  -1.570  12.938  0.00  0.00    +0.000 A 
ATOM     11  C   UNL     1      39.909  -0.499  13.552  0.00  0.00    +0.000 A 
ATOM     12  N   UNL     1      38.702  -0.666  14.106  0.00  0.00    +0.000 NA
ATOM     13  C   UNL     1      38.069   0.360  14.712  0.00  0.00    +0.000 A 
ATOM     14  N   UNL     1      36.883   0.409  15.321  0.00  0.00    +0.000 N 
ENDROOT
BRANCH   3  15
ATOM     15  C   UNL     1      38.031   3.848  15.721  0.00  0.00    +0.000 C 
ATOM     16  O   UNL     1      37.711   4.711  14.867  0.00  0.00    +0.000 OA
ATOM     17  N   UNL     1      38.574   4.304  16.945  0.00  0.00    +0.000 NA
BRANCH  17  18
ATOM     18  C   UNL     1      38.734   5.730  17.154  0.00  0.00    +0.000 C 
BRANCH  18  19
ATOM     19  C   UNL     1      39.863   6.053  18.067  0.00  0.00    +0.000 A 
ATOM     20  C   UNL     1      41.161   6.223  17.598  0.00  0.00    +0.000 A 
ATOM     21  C   UNL     1      42.199   6.521  18.426  0.00  0.00    +0.000 A 
ATOM     22  C   UNL     1      41.992   6.669  19.794  0.00  0.00    +0.000 A 
ATOM     23  C   UNL     1      40.707   6.505  20.290  0.00  0.00    +0.000 A 
ATOM     24  C   UNL     1      39.685   6.204  19.420  0.00  0.00    +0.000 A 
ENDBRANCH  18  19
ENDBRANCH  17  18
ENDBRANCH   3  15
BRANCH  14  25
ATOM     25  C   UNL     1      35.964  -0.716  15.455  0.00  0.00    +0.000 C 
BRANCH  25  26
ATOM     26  C   UNL     1      36.579  -1.691  16.428  0.00  0.00    +0.000 C 
ATOM     27  C   UNL     1      36.526  -1.013  17.798  0.00  0.00    +0.000 C 
ATOM     28  C   UNL     1      35.243  -1.288  18.522  0.00  0.00    +0.000 C 
ATOM     29  C   UNL     1      34.090  -1.333  17.515  0.00  0.00    +0.000 C 
ATOM     30  C   UNL     1      34.249  -2.534  16.591  0.00  0.00    +0.000 C 
ATOM     31  C   UNL     1      35.708  -2.923  16.488  0.00  0.00    +0.000 C 
ENDBRANCH  25  26
ENDBRANCH  14  25
TORSDOF 5
ENDMDL
MODEL 4
REMARK VINA RESULT:      -7.7      0.938      1.658
REMARK  Name = 
REMARK  5 active torsions:
REMARK  status: ('A' for Active; 'I' for Inactive)
REMARK    1  A    between atoms: C_3  and  C_4
REMARK    2  A    between atoms: N_6  and  C_7
REMARK    3  A    between atoms: C_7  and  C_8
REMARK    4  A    between atoms: N_24  and  C_25
REMARK    5  A    between atoms: C_25  and  C_26
REMARK                            x       y       z     vdW  Elec       q    Type
REMARK                         _______ _______ _______ _____ _____    ______ ____
ROOT
ATOM      1  N   UNL     1      41.245   1.806  13.334  0.00  0.00    +0.000 NA
ATOM      2  C   UNL     1      40.107   1.197  13.938  0.00  0.00    +0.000 A 
ATOM      3  C   UNL     1      39.137   1.858  14.644  0.00  0.00    +0.000 A 
ATOM      4  C   UNL     1      38.224   0.886  15.049  0.00  0.00    +0.000 A 
ATOM      5  N   UNL     1      37.087   0.967  15.761  0.00  0.00    +0.000 NA
ATOM      6  C   UNL     1      36.416  -0.190  15.981  0.00  0.00    +0.000 A 
ATOM      7  C   UNL     1      35.234  -0.182  16.708  0.00  0.00    +0.000 A 
ATOM      8  C   UNL     1      34.536  -1.359  16.941  0.00  0.00    +0.000 A 
ATOM      9  C   UNL     1      34.999  -2.578  16.454  0.00  0.00    +0.000 A 
ATOM     10  C   UNL     1      36.174  -2.563  15.737  0.00  0.00    +0.000 A 
ATOM     11  C   UNL     1      36.873  -1.393  15.501  0.00  0.00    +0.000 A 
ATOM     12  N   UNL     1      38.010  -1.432  14.796  0.00  0.00    +0.000 NA
ATOM     13  C   UNL     1      38.713  -0.306  14.551  0.00  0.00    +0.000 A 
ATOM     14  N   UNL     1      39.850  -0.123  13.879  0.00  0.00    +0.000 N 
ENDROOT
BRANCH   3  15
ATOM     15  C   UNL     1      39.080   3.288  14.915  0.00  0.00    +0.000 C 
ATOM     16  O   UNL     1      39.076   4.098  13.955  0.00  0.00    +0.000 OA
ATOM     17  N   UNL     1      39.026   3.821  16.224  0.00  0.00    +0.000 NA
BRANCH  17  18
ATOM     18  C   UNL     1      38.970   5.261  16.395  0.00  0.00    +0.000 C 
BRANCH  18  19
ATOM     19  C   UNL     1      39.872   5.746  17.473  0.00  0.00    +0.000 A 
ATOM     20  C   UNL     1      39.460   5.815  18.800  0.00  0.00    +0.000 A 
ATOM     21  C   UNL     1      40.280   6.256  19.792  0.00  0.00    +0.000 A 
ATOM     22  C   UNL     1      41.582   6.658  19.507  0.00  0.00    +0.000 A 
ATOM     23  C   UNL     1      42.020   6.600  18.192  0.00  0.00    +0.000 A 
ATOM     24  C   UNL     1      41.160   6.149  17.218  0.00  0.00    +0.000 A 
ENDBRANCH  18  19
ENDBRANCH  17  18
ENDBRANCH   3  15
BRANCH  14  25
ATOM     25  C   UNL     1      40.622  -1.181  13.236  0.00  0.00    +0.000 C 
BRANCH  25  26
ATOM     26  C   UNL     1      39.933  -1.520  11.938  0.00  0.00    +0.000 C 
ATOM     27  C   UNL     1      40.311  -0.411  10.955  0.00  0.00    +0.000 C 
ATOM     28  C   UNL     1      41.581  -0.710  10.218  0.00  0.00    +0.000 C 
ATOM     29  C   UNL     1      42.557  -1.428  11.154  0.00  0.00    +0.000 C 
ATOM     30  C   UNL     1      42.016  -2.805  11.517  0.00  0.00    +0.000 C 
ATOM     31  C   UNL     1      40.506  -2.816  11.416  0.00  0.00    +0.000 C 
ENDBRANCH  25  26
ENDBRANCH  14  25
TORSDOF 5
ENDMDL
MODEL 5
REMARK VINA RESULT:      -7.6      4.472      7.252
REMARK  Name = 
REMARK  5 active torsions:
REMARK  status: ('A' for Active; 'I' for Inactive)
REMARK    1  A    between atoms: C_3  and  C_4
REMARK    2  A    between atoms: N_6  and  C_7
REMARK    3  A    between atoms: C_7  and  C_8
REMARK    4  A    between atoms: N_24  and  C_25
REMARK    5  A    between atoms: C_25  and  C_26
REMARK                            x       y       z     vdW  Elec       q    Type
REMARK                         _______ _______ _______ _____ _____    ______ ____
ROOT
ATOM      1  N   UNL     1      39.783  -2.957  15.970  0.00  0.00    +0.000 NA
ATOM      2  C   UNL     1      39.493  -2.173  14.815  0.00  0.00    +0.000 A 
ATOM      3  C   UNL     1      40.395  -1.838  13.840  0.00  0.00    +0.000 A 
ATOM      4  C   UNL     1      39.693  -1.073  12.911  0.00  0.00    +0.000 A 
ATOM      5  N   UNL     1      40.073  -0.488  11.763  0.00  0.00    +0.000 NA
ATOM      6  C   UNL     1      39.123   0.194  11.076  0.00  0.00    +0.000 A 
ATOM      7  C   UNL     1      39.444   0.824   9.882  0.00  0.00    +0.000 A 
ATOM      8  C   UNL     1      38.482   1.525   9.168  0.00  0.00    +0.000 A 
ATOM      9  C   UNL     1      37.172   1.617   9.628  0.00  0.00    +0.000 A 
ATOM     10  C   UNL     1      36.875   0.986  10.815  0.00  0.00    +0.000 A 
ATOM     11  C   UNL     1      37.830   0.285  11.530  0.00  0.00    +0.000 A 
ATOM     12  N   UNL     1      37.491  -0.312  12.678  0.00  0.00    +0.000 NA
ATOM     13  C   UNL     1      38.401  -1.002  13.396  0.00  0.00    +0.000 A 
ATOM     14  N   UNL     1      38.277  -1.665  14.547  0.00  0.00    +0.000 N 
ENDROOT
BRANCH   3  15
ATOM     15  C   UNL     1      41.804  -2.208  13.793  0.00  0.00    +0.000 C 
ATOM     16  O   UNL     1      42.150  -3.236  13.159  0.00  0.00    +0.000 OA
ATOM     17  N   UNL     1      42.818  -1.456  14.432  0.00  0.00    +0.000 NA
BRANCH  17  18
ATOM     18  C   UNL     1      44.194  -1.903  14.327  0.00  0.00    +0.000 C 
BRANCH  18  19
ATOM     19  C   UNL     1      44.985  -1.615  15.553  0.00  0.00    +0.000 A 
ATOM     20  C   UNL     1      45.655  -2.617  16.248  0.00  0.00    +0.000 A 
ATOM     21  C   UNL     1      46.382  -2.361  17.368  0.00  0.00    +0.000 A 
ATOM     22  C   UNL     1      46.484  -1.065  17.865  0.00  0.00    +0.000 A 
ATOM     23  C   UNL     1      45.827  -0.045  17.193  0.00  0.00    +0.000 A 
ATOM     24  C   UNL     1      45.101  -0.345  16.064  0.00  0.00    +0.000 A 
ENDBRANCH  18  19
ENDBRANCH  17  18
ENDBRANCH   3  15
BRANCH  14  25
ATOM     25  C   UNL     1      37.044  -1.777  15.318  0.00  0.00    +0.000 C 
BRANCH  25  26
ATOM     26  C   UNL     1      37.013  -0.629  16.296  0.00  0.00    +0.000 C 
ATOM     27  C   UNL     1      35.631   0.012  16.154  0.00  0.00    +0.000 C 
ATOM     28  C   UNL     1      34.614  -0.621  17.053  0.00  0.00    +0.000 C 
ATOM     29  C   UNL     1      34.882  -2.125  17.147  0.00  0.00    +0.000 C 
ATOM     30  C   UNL     1      36.204  -2.378  17.862  0.00  0.00    +0.000 C 
ATOM     31  C   UNL     1      37.123  -1.187  17.694  0.00  0.00    +0.000 C 
ENDBRANCH  25  26
ENDBRANCH  14  25
TORSDOF 5
ENDMDL
MODEL 6
REMARK VINA RESULT:      -7.4      2.938      4.578
REMARK  Name = 
REMARK  5 active torsions:
REMARK  status: ('A' for Active; 'I' for Inactive)
REMARK    1  A    between atoms: C_3  and  C_4
REMARK    2  A    between atoms: N_6  and  C_7
REMARK    3  A    between atoms: C_7  and  C_8
REMARK    4  A    between atoms: N_24  and  C_25
REMARK    5  A    between atoms: C_25  and  C_26
REMARK                            x       y       z     vdW  Elec       q    Type
REMARK                         _______ _______ _______ _____ _____    ______ ____
ROOT
ATOM      1  N   UNL     1      36.495   4.147  13.363  0.00  0.00    +0.000 NA
ATOM      2  C   UNL     1      37.246   2.943  13.492  0.00  0.00    +0.000 A 
ATOM      3  C   UNL     1      37.797   2.476  14.656  0.00  0.00    +0.000 A 
ATOM      4  C   UNL     1      38.436   1.282  14.328  0.00  0.00    +0.000 A 
ATOM      5  N   UNL     1      39.130   0.405  15.073  0.00  0.00    +0.000 NA
ATOM      6  C   UNL     1      39.628  -0.684  14.436  0.00  0.00    +0.000 A 
ATOM      7  C   UNL     1      40.356  -1.632  15.141  0.00  0.00    +0.000 A 
ATOM      8  C   UNL     1      40.872  -2.751  14.502  0.00  0.00    +0.000 A 
ATOM      9  C   UNL     1      40.676  -2.954  13.140  0.00  0.00    +0.000 A 
ATOM     10  C   UNL     1      39.952  -2.002  12.459  0.00  0.00    +0.000 A 
ATOM     11  C   UNL     1      39.435  -0.885  13.091  0.00  0.00    +0.000 A 
ATOM     12  N   UNL     1      38.737   0.012  12.385  0.00  0.00    +0.000 NA
ATOM     13  C   UNL     1      38.222   1.111  12.975  0.00  0.00    +0.000 A 
ATOM     14  N   UNL     1      37.503   2.113  12.466  0.00  0.00    +0.000 N 
ENDROOT
BRANCH   3  15
ATOM     15  C   UNL     1      37.726   3.106  15.968  0.00  0.00    +0.000 C 
ATOM     16  O   UNL     1      36.894   2.686  16.810  0.00  0.00    +0.000 OA
ATOM     17  N   UNL     1      38.559   4.184  16.348  0.00  0.00    +0.000 NA
BRANCH  17  18
ATOM     18  C   UNL     1      38.416   4.747  17.678  0.00  0.00    +0.000 C 
BRANCH  18  19
ATOM     19  C   UNL     1      39.606   5.534  18.098  0.00  0.00    +0.000 A 
ATOM     20  C   UNL     1      40.612   5.881  17.201  0.00  0.00    +0.000 A 
ATOM     21  C   UNL     1      41.702   6.602  17.578  0.00  0.00    +0.000 A 
ATOM     22  C   UNL     1      41.849   7.027  18.895  0.00  0.00    +0.000 A 
ATOM     23  C   UNL     1      40.862   6.695  19.811  0.00  0.00    +0.000 A 
ATOM     24  C   UNL     1      39.775   5.964  19.391  0.00  0.00    +0.000 A 
ENDBRANCH  18  19
ENDBRANCH  17  18
ENDBRANCH   3  15
BRANCH  14  25
ATOM     25  C   UNL     1      37.111   2.233  11.066  0.00  0.00    +0.000 C 
BRANCH  25  26
ATOM     26  C   UNL     1      38.176   3.036  10.362  0.00  0.00    +0.000 C 
ATOM     27  C   UNL     1      38.841   2.081   9.370  0.00  0.00    +0.000 C 
ATOM     28  C   UNL     1      38.149   2.066   8.042  0.00  0.00    +0.000 C 
ATOM     29  C   UNL     1      36.639   2.206   8.252  0.00  0.00    +0.000 C 
ATOM     30  C   UNL     1      36.315   3.585   8.813  0.00  0.00    +0.000 C 
ATOM     31  C   UNL     1      37.506   4.133   9.570  0.00  0.00    +0.000 C 
ENDBRANCH  25  26
ENDBRANCH  14  25
TORSDOF 5
ENDMDL
MODEL 7
REMARK VINA RESULT:      -7.4      3.398      8.422
REMARK  Name = 
REMARK  5 active torsions:
REMARK  status: ('A' for Active; 'I' for Inactive)
REMARK    1  A    between atoms: C_3  and  C_4
REMARK    2  A    between atoms: N_6  and  C_7
REMARK    3  A    between atoms: C_7  and  C_8
REMARK    4  A    between atoms: N_24  and  C_25
REMARK    5  A    between atoms: C_25  and  C_26
REMARK                            x       y       z     vdW  Elec       q    Type
REMARK                         _______ _______ _______ _____ _____    ______ ____
ROOT
ATOM      1  N   UNL     1      38.278   3.908  18.273  0.00  0.00    +0.000 NA
ATOM      2  C   UNL     1      37.989   4.565  17.042  0.00  0.00    +0.000 A 
ATOM      3  C   UNL     1      37.529   3.952  15.907  0.00  0.00    +0.000 A 
ATOM      4  C   UNL     1      37.384   4.960  14.956  0.00  0.00    +0.000 A 
ATOM      5  N   UNL     1      36.968   4.932  13.678  0.00  0.00    +0.000 NA
ATOM      6  C   UNL     1      36.938   6.114  13.015  0.00  0.00    +0.000 A 
ATOM      7  C   UNL     1      36.519   6.161  11.693  0.00  0.00    +0.000 A 
ATOM      8  C   UNL     1      36.483   7.365  11.002  0.00  0.00    +0.000 A 
ATOM      9  C   UNL     1      36.867   8.555  11.612  0.00  0.00    +0.000 A 
ATOM     10  C   UNL     1      37.280   8.486  12.923  0.00  0.00    +0.000 A 
ATOM     11  C   UNL     1      37.316   7.290  13.617  0.00  0.00    +0.000 A 
ATOM     12  N   UNL     1      37.725   7.275  14.891  0.00  0.00    +0.000 NA
ATOM     13  C   UNL     1      37.771   6.123  15.592  0.00  0.00    +0.000 A 
ATOM     14  N   UNL     1      38.138   5.889  16.853  0.00  0.00    +0.000 N 
ENDROOT
BRANCH   3  15
ATOM     15  C   UNL     1      37.250   2.532  15.736  0.00  0.00    +0.000 C 
ATOM     16  O   UNL     1      38.150   1.777  15.292  0.00  0.00    +0.000 OA
ATOM     17  N   UNL     1      35.999   1.951  16.052  0.00  0.00    +0.000 NA
BRANCH  17  18
ATOM     18  C   UNL     1      35.816   0.526  15.850  0.00  0.00    +0.000 C 
BRANCH  18  19
ATOM     19  C   UNL     1      36.278  -0.281  17.010  0.00  0.00    +0.000 A 
ATOM     20  C   UNL     1      37.244  -1.272  16.877  0.00  0.00    +0.000 A 
ATOM     21  C   UNL     1      37.673  -2.014  17.934  0.00  0.00    +0.000 A 
ATOM     22  C   UNL     1      37.151  -1.800  19.207  0.00  0.00    +0.000 A 
ATOM     23  C   UNL     1      36.186  -0.817  19.369  0.00  0.00    +0.000 A 
ATOM     24  C   UNL     1      35.779  -0.090  18.275  0.00  0.00    +0.000 A 
ENDBRANCH  18  19
ENDBRANCH  17  18
ENDBRANCH   3  15
BRANCH  14  25
ATOM     25  C   UNL     1      38.604   6.905  17.791  0.00  0.00    +0.000 C 
BRANCH  25  26
ATOM     26  C   UNL     1      40.076   7.115  17.538  0.00  0.00    +0.000 C 
ATOM     27  C   UNL     1      40.349   8.592  17.829  0.00  0.00    +0.000 C 
ATOM     28  C   UNL     1      40.686   8.836  19.268  0.00  0.00    +0.000 C 
ATOM     29  C   UNL     1      39.854   7.903  20.152  0.00  0.00    +0.000 C 
ATOM     30  C   UNL     1      40.273   6.456  19.924  0.00  0.00    +0.000 C 
ATOM     31  C   UNL     1      40.856   6.295  18.537  0.00  0.00    +0.000 C 
ENDBRANCH  25  26
ENDBRANCH  14  25
TORSDOF 5
ENDMDL
MODEL 8
REMARK VINA RESULT:      -7.4     27.225     31.648
REMARK  Name = 
REMARK  5 active torsions:
REMARK  status: ('A' for Active; 'I' for Inactive)
REMARK    1  A    between atoms: C_3  and  C_4
REMARK    2  A    between atoms: N_6  and  C_7
REMARK    3  A    between atoms: C_7  and  C_8
REMARK    4  A    between atoms: N_24  and  C_25
REMARK    5  A    between atoms: C_25  and  C_26
REMARK                            x       y       z     vdW  Elec       q    Type
REMARK                         _______ _______ _______ _____ _____    ______ ____
ROOT
ATOM      1  N   UNL     1      24.590  17.108  40.084  0.00  0.00    +0.000 NA
ATOM      2  C   UNL     1      24.992  15.796  40.466  0.00  0.00    +0.000 A 
ATOM      3  C   UNL     1      25.920  15.031  39.811  0.00  0.00    +0.000 A 
ATOM      4  C   UNL     1      26.004  13.834  40.520  0.00  0.00    +0.000 A 
ATOM      5  N   UNL     1      26.749  12.732  40.331  0.00  0.00    +0.000 NA
ATOM      6  C   UNL     1      26.593  11.724  41.224  0.00  0.00    +0.000 A 
ATOM      7  C   UNL     1      27.330  10.555  41.091  0.00  0.00    +0.000 A 
ATOM      8  C   UNL     1      27.181   9.515  41.997  0.00  0.00    +0.000 A 
ATOM      9  C   UNL     1      26.290   9.611  43.062  0.00  0.00    +0.000 A 
ATOM     10  C   UNL     1      25.568  10.778  43.175  0.00  0.00    +0.000 A 
ATOM     11  C   UNL     1      25.714  11.819  42.274  0.00  0.00    +0.000 A 
ATOM     12  N   UNL     1      24.989  12.934  42.428  0.00  0.00    +0.000 NA
ATOM     13  C   UNL     1      25.111  13.964  41.565  0.00  0.00    +0.000 A 
ATOM     14  N   UNL     1      24.497  15.148  41.537  0.00  0.00    +0.000 N 
ENDROOT
BRANCH   3  15
ATOM     15  C   UNL     1      26.665  15.400  38.614  0.00  0.00    +0.000 C 
ATOM     16  O   UNL     1      27.794  15.937  38.731  0.00  0.00    +0.000 OA
ATOM     17  N   UNL     1      26.173  15.181  37.306  0.00  0.00    +0.000 NA
BRANCH  17  18
ATOM     18  C   UNL     1      26.988  15.581  36.174  0.00  0.00    +0.000 C 
BRANCH  18  19
ATOM     19  C   UNL     1      26.220  15.619  34.900  0.00  0.00    +0.000 A 
ATOM     20  C   UNL     1      25.622  16.787  34.438  0.00  0.00    +0.000 A 
ATOM     21  C   UNL     1      24.920  16.830  33.273  0.00  0.00    +0.000 A 
ATOM     22  C   UNL     1      24.777  15.687  32.490  0.00  0.00    +0.000 A 
ATOM     23  C   UNL     1      25.364  14.509  32.927  0.00  0.00    +0.000 A 
ATOM     24  C   UNL     1      26.064  14.506  34.110  0.00  0.00    +0.000 A 
ENDBRANCH  18  19
ENDBRANCH  17  18
ENDBRANCH   3  15
BRANCH  14  25
ATOM     25  C   UNL     1      23.494  15.593  42.497  0.00  0.00    +0.000 C 
BRANCH  25  26
ATOM     26  C   UNL     1      22.147  15.139  41.992  0.00  0.00    +0.000 C 
ATOM     27  C   UNL     1      21.429  14.525  43.194  0.00  0.00    +0.000 C 
ATOM     28  C   UNL     1      20.655  15.541  43.977  0.00  0.00    +0.000 C 
ATOM     29  C   UNL     1      21.424  16.865  43.992  0.00  0.00    +0.000 C 
ATOM     30  C   UNL     1      21.478  17.455  42.589  0.00  0.00    +0.000 C 
ATOM     31  C   UNL     1      21.364  16.354  41.556  0.00  0.00    +0.000 C 
ENDBRANCH  25  26
ENDBRANCH  14  25
TORSDOF 5
ENDMDL
MODEL 9
REMARK VINA RESULT:      -7.4      3.212      8.337
REMARK  Name = 
REMARK  5 active torsions:
REMARK  status: ('A' for Active; 'I' for Inactive)
REMARK    1  A    between atoms: C_3  and  C_4
REMARK    2  A    between atoms: N_6  and  C_7
REMARK    3  A    between atoms: C_7  and  C_8
REMARK    4  A    between atoms: N_24  and  C_25
REMARK    5  A    between atoms: C_25  and  C_26
REMARK                            x       y       z     vdW  Elec       q    Type
REMARK                         _______ _______ _______ _____ _____    ______ ____
ROOT
ATOM      1  N   UNL     1      37.535   3.752  12.173  0.00  0.00    +0.000 NA
ATOM      2  C   UNL     1      37.832   4.292  13.457  0.00  0.00    +0.000 A 
ATOM      3  C   UNL     1      38.567   3.665  14.428  0.00  0.00    +0.000 A 
ATOM      4  C   UNL     1      38.609   4.543  15.509  0.00  0.00    +0.000 A 
ATOM      5  N   UNL     1      39.189   4.449  16.717  0.00  0.00    +0.000 NA
ATOM      6  C   UNL     1      39.042   5.505  17.554  0.00  0.00    +0.000 A 
ATOM      7  C   UNL     1      39.614   5.478  18.819  0.00  0.00    +0.000 A 
ATOM      8  C   UNL     1      39.472   6.552  19.686  0.00  0.00    +0.000 A 
ATOM      9  C   UNL     1      38.754   7.685  19.315  0.00  0.00    +0.000 A 
ATOM     10  C   UNL     1      38.193   7.691  18.057  0.00  0.00    +0.000 A 
ATOM     11  C   UNL     1      38.333   6.623  17.188  0.00  0.00    +0.000 A 
ATOM     12  N   UNL     1      37.770   6.678  15.976  0.00  0.00    +0.000 NA
ATOM     13  C   UNL     1      37.889   5.652  15.108  0.00  0.00    +0.000 A 
ATOM     14  N   UNL     1      37.418   5.504  13.869  0.00  0.00    +0.000 N 
ENDROOT
BRANCH   3  15
ATOM     15  C   UNL     1      39.177   2.344  14.342  0.00  0.00    +0.000 C 
ATOM     16  O   UNL     1      40.169   2.171  13.591  0.00  0.00    +0.000 OA
ATOM     17  N   UNL     1      38.703   1.229  15.073  0.00  0.00    +0.000 NA
BRANCH  17  18
ATOM     18  C   UNL     1      39.377  -0.047  14.923  0.00  0.00    +0.000 C 
BRANCH  18  19
ATOM     19  C   UNL     1      38.740  -1.128  15.720  0.00  0.00    +0.000 A 
ATOM     20  C   UNL     1      39.328  -2.381  15.860  0.00  0.00    +0.000 A 
ATOM     21  C   UNL     1      38.753  -3.375  16.590  0.00  0.00    +0.000 A 
ATOM     22  C   UNL     1      37.537  -3.167  17.233  0.00  0.00    +0.000 A 
ATOM     23  C   UNL     1      36.927  -1.928  17.111  0.00  0.00    +0.000 A 
ATOM     24  C   UNL     1      37.540  -0.949  16.364  0.00  0.00    +0.000 A 
ENDBRANCH  18  19
ENDBRANCH  17  18
ENDBRANCH   3  15
BRANCH  14  25
ATOM     25  C   UNL     1      36.614   6.491  13.157  0.00  0.00    +0.000 C 
BRANCH  25  26
ATOM     26  C   UNL     1      35.266   5.872  12.887  0.00  0.00    +0.000 C 
ATOM     27  C   UNL     1      34.420   6.139  14.133  0.00  0.00    +0.000 C 
ATOM     28  C   UNL     1      33.696   7.448  14.061  0.00  0.00    +0.000 C 
ATOM     29  C   UNL     1      34.581   8.482  13.358  0.00  0.00    +0.000 C 
ATOM     30  C   UNL     1      34.777   8.096  11.897  0.00  0.00    +0.000 C 
ATOM     31  C   UNL     1      34.627   6.599  11.729  0.00  0.00    +0.000 C 
ENDBRANCH  25  26
ENDBRANCH  14  25
TORSDOF 5
ENDMDL
MODEL 10
REMARK VINA RESULT:      -7.2     24.821     29.562
REMARK  Name = 
REMARK  5 active torsions:
REMARK  status: ('A' for Active; 'I' for Inactive)
REMARK    1  A    between atoms: C_3  and  C_4
REMARK    2  A    between atoms: N_6  and  C_7
REMARK    3  A    between atoms: C_7  and  C_8
REMARK    4  A    between atoms: N_24  and  C_25
REMARK    5  A    between atoms: C_25  and  C_26
REMARK                            x       y       z     vdW  Elec       q    Type
REMARK                         _______ _______ _______ _____ _____    ______ ____
ROOT
ATOM      1  N   UNL     1      11.671   2.612  27.503  0.00  0.00    +0.000 NA
ATOM      2  C   UNL     1      11.419   1.412  26.778  0.00  0.00    +0.000 A 
ATOM      3  C   UNL     1      12.270   0.341  26.700  0.00  0.00    +0.000 A 
ATOM      4  C   UNL     1      11.632  -0.602  25.898  0.00  0.00    +0.000 A 
ATOM      5  N   UNL     1      12.001  -1.829  25.492  0.00  0.00    +0.000 NA
ATOM      6  C   UNL     1      11.128  -2.504  24.704  0.00  0.00    +0.000 A 
ATOM      7  C   UNL     1      11.443  -3.777  24.247  0.00  0.00    +0.000 A 
ATOM      8  C   UNL     1      10.559  -4.480  23.440  0.00  0.00    +0.000 A 
ATOM      9  C   UNL     1       9.337  -3.931  23.064  0.00  0.00    +0.000 A 
ATOM     10  C   UNL     1       9.045  -2.668  23.527  0.00  0.00    +0.000 A 
ATOM     11  C   UNL     1       9.922  -1.963  24.333  0.00  0.00    +0.000 A 
ATOM     12  N   UNL     1       9.591  -0.738  24.758  0.00  0.00    +0.000 NA
ATOM     13  C   UNL     1      10.426  -0.028  25.545  0.00  0.00    +0.000 A 
ATOM     14  N   UNL     1      10.294   1.189  26.075  0.00  0.00    +0.000 N 
ENDROOT
BRANCH   3  15
ATOM     15  C   UNL     1      13.578   0.221  27.331  0.00  0.00    +0.000 C 
ATOM     16  O   UNL     1      13.650  -0.068  28.551  0.00  0.00    +0.000 OA
ATOM     17  N   UNL     1      14.791   0.415  26.629  0.00  0.00    +0.000 NA
BRANCH  17  18
ATOM     18  C   UNL     1      16.046   0.272  27.342  0.00  0.00    +0.000 C 
BRANCH  18  19
ATOM     19  C   UNL     1      17.201   0.049  26.432  0.00  0.00    +0.000 A 
ATOM     20  C   UNL     1      17.787   1.091  25.721  0.00  0.00    +0.000 A 
ATOM     21  C   UNL     1      18.845   0.895  24.888  0.00  0.00    +0.000 A 
ATOM     22  C   UNL     1      19.387  -0.376  24.719  0.00  0.00    +0.000 A 
ATOM     23  C   UNL     1      18.822  -1.433  25.416  0.00  0.00    +0.000 A 
ATOM     24  C   UNL     1      17.753  -1.195  26.248  0.00  0.00    +0.000 A 
ENDBRANCH  18  19
ENDBRANCH  17  18
ENDBRANCH   3  15
BRANCH  14  25
ATOM     25  C   UNL     1       9.140   2.062  25.888  0.00  0.00    +0.000 C 
BRANCH  25  26
ATOM     26  C   UNL     1       8.320   2.008  27.152  0.00  0.00    +0.000 C 
ATOM     27  C   UNL     1       7.614   3.360  27.258  0.00  0.00    +0.000 C 
ATOM     28  C   UNL     1       6.294   3.372  26.549  0.00  0.00    +0.000 C 
ATOM     29  C   UNL     1       6.392   2.526  25.276  0.00  0.00    +0.000 C 
ATOM     30  C   UNL     1       6.596   1.060  25.637  0.00  0.00    +0.000 C 
ATOM     31  C   UNL     1       7.260   0.944  26.992  0.00  0.00    +0.000 C 
ENDBRANCH  25  26
ENDBRANCH  14  25
TORSDOF 5
ENDMDL
