MODEL 1
REMARK VINA RESULT:      -7.7      0.000      0.000
REMARK  Name = 
REMARK  2 active torsions:
REMARK  status: ('A' for Active; 'I' for Inactive)
REMARK    1  A    between atoms: C_6  and  N_7
REMARK    2  A    between atoms: C_8  and  C_10
REMARK                            x       y       z     vdW  Elec       q    Type
REMARK                         _______ _______ _______ _____ _____    ______ ____
ROOT
ATOM      1  N   UNL     1      15.493  11.274  36.049  0.00  0.00    +0.000 NA
ATOM      2  C   UNL     1      16.701  11.513  36.743  0.00  0.00    +0.000 C 
ATOM      3  O   UNL     1      17.412  12.482  36.403  0.00  0.00    +0.000 OA
ENDROOT
BRANCH   1   9
ATOM      4  C   UNL     1      13.638  14.261  31.535  0.00  0.00    +0.000 C 
ATOM      5  C   UNL     1      14.116  13.490  32.721  0.00  0.00    +0.000 A 
ATOM      6  C   UNL     1      14.865  12.339  32.582  0.00  0.00    +0.000 A 
ATOM      7  C   UNL     1      15.301  11.635  33.698  0.00  0.00    +0.000 A 
ATOM      8  O   UNL     1      16.050  10.485  33.500  0.00  0.00    +0.000 OA
ATOM      9  C   UNL     1      15.007  12.052  34.981  0.00  0.00    +0.000 A 
ATOM     10  C   UNL     1      14.259  13.201  35.128  0.00  0.00    +0.000 A 
ATOM     11  C   UNL     1      13.829  13.898  34.006  0.00  0.00    +0.000 A 
ATOM     12  C   UNL     1      13.016  15.148  34.136  0.00  0.00    +0.000 C 
ENDBRANCH   1   9
BRANCH   2  13
ATOM     13  C   UNL     1      17.051  10.608  37.825  0.00  0.00    +0.000 A 
ATOM     14  C   UNL     1      16.250  10.472  38.960  0.00  0.00    +0.000 A 
ATOM     15  C   UNL     1      16.591   9.611  39.981  0.00  0.00    +0.000 A 
ATOM     16  C   UNL     1      17.735   8.844  39.930  0.00  0.00    +0.000 A 
ATOM     17 BR   UNL     1      18.174   7.664  41.359  0.00  0.00    +0.000 Br
ATOM     18  C   UNL     1      18.540   8.966  38.813  0.00  0.00    +0.000 A 
ATOM     19  C   UNL     1      18.189   9.831  37.797  0.00  0.00    +0.000 A 
ENDBRANCH   2  13
TORSDOF 2
ENDMDL
MODEL 2
REMARK VINA RESULT:      -6.6      1.295      1.377
REMARK  Name = 
REMARK  2 active torsions:
REMARK  status: ('A' for Active; 'I' for Inactive)
REMARK    1  A    between atoms: C_6  and  N_7
REMARK    2  A    between atoms: C_8  and  C_10
REMARK                            x       y       z     vdW  Elec       q    Type
REMARK                         _______ _______ _______ _____ _____    ______ ____
ROOT
ATOM      1  N   UNL     1      16.726  11.217  36.224  0.00  0.00    +0.000 NA
ATOM      2  C   UNL     1      16.146  10.878  37.468  0.00  0.00    +0.000 C 
ATOM      3  O   UNL     1      14.912  11.011  37.615  0.00  0.00    +0.000 OA
ENDROOT
BRANCH   1   9
ATOM      4  C   UNL     1      13.978  12.998  31.532  0.00  0.00    +0.000 C 
ATOM      5  C   UNL     1      14.689  12.542  32.764  0.00  0.00    +0.000 A 
ATOM      6  C   UNL     1      15.580  11.490  32.737  0.00  0.00    +0.000 A 
ATOM      7  C   UNL     1      16.233  11.079  33.894  0.00  0.00    +0.000 A 
ATOM      8  O   UNL     1      17.118  10.016  33.809  0.00  0.00    +0.000 OA
ATOM      9  C   UNL     1      16.019  11.702  35.108  0.00  0.00    +0.000 A 
ATOM     10  C   UNL     1      15.130  12.754  35.143  0.00  0.00    +0.000 A 
ATOM     11  C   UNL     1      14.483  13.157  33.981  0.00  0.00    +0.000 A 
ATOM     12  C   UNL     1      13.513  14.296  33.990  0.00  0.00    +0.000 C 
ENDBRANCH   1   9
BRANCH   2  13
ATOM     13  C   UNL     1      17.026  10.391  38.516  0.00  0.00    +0.000 A 
ATOM     14  C   UNL     1      16.537   9.703  39.628  0.00  0.00    +0.000 A 
ATOM     15  C   UNL     1      17.380   9.244  40.617  0.00  0.00    +0.000 A 
ATOM     16  C   UNL     1      18.743   9.441  40.556  0.00  0.00    +0.000 A 
ATOM     17 BR   UNL     1      19.877   8.794  41.942  0.00  0.00    +0.000 Br
ATOM     18  C   UNL     1      19.244  10.121  39.462  0.00  0.00    +0.000 A 
ATOM     19  C   UNL     1      18.391  10.576  38.477  0.00  0.00    +0.000 A 
ENDBRANCH   2  13
TORSDOF 2
ENDMDL
MODEL 3
REMARK VINA RESULT:      -6.6      3.277      7.392
REMARK  Name = 
REMARK  2 active torsions:
REMARK  status: ('A' for Active; 'I' for Inactive)
REMARK    1  A    between atoms: C_6  and  N_7
REMARK    2  A    between atoms: C_8  and  C_10
REMARK                            x       y       z     vdW  Elec       q    Type
REMARK                         _______ _______ _______ _____ _____    ______ ____
ROOT
ATOM      1  N   UNL     1      17.119  10.023  37.256  0.00  0.00    +0.000 NA
ATOM      2  C   UNL     1      17.084  11.279  36.608  0.00  0.00    +0.000 C 
ATOM      3  O   UNL     1      17.506  12.285  37.218  0.00  0.00    +0.000 OA
ENDROOT
BRANCH   1   9
ATOM      4  C   UNL     1      19.329   9.081  42.448  0.00  0.00    +0.000 C 
ATOM      5  C   UNL     1      18.740   9.328  41.099  0.00  0.00    +0.000 A 
ATOM      6  C   UNL     1      19.519   9.331  39.960  0.00  0.00    +0.000 A 
ATOM      7  C   UNL     1      18.953   9.564  38.711  0.00  0.00    +0.000 A 
ATOM      8  O   UNL     1      19.782   9.555  37.601  0.00  0.00    +0.000 OA
ATOM      9  C   UNL     1      17.601   9.799  38.559  0.00  0.00    +0.000 A 
ATOM     10  C   UNL     1      16.816   9.798  39.693  0.00  0.00    +0.000 A 
ATOM     11  C   UNL     1      17.391   9.564  40.935  0.00  0.00    +0.000 A 
ATOM     12  C   UNL     1      16.564   9.556  42.183  0.00  0.00    +0.000 C 
ENDBRANCH   1   9
BRANCH   2  13
ATOM     13  C   UNL     1      16.552  11.331  35.257  0.00  0.00    +0.000 A 
ATOM     14  C   UNL     1      15.437  12.104  34.933  0.00  0.00    +0.000 A 
ATOM     15  C   UNL     1      14.940  12.147  33.648  0.00  0.00    +0.000 A 
ATOM     16  C   UNL     1      15.519  11.429  32.624  0.00  0.00    +0.000 A 
ATOM     17 BR   UNL     1      14.805  11.511  30.860  0.00  0.00    +0.000 Br
ATOM     18  C   UNL     1      16.625  10.656  32.927  0.00  0.00    +0.000 A 
ATOM     19  C   UNL     1      17.114  10.622  34.217  0.00  0.00    +0.000 A 
ENDBRANCH   2  13
TORSDOF 2
ENDMDL
MODEL 4
REMARK VINA RESULT:      -6.3     19.898     21.488
REMARK  Name = 
REMARK  2 active torsions:
REMARK  status: ('A' for Active; 'I' for Inactive)
REMARK    1  A    between atoms: C_6  and  N_7
REMARK    2  A    between atoms: C_8  and  C_10
REMARK                            x       y       z     vdW  Elec       q    Type
REMARK                         _______ _______ _______ _____ _____    ______ ____
ROOT
ATOM      1  N   UNL     1      33.762  -0.125  34.367  0.00  0.00    +0.000 NA
ATOM      2  C   UNL     1      32.662  -0.958  34.676  0.00  0.00    +0.000 C 
ATOM      3  O   UNL     1      31.649  -0.450  35.201  0.00  0.00    +0.000 OA
ENDROOT
BRANCH   1   9
ATOM      4  C   UNL     1      33.973   5.551  35.055  0.00  0.00    +0.000 C 
ATOM      5  C   UNL     1      33.919   4.068  34.888  0.00  0.00    +0.000 A 
ATOM      6  C   UNL     1      33.827   3.484  33.642  0.00  0.00    +0.000 A 
ATOM      7  C   UNL     1      33.778   2.101  33.507  0.00  0.00    +0.000 A 
ATOM      8  O   UNL     1      33.686   1.567  32.231  0.00  0.00    +0.000 OA
ATOM      9  C   UNL     1      33.817   1.262  34.603  0.00  0.00    +0.000 A 
ATOM     10  C   UNL     1      33.908   1.839  35.851  0.00  0.00    +0.000 A 
ATOM     11  C   UNL     1      33.958   3.221  35.976  0.00  0.00    +0.000 A 
ATOM     12  C   UNL     1      34.057   3.875  37.319  0.00  0.00    +0.000 C 
ENDBRANCH   1   9
BRANCH   2  13
ATOM     13  C   UNL     1      32.775  -2.372  34.364  0.00  0.00    +0.000 A 
ATOM     14  C   UNL     1      32.075  -3.343  35.082  0.00  0.00    +0.000 A 
ATOM     15  C   UNL     1      32.188  -4.683  34.778  0.00  0.00    +0.000 A 
ATOM     16  C   UNL     1      32.996  -5.127  33.753  0.00  0.00    +0.000 A 
ATOM     17 BR   UNL     1      33.128  -6.986  33.361  0.00  0.00    +0.000 Br
ATOM     18  C   UNL     1      33.696  -4.179  33.031  0.00  0.00    +0.000 A 
ATOM     19  C   UNL     1      33.575  -2.840  33.344  0.00  0.00    +0.000 A 
ENDBRANCH   2  13
TORSDOF 2
ENDMDL
MODEL 5
REMARK VINA RESULT:      -6.3     22.744     24.006
REMARK  Name = 
REMARK  2 active torsions:
REMARK  status: ('A' for Active; 'I' for Inactive)
REMARK    1  A    between atoms: C_6  and  N_7
REMARK    2  A    between atoms: C_8  and  C_10
REMARK                            x       y       z     vdW  Elec       q    Type
REMARK                         _______ _______ _______ _____ _____    ______ ____
ROOT
ATOM      1  N   UNL     1      22.671  -7.659  24.842  0.00  0.00    +0.000 NA
ATOM      2  C   UNL     1      22.915  -7.851  23.463  0.00  0.00    +0.000 C 
ATOM      3  O   UNL     1      21.950  -7.832  22.671  0.00  0.00    +0.000 OA
ENDROOT
BRANCH   1   9
ATOM      4  C   UNL     1      17.503  -7.041  27.217  0.00  0.00    +0.000 C 
ATOM      5  C   UNL     1      18.852  -7.190  26.595  0.00  0.00    +0.000 A 
ATOM      6  C   UNL     1      19.455  -8.423  26.461  0.00  0.00    +0.000 A 
ATOM      7  C   UNL     1      20.712  -8.542  25.880  0.00  0.00    +0.000 A 
ATOM      8  O   UNL     1      21.271  -9.805  25.770  0.00  0.00    +0.000 OA
ATOM      9  C   UNL     1      21.405  -7.441  25.416  0.00  0.00    +0.000 A 
ATOM     10  C   UNL     1      20.809  -6.204  25.547  0.00  0.00    +0.000 A 
ATOM     11  C   UNL     1      19.552  -6.097  26.129  0.00  0.00    +0.000 A 
ATOM     12  C   UNL     1      18.882  -4.767  26.284  0.00  0.00    +0.000 C 
ENDBRANCH   1   9
BRANCH   2  13
ATOM     13  C   UNL     1      24.289  -8.064  23.041  0.00  0.00    +0.000 A 
ATOM     14  C   UNL     1      24.678  -9.212  22.350  0.00  0.00    +0.000 A 
ATOM     15  C   UNL     1      25.984  -9.405  21.953  0.00  0.00    +0.000 A 
ATOM     16  C   UNL     1      26.967  -8.476  22.220  0.00  0.00    +0.000 A 
ATOM     17 BR   UNL     1      28.761  -8.776  21.658  0.00  0.00    +0.000 Br
ATOM     18  C   UNL     1      26.599  -7.333  22.905  0.00  0.00    +0.000 A 
ATOM     19  C   UNL     1      25.289  -7.150  23.296  0.00  0.00    +0.000 A 
ENDBRANCH   2  13
TORSDOF 2
ENDMDL
MODEL 6
REMARK VINA RESULT:      -6.2     21.775     22.974
REMARK  Name = 
REMARK  2 active torsions:
REMARK  status: ('A' for Active; 'I' for Inactive)
REMARK    1  A    between atoms: C_6  and  N_7
REMARK    2  A    between atoms: C_8  and  C_10
REMARK                            x       y       z     vdW  Elec       q    Type
REMARK                         _______ _______ _______ _____ _____    ______ ____
ROOT
ATOM      1  N   UNL     1      15.970  -8.607  26.640  0.00  0.00    +0.000 NA
ATOM      2  C   UNL     1      14.855  -8.593  25.772  0.00  0.00    +0.000 C 
ATOM      3  O   UNL     1      14.978  -8.080  24.639  0.00  0.00    +0.000 OA
ENDROOT
BRANCH   1   9
ATOM      4  C   UNL     1      21.211  -6.727  25.322  0.00  0.00    +0.000 C 
ATOM      5  C   UNL     1      19.840  -7.205  25.669  0.00  0.00    +0.000 A 
ATOM      6  C   UNL     1      19.478  -8.529  25.526  0.00  0.00    +0.000 A 
ATOM      7  C   UNL     1      18.196  -8.956  25.854  0.00  0.00    +0.000 A 
ATOM      8  O   UNL     1      17.886 -10.296  25.690  0.00  0.00    +0.000 OA
ATOM      9  C   UNL     1      17.240  -8.082  26.334  0.00  0.00    +0.000 A 
ATOM     10  C   UNL     1      17.595  -6.758  26.480  0.00  0.00    +0.000 A 
ATOM     11  C   UNL     1      18.878  -6.342  26.150  0.00  0.00    +0.000 A 
ATOM     12  C   UNL     1      19.290  -4.911  26.299  0.00  0.00    +0.000 C 
ENDBRANCH   1   9
BRANCH   2  13
ATOM     13  C   UNL     1      13.616  -9.180  26.251  0.00  0.00    +0.000 A 
ATOM     14  C   UNL     1      12.401  -8.496  26.181  0.00  0.00    +0.000 A 
ATOM     15  C   UNL     1      11.231  -9.062  26.638  0.00  0.00    +0.000 A 
ATOM     16  C   UNL     1      11.202 -10.327  27.185  0.00  0.00    +0.000 A 
ATOM     17 BR   UNL     1       9.566 -11.077  27.806  0.00  0.00    +0.000 Br
ATOM     18  C   UNL     1      12.397 -11.019  27.262  0.00  0.00    +0.000 A 
ATOM     19  C   UNL     1      13.563 -10.443  26.801  0.00  0.00    +0.000 A 
ENDBRANCH   2  13
TORSDOF 2
ENDMDL
MODEL 7
REMARK VINA RESULT:      -6.0      4.207      8.379
REMARK  Name = 
REMARK  2 active torsions:
REMARK  status: ('A' for Active; 'I' for Inactive)
REMARK    1  A    between atoms: C_6  and  N_7
REMARK    2  A    between atoms: C_8  and  C_10
REMARK                            x       y       z     vdW  Elec       q    Type
REMARK                         _______ _______ _______ _____ _____    ______ ____
ROOT
ATOM      1  N   UNL     1      16.447   9.268  40.326  0.00  0.00    +0.000 NA
ATOM      2  C   UNL     1      17.586   9.725  39.624  0.00  0.00    +0.000 C 
ATOM      3  O   UNL     1      18.649   9.912  40.253  0.00  0.00    +0.000 OA
ENDROOT
BRANCH   1   9
ATOM      4  C   UNL     1      16.289   7.900  45.879  0.00  0.00    +0.000 C 
ATOM      5  C   UNL     1      16.329   8.269  44.433  0.00  0.00    +0.000 A 
ATOM      6  C   UNL     1      16.431   7.313  43.445  0.00  0.00    +0.000 A 
ATOM      7  C   UNL     1      16.468   7.676  42.103  0.00  0.00    +0.000 A 
ATOM      8  O   UNL     1      16.571   6.674  41.152  0.00  0.00    +0.000 OA
ATOM      9  C   UNL     1      16.404   8.997  41.707  0.00  0.00    +0.000 A 
ATOM     10  C   UNL     1      16.302   9.959  42.689  0.00  0.00    +0.000 A 
ATOM     11  C   UNL     1      16.266   9.586  44.026  0.00  0.00    +0.000 A 
ATOM     12  C   UNL     1      16.156  10.609  45.114  0.00  0.00    +0.000 C 
ENDBRANCH   1   9
BRANCH   2  13
ATOM     13  C   UNL     1      17.454   9.954  38.196  0.00  0.00    +0.000 A 
ATOM     14  C   UNL     1      18.327   9.376  37.273  0.00  0.00    +0.000 A 
ATOM     15  C   UNL     1      18.193   9.599  35.919  0.00  0.00    +0.000 A 
ATOM     16  C   UNL     1      17.194  10.403  35.413  0.00  0.00    +0.000 A 
ATOM     17 BR   UNL     1      17.041  10.690  33.537  0.00  0.00    +0.000 Br
ATOM     18  C   UNL     1      16.321  10.985  36.312  0.00  0.00    +0.000 A 
ATOM     19  C   UNL     1      16.464  10.754  37.666  0.00  0.00    +0.000 A 
ENDBRANCH   2  13
TORSDOF 2
ENDMDL
MODEL 8
REMARK VINA RESULT:      -6.0     19.555     20.433
REMARK  Name = 
REMARK  2 active torsions:
REMARK  status: ('A' for Active; 'I' for Inactive)
REMARK    1  A    between atoms: C_6  and  N_7
REMARK    2  A    between atoms: C_8  and  C_10
REMARK                            x       y       z     vdW  Elec       q    Type
REMARK                         _______ _______ _______ _____ _____    ______ ____
ROOT
ATOM      1  N   UNL     1      30.217  22.242  26.775  0.00  0.00    +0.000 NA
ATOM      2  C   UNL     1      30.550  23.071  27.870  0.00  0.00    +0.000 C 
ATOM      3  O   UNL     1      30.069  24.223  27.923  0.00  0.00    +0.000 OA
ENDROOT
BRANCH   1   9
ATOM      4  C   UNL     1      26.988  23.758  22.302  0.00  0.00    +0.000 C 
ATOM      5  C   UNL     1      27.820  23.360  23.476  0.00  0.00    +0.000 A 
ATOM      6  C   UNL     1      29.195  23.286  23.396  0.00  0.00    +0.000 A 
ATOM      7  C   UNL     1      29.953  22.914  24.501  0.00  0.00    +0.000 A 
ATOM      8  O   UNL     1      31.331  22.855  24.364  0.00  0.00    +0.000 OA
ATOM      9  C   UNL     1      29.368  22.607  25.713  0.00  0.00    +0.000 A 
ATOM     10  C   UNL     1      27.994  22.679  25.801  0.00  0.00    +0.000 A 
ATOM     11  C   UNL     1      27.246  23.052  24.692  0.00  0.00    +0.000 A 
ATOM     12  C   UNL     1      25.753  23.139  24.758  0.00  0.00    +0.000 C 
ENDBRANCH   1   9
BRANCH   2  13
ATOM     13  C   UNL     1      31.444  22.533  28.880  0.00  0.00    +0.000 A 
ATOM     14  C   UNL     1      32.795  22.299  28.620  0.00  0.00    +0.000 A 
ATOM     15  C   UNL     1      33.635  21.787  29.586  0.00  0.00    +0.000 A 
ATOM     16  C   UNL     1      33.183  21.483  30.852  0.00  0.00    +0.000 A 
ATOM     17 BR   UNL     1      34.372  20.777  32.161  0.00  0.00    +0.000 Br
ATOM     18  C   UNL     1      31.847  21.708  31.127  0.00  0.00    +0.000 A 
ATOM     19  C   UNL     1      31.015  22.221  30.153  0.00  0.00    +0.000 A 
ENDBRANCH   2  13
TORSDOF 2
ENDMDL
MODEL 9
REMARK VINA RESULT:      -6.0     19.178     20.622
REMARK  Name = 
REMARK  2 active torsions:
REMARK  status: ('A' for Active; 'I' for Inactive)
REMARK    1  A    between atoms: C_6  and  N_7
REMARK    2  A    between atoms: C_8  and  C_10
REMARK                            x       y       z     vdW  Elec       q    Type
REMARK                         _______ _______ _______ _____ _____    ______ ____
ROOT
ATOM      1  N   UNL     1      34.486   4.044  35.084  0.00  0.00    +0.000 NA
ATOM      2  C   UNL     1      34.047   5.029  35.998  0.00  0.00    +0.000 C 
ATOM      3  O   UNL     1      33.178   4.725  36.843  0.00  0.00    +0.000 OA
ENDROOT
BRANCH   1   9
ATOM      4  C   UNL     1      32.537  -1.317  34.645  0.00  0.00    +0.000 C 
ATOM      5  C   UNL     1      33.049   0.080  34.772  0.00  0.00    +0.000 A 
ATOM      6  C   UNL     1      33.072   0.942  33.696  0.00  0.00    +0.000 A 
ATOM      7  C   UNL     1      33.552   2.239  33.833  0.00  0.00    +0.000 A 
ATOM      8  O   UNL     1      33.554   3.063  32.719  0.00  0.00    +0.000 OA
ATOM      9  C   UNL     1      34.021   2.716  35.042  0.00  0.00    +0.000 A 
ATOM     10  C   UNL     1      34.000   1.861  36.122  0.00  0.00    +0.000 A 
ATOM     11  C   UNL     1      33.518   0.566  35.975  0.00  0.00    +0.000 A 
ATOM     12  C   UNL     1      33.484  -0.384  37.130  0.00  0.00    +0.000 C 
ENDBRANCH   1   9
BRANCH   2  13
ATOM     13  C   UNL     1      34.636   6.354  35.901  0.00  0.00    +0.000 A 
ATOM     14  C   UNL     1      35.847   6.575  35.243  0.00  0.00    +0.000 A 
ATOM     15  C   UNL     1      36.398   7.836  35.156  0.00  0.00    +0.000 A 
ATOM     16  C   UNL     1      35.781   8.936  35.714  0.00  0.00    +0.000 A 
ATOM     17 BR   UNL     1      36.572  10.662  35.575  0.00  0.00    +0.000 Br
ATOM     18  C   UNL     1      34.582   8.735  36.370  0.00  0.00    +0.000 A 
ATOM     19  C   UNL     1      34.039   7.468  36.451  0.00  0.00    +0.000 A 
ENDBRANCH   2  13
TORSDOF 2
ENDMDL
MODEL 10
REMARK VINA RESULT:      -6.0     19.111     19.962
REMARK  Name = 
REMARK  2 active torsions:
REMARK  status: ('A' for Active; 'I' for Inactive)
REMARK    1  A    between atoms: C_6  and  N_7
REMARK    2  A    between atoms: C_8  and  C_10
REMARK                            x       y       z     vdW  Elec       q    Type
REMARK                         _______ _______ _______ _____ _____    ______ ____
ROOT
ATOM      1  N   UNL     1      34.708   5.662  35.803  0.00  0.00    +0.000 NA
ATOM      2  C   UNL     1      33.758   5.160  34.885  0.00  0.00    +0.000 C 
ATOM      3  O   UNL     1      32.961   5.956  34.344  0.00  0.00    +0.000 OA
ENDROOT
BRANCH   1   9
ATOM      4  C   UNL     1      35.081  11.109  37.514  0.00  0.00    +0.000 C 
ATOM      5  C   UNL     1      34.991   9.690  37.057  0.00  0.00    +0.000 A 
ATOM      6  C   UNL     1      34.249   8.754  37.747  0.00  0.00    +0.000 A 
ATOM      7  C   UNL     1      34.177   7.437  37.307  0.00  0.00    +0.000 A 
ATOM      8  O   UNL     1      33.417   6.539  38.038  0.00  0.00    +0.000 OA
ATOM      9  C   UNL     1      34.840   7.014  36.171  0.00  0.00    +0.000 A 
ATOM     10  C   UNL     1      35.584   7.944  35.477  0.00  0.00    +0.000 A 
ATOM     11  C   UNL     1      35.649   9.257  35.925  0.00  0.00    +0.000 A 
ATOM     12  C   UNL     1      36.449  10.287  35.191  0.00  0.00    +0.000 C 
ENDBRANCH   1   9
BRANCH   2  13
ATOM     13  C   UNL     1      33.761   3.732  34.619  0.00  0.00    +0.000 A 
ATOM     14  C   UNL     1      33.654   3.222  33.324  0.00  0.00    +0.000 A 
ATOM     15  C   UNL     1      33.658   1.865  33.083  0.00  0.00    +0.000 A 
ATOM     16  C   UNL     1      33.769   0.948  34.105  0.00  0.00    +0.000 A 
ATOM     17 BR   UNL     1      33.771  -0.920  33.734  0.00  0.00    +0.000 Br
ATOM     18  C   UNL     1      33.876   1.434  35.395  0.00  0.00    +0.000 A 
ATOM     19  C   UNL     1      33.871   2.795  35.625  0.00  0.00    +0.000 A 
ENDBRANCH   2  13
TORSDOF 2
ENDMDL
