MODEL 1
REMARK VINA RESULT:      -7.8      0.000      0.000
REMARK  Name = 
REMARK  2 active torsions:
REMARK  status: ('A' for Active; 'I' for Inactive)
REMARK    1  A    between atoms: C_3  and  C_4
REMARK    2  A    between atoms: C_4  and  C_5
REMARK                            x       y       z     vdW  Elec       q    Type
REMARK                         _______ _______ _______ _____ _____    ______ ____
ROOT
ATOM      1  C   UNL     1      28.420  22.551  26.426  0.00  0.00    +0.000 A 
ATOM      2  C   UNL     1      27.582  23.006  25.421  0.00  0.00    +0.000 A 
ATOM      3  C   UNL     1      28.027  23.407  24.190  0.00  0.00    +0.000 A 
ATOM      4  C   UNL     1      27.212  23.863  23.178  0.00  0.00    +0.000 A 
ATOM      5  C   UNL     1      27.714  24.259  21.944  0.00  0.00    +0.000 A 
ATOM      6  C   UNL     1      29.098  24.168  21.789  0.00  0.00    +0.000 A 
ATOM      7  O   UNL     1      29.658  24.501  20.711  0.00  0.00    +0.000 OA
ATOM      8  O   UNL     1      29.866  23.735  22.755  0.00  0.00    +0.000 OA
ATOM      9  C   UNL     1      29.384  23.362  23.917  0.00  0.00    +0.000 A 
ATOM     10  C   UNL     1      30.219  22.914  24.902  0.00  0.00    +0.000 A 
ATOM     11  C   UNL     1      29.765  22.511  26.141  0.00  0.00    +0.000 A 
ATOM     12  O   UNL     1      30.675  22.065  27.098  0.00  0.00    +0.000 OA
ENDROOT
BRANCH   1  13
ATOM     13  C   UNL     1      27.886  22.132  27.728  0.00  0.00    +0.000 C 
BRANCH  13  16
ATOM     14  C   UNL     1      26.626  21.502  30.150  0.00  0.00    +0.000 C 
ATOM     15  C   UNL     1      26.772  22.917  29.707  0.00  0.00    +0.000 C 
ATOM     16  C   UNL     1      27.369  23.234  28.559  0.00  0.00    +0.000 C 
ATOM     17  C   UNL     1      27.527  24.629  28.095  0.00  0.00    +0.000 C 
ATOM     18  C   UNL     1      26.966  25.654  29.020  0.00  0.00    +0.000 C 
ATOM     19  C   UNL     1      28.021  26.216  29.979  0.00  0.00    +0.000 C 
ATOM     20  C   UNL     1      26.477  26.834  28.187  0.00  0.00    +0.000 C 
ATOM     21  C   UNL     1      25.786  25.170  29.827  0.00  0.00    +0.000 C 
ATOM     22  C   UNL     1      26.208  23.960  30.629  0.00  0.00    +0.000 C 
ENDBRANCH  13  16
ENDBRANCH   1  13
TORSDOF 2
ENDMDL
MODEL 2
REMARK VINA RESULT:      -7.7     17.699     19.398
REMARK  Name = 
REMARK  2 active torsions:
REMARK  status: ('A' for Active; 'I' for Inactive)
REMARK    1  A    between atoms: C_3  and  C_4
REMARK    2  A    between atoms: C_4  and  C_5
REMARK                            x       y       z     vdW  Elec       q    Type
REMARK                         _______ _______ _______ _____ _____    ______ ____
ROOT
ATOM      1  C   UNL     1      16.674  10.579  36.487  0.00  0.00    +0.000 A 
ATOM      2  C   UNL     1      15.810  11.513  35.938  0.00  0.00    +0.000 A 
ATOM      3  C   UNL     1      15.642  11.685  34.591  0.00  0.00    +0.000 A 
ATOM      4  C   UNL     1      14.790  12.607  34.023  0.00  0.00    +0.000 A 
ATOM      5  C   UNL     1      14.654  12.742  32.647  0.00  0.00    +0.000 A 
ATOM      6  C   UNL     1      15.434  11.885  31.868  0.00  0.00    +0.000 A 
ATOM      7  O   UNL     1      15.388  11.923  30.610  0.00  0.00    +0.000 OA
ATOM      8  O   UNL     1      16.241  11.012  32.413  0.00  0.00    +0.000 OA
ATOM      9  C   UNL     1      16.363  10.891  33.715  0.00  0.00    +0.000 A 
ATOM     10  C   UNL     1      17.217   9.966  34.247  0.00  0.00    +0.000 A 
ATOM     11  C   UNL     1      17.384   9.797  35.606  0.00  0.00    +0.000 A 
ATOM     12  O   UNL     1      18.274   8.833  36.078  0.00  0.00    +0.000 OA
ENDROOT
BRANCH   1  13
ATOM     13  C   UNL     1      16.814  10.438  37.942  0.00  0.00    +0.000 C 
BRANCH  13  16
ATOM     14  C   UNL     1      17.842   8.770  39.945  0.00  0.00    +0.000 C 
ATOM     15  C   UNL     1      18.643   9.904  39.406  0.00  0.00    +0.000 C 
ATOM     16  C   UNL     1      18.170  10.707  38.454  0.00  0.00    +0.000 C 
ATOM     17  C   UNL     1      18.943  11.840  37.902  0.00  0.00    +0.000 C 
ATOM     18  C   UNL     1      20.299  12.009  38.496  0.00  0.00    +0.000 C 
ATOM     19  C   UNL     1      21.389  11.312  37.675  0.00  0.00    +0.000 C 
ATOM     20  C   UNL     1      20.645  13.495  38.487  0.00  0.00    +0.000 C 
ATOM     21  C   UNL     1      20.401  11.547  39.929  0.00  0.00    +0.000 C 
ATOM     22  C   UNL     1      20.011  10.087  39.999  0.00  0.00    +0.000 C 
ENDBRANCH  13  16
ENDBRANCH   1  13
TORSDOF 2
ENDMDL
MODEL 3
REMARK VINA RESULT:      -7.5     31.342     33.520
REMARK  Name = 
REMARK  2 active torsions:
REMARK  status: ('A' for Active; 'I' for Inactive)
REMARK    1  A    between atoms: C_3  and  C_4
REMARK    2  A    between atoms: C_4  and  C_5
REMARK                            x       y       z     vdW  Elec       q    Type
REMARK                         _______ _______ _______ _____ _____    ______ ____
ROOT
ATOM      1  C   UNL     1      18.803  -7.418  26.839  0.00  0.00    +0.000 A 
ATOM      2  C   UNL     1      19.786  -8.357  26.569  0.00  0.00    +0.000 A 
ATOM      3  C   UNL     1      20.923  -8.077  25.859  0.00  0.00    +0.000 A 
ATOM      4  C   UNL     1      21.912  -8.993  25.579  0.00  0.00    +0.000 A 
ATOM      5  C   UNL     1      23.049  -8.659  24.854  0.00  0.00    +0.000 A 
ATOM      6  C   UNL     1      23.132  -7.334  24.424  0.00  0.00    +0.000 A 
ATOM      7  O   UNL     1      24.119  -6.923  23.759  0.00  0.00    +0.000 OA
ATOM      8  O   UNL     1      22.189  -6.468  24.694  0.00  0.00    +0.000 OA
ATOM      9  C   UNL     1      21.118  -6.792  25.380  0.00  0.00    +0.000 A 
ATOM     10  C   UNL     1      20.154  -5.859  25.642  0.00  0.00    +0.000 A 
ATOM     11  C   UNL     1      19.010  -6.147  26.357  0.00  0.00    +0.000 A 
ATOM     12  O   UNL     1      18.069  -5.144  26.587  0.00  0.00    +0.000 OA
ENDROOT
BRANCH   1  13
ATOM     13  C   UNL     1      17.603  -7.776  27.607  0.00  0.00    +0.000 C 
BRANCH  13  16
ATOM     14  C   UNL     1      17.218 -10.402  28.505  0.00  0.00    +0.000 C 
ATOM     15  C   UNL     1      16.478  -9.879  27.323  0.00  0.00    +0.000 C 
ATOM     16  C   UNL     1      16.648  -8.633  26.883  0.00  0.00    +0.000 C 
ATOM     17  C   UNL     1      15.927  -8.089  25.713  0.00  0.00    +0.000 C 
ATOM     18  C   UNL     1      14.988  -9.049  25.066  0.00  0.00    +0.000 C 
ATOM     19  C   UNL     1      13.554  -8.905  25.585  0.00  0.00    +0.000 C 
ATOM     20  C   UNL     1      14.934  -8.735  23.574  0.00  0.00    +0.000 C 
ATOM     21  C   UNL     1      15.407 -10.493  25.193  0.00  0.00    +0.000 C 
ATOM     22  C   UNL     1      15.530 -10.838  26.660  0.00  0.00    +0.000 C 
ENDBRANCH  13  16
ENDBRANCH   1  13
TORSDOF 2
ENDMDL
MODEL 4
REMARK VINA RESULT:      -7.3     31.210     33.457
REMARK  Name = 
REMARK  2 active torsions:
REMARK  status: ('A' for Active; 'I' for Inactive)
REMARK    1  A    between atoms: C_3  and  C_4
REMARK    2  A    between atoms: C_4  and  C_5
REMARK                            x       y       z     vdW  Elec       q    Type
REMARK                         _______ _______ _______ _____ _____    ______ ____
ROOT
ATOM      1  C   UNL     1      18.828  -7.356  26.687  0.00  0.00    +0.000 A 
ATOM      2  C   UNL     1      19.809  -8.290  26.394  0.00  0.00    +0.000 A 
ATOM      3  C   UNL     1      20.970  -7.985  25.736  0.00  0.00    +0.000 A 
ATOM      4  C   UNL     1      21.957  -8.896  25.434  0.00  0.00    +0.000 A 
ATOM      5  C   UNL     1      23.119  -8.535  24.764  0.00  0.00    +0.000 A 
ATOM      6  C   UNL     1      23.230  -7.189  24.413  0.00  0.00    +0.000 A 
ATOM      7  O   UNL     1      24.242  -6.754  23.803  0.00  0.00    +0.000 OA
ATOM      8  O   UNL     1      22.288  -6.328  24.703  0.00  0.00    +0.000 OA
ATOM      9  C   UNL     1      21.193  -6.678  25.336  0.00  0.00    +0.000 A 
ATOM     10  C   UNL     1      20.232  -5.749  25.622  0.00  0.00    +0.000 A 
ATOM     11  C   UNL     1      19.063  -6.062  26.285  0.00  0.00    +0.000 A 
ATOM     12  O   UNL     1      18.126  -5.063  26.542  0.00  0.00    +0.000 OA
ENDROOT
BRANCH   1  13
ATOM     13  C   UNL     1      17.601  -7.741  27.397  0.00  0.00    +0.000 C 
BRANCH  13  16
ATOM     14  C   UNL     1      15.956  -9.908  26.726  0.00  0.00    +0.000 C 
ATOM     15  C   UNL     1      16.925 -10.001  27.853  0.00  0.00    +0.000 C 
ATOM     16  C   UNL     1      17.716  -8.982  28.185  0.00  0.00    +0.000 C 
ATOM     17  C   UNL     1      18.686  -9.047  29.298  0.00  0.00    +0.000 C 
ATOM     18  C   UNL     1      18.712 -10.352  30.018  0.00  0.00    +0.000 C 
ATOM     19  C   UNL     1      19.789 -11.298  29.477  0.00  0.00    +0.000 C 
ATOM     20  C   UNL     1      19.071 -10.087  31.477  0.00  0.00    +0.000 C 
ATOM     21  C   UNL     1      17.387 -11.075  30.020  0.00  0.00    +0.000 C 
ATOM     22  C   UNL     1      16.959 -11.310  28.589  0.00  0.00    +0.000 C 
ENDBRANCH  13  16
ENDBRANCH   1  13
TORSDOF 2
ENDMDL
MODEL 5
REMARK VINA RESULT:      -7.3     18.268     20.133
REMARK  Name = 
REMARK  2 active torsions:
REMARK  status: ('A' for Active; 'I' for Inactive)
REMARK    1  A    between atoms: C_3  and  C_4
REMARK    2  A    between atoms: C_4  and  C_5
REMARK                            x       y       z     vdW  Elec       q    Type
REMARK                         _______ _______ _______ _____ _____    ______ ____
ROOT
ATOM      1  C   UNL     1      18.059  10.215  37.958  0.00  0.00    +0.000 A 
ATOM      2  C   UNL     1      17.669  10.966  36.860  0.00  0.00    +0.000 A 
ATOM      3  C   UNL     1      16.408  11.474  36.702  0.00  0.00    +0.000 A 
ATOM      4  C   UNL     1      15.999  12.221  35.620  0.00  0.00    +0.000 A 
ATOM      5  C   UNL     1      14.705  12.716  35.507  0.00  0.00    +0.000 A 
ATOM      6  C   UNL     1      13.839  12.410  36.558  0.00  0.00    +0.000 A 
ATOM      7  O   UNL     1      12.645  12.808  36.557  0.00  0.00    +0.000 OA
ATOM      8  O   UNL     1      14.235  11.700  37.583  0.00  0.00    +0.000 OA
ATOM      9  C   UNL     1      15.459  11.237  37.682  0.00  0.00    +0.000 A 
ATOM     10  C   UNL     1      15.834  10.498  38.769  0.00  0.00    +0.000 A 
ATOM     11  C   UNL     1      17.107   9.987  38.924  0.00  0.00    +0.000 A 
ATOM     12  O   UNL     1      17.419   9.242  40.059  0.00  0.00    +0.000 OA
ENDROOT
BRANCH   1  13
ATOM     13  C   UNL     1      19.428   9.695  38.074  0.00  0.00    +0.000 C 
BRANCH  13  16
ATOM     14  C   UNL     1      21.727   9.714  36.473  0.00  0.00    +0.000 C 
ATOM     15  C   UNL     1      21.539  10.718  37.557  0.00  0.00    +0.000 C 
ATOM     16  C   UNL     1      20.452  10.724  38.327  0.00  0.00    +0.000 C 
ATOM     17  C   UNL     1      20.241  11.709  39.410  0.00  0.00    +0.000 C 
ATOM     18  C   UNL     1      21.343  12.698  39.568  0.00  0.00    +0.000 C 
ATOM     19  C   UNL     1      21.077  13.998  38.801  0.00  0.00    +0.000 C 
ATOM     20  C   UNL     1      21.434  13.084  41.041  0.00  0.00    +0.000 C 
ATOM     21  C   UNL     1      22.700  12.171  39.171  0.00  0.00    +0.000 C 
ATOM     22  C   UNL     1      22.645  11.720  37.728  0.00  0.00    +0.000 C 
ENDBRANCH  13  16
ENDBRANCH   1  13
TORSDOF 2
ENDMDL
MODEL 6
REMARK VINA RESULT:      -7.2     26.931     29.306
REMARK  Name = 
REMARK  2 active torsions:
REMARK  status: ('A' for Active; 'I' for Inactive)
REMARK    1  A    between atoms: C_3  and  C_4
REMARK    2  A    between atoms: C_4  and  C_5
REMARK                            x       y       z     vdW  Elec       q    Type
REMARK                         _______ _______ _______ _____ _____    ______ ____
ROOT
ATOM      1  C   UNL     1      32.772  -5.074  33.622  0.00  0.00    +0.000 A 
ATOM      2  C   UNL     1      33.697  -4.876  32.609  0.00  0.00    +0.000 A 
ATOM      3  C   UNL     1      33.602  -5.462  31.376  0.00  0.00    +0.000 A 
ATOM      4  C   UNL     1      34.509  -5.280  30.355  0.00  0.00    +0.000 A 
ATOM      5  C   UNL     1      34.368  -5.898  29.119  0.00  0.00    +0.000 A 
ATOM      6  C   UNL     1      33.248  -6.717  28.969  0.00  0.00    +0.000 A 
ATOM      7  O   UNL     1      33.023  -7.325  27.889  0.00  0.00    +0.000 OA
ATOM      8  O   UNL     1      32.390  -6.885  29.942  0.00  0.00    +0.000 OA
ATOM      9  C   UNL     1      32.531  -6.298  31.107  0.00  0.00    +0.000 A 
ATOM     10  C   UNL     1      31.613  -6.498  32.100  0.00  0.00    +0.000 A 
ATOM     11  C   UNL     1      31.713  -5.906  33.342  0.00  0.00    +0.000 A 
ATOM     12  O   UNL     1      30.739  -6.157  34.307  0.00  0.00    +0.000 OA
ENDROOT
BRANCH   1  13
ATOM     13  C   UNL     1      32.924  -4.419  34.928  0.00  0.00    +0.000 C 
BRANCH  13  16
ATOM     14  C   UNL     1      35.432  -3.988  36.101  0.00  0.00    +0.000 C 
ATOM     15  C   UNL     1      34.698  -2.879  35.431  0.00  0.00    +0.000 C 
ATOM     16  C   UNL     1      33.506  -3.066  34.867  0.00  0.00    +0.000 C 
ATOM     17  C   UNL     1      32.756  -1.982  34.196  0.00  0.00    +0.000 C 
ATOM     18  C   UNL     1      33.447  -0.662  34.197  0.00  0.00    +0.000 C 
ATOM     19  C   UNL     1      34.259  -0.425  32.920  0.00  0.00    +0.000 C 
ATOM     20  C   UNL     1      32.386   0.433  34.236  0.00  0.00    +0.000 C 
ATOM     21  C   UNL     1      34.345  -0.443  35.390  0.00  0.00    +0.000 C 
ATOM     22  C   UNL     1      35.383  -1.542  35.428  0.00  0.00    +0.000 C 
ENDBRANCH  13  16
ENDBRANCH   1  13
TORSDOF 2
ENDMDL
MODEL 7
REMARK VINA RESULT:      -7.2     21.858     24.829
REMARK  Name = 
REMARK  2 active torsions:
REMARK  status: ('A' for Active; 'I' for Inactive)
REMARK    1  A    between atoms: C_3  and  C_4
REMARK    2  A    between atoms: C_4  and  C_5
REMARK                            x       y       z     vdW  Elec       q    Type
REMARK                         _______ _______ _______ _____ _____    ______ ____
ROOT
ATOM      1  C   UNL     1      33.678   1.694  34.032  0.00  0.00    +0.000 A 
ATOM      2  C   UNL     1      33.516   1.488  35.393  0.00  0.00    +0.000 A 
ATOM      3  C   UNL     1      33.603   0.258  35.987  0.00  0.00    +0.000 A 
ATOM      4  C   UNL     1      33.445   0.031  37.336  0.00  0.00    +0.000 A 
ATOM      5  C   UNL     1      33.544  -1.239  37.891  0.00  0.00    +0.000 A 
ATOM      6  C   UNL     1      33.816  -2.277  36.998  0.00  0.00    +0.000 A 
ATOM      7  O   UNL     1      33.927  -3.467  37.394  0.00  0.00    +0.000 OA
ATOM      8  O   UNL     1      33.965  -2.054  35.718  0.00  0.00    +0.000 OA
ATOM      9  C   UNL     1      33.870  -0.851  35.202  0.00  0.00    +0.000 A 
ATOM     10  C   UNL     1      34.032  -0.658  33.858  0.00  0.00    +0.000 A 
ATOM     11  C   UNL     1      33.942   0.584  33.264  0.00  0.00    +0.000 A 
ATOM     12  O   UNL     1      34.120   0.705  31.887  0.00  0.00    +0.000 OA
ENDROOT
BRANCH   1  13
ATOM     13  C   UNL     1      33.573   3.038  33.450  0.00  0.00    +0.000 C 
BRANCH  13  16
ATOM     14  C   UNL     1      32.030   5.373  33.578  0.00  0.00    +0.000 C 
ATOM     15  C   UNL     1      33.271   5.229  34.389  0.00  0.00    +0.000 C 
ATOM     16  C   UNL     1      34.016   4.126  34.341  0.00  0.00    +0.000 C 
ATOM     17  C   UNL     1      35.252   3.956  35.134  0.00  0.00    +0.000 C 
ATOM     18  C   UNL     1      35.596   5.121  35.997  0.00  0.00    +0.000 C 
ATOM     19  C   UNL     1      35.066   4.967  37.427  0.00  0.00    +0.000 C 
ATOM     20  C   UNL     1      37.114   5.201  36.112  0.00  0.00    +0.000 C 
ATOM     21  C   UNL     1      35.130   6.447  35.448  0.00  0.00    +0.000 C 
ATOM     22  C   UNL     1      33.630   6.398  35.261  0.00  0.00    +0.000 C 
ENDBRANCH  13  16
ENDBRANCH   1  13
TORSDOF 2
ENDMDL
MODEL 8
REMARK VINA RESULT:      -7.1      1.510      2.608
REMARK  Name = 
REMARK  2 active torsions:
REMARK  status: ('A' for Active; 'I' for Inactive)
REMARK    1  A    between atoms: C_3  and  C_4
REMARK    2  A    between atoms: C_4  and  C_5
REMARK                            x       y       z     vdW  Elec       q    Type
REMARK                         _______ _______ _______ _____ _____    ______ ____
ROOT
ATOM      1  C   UNL     1      30.487  23.067  26.601  0.00  0.00    +0.000 A 
ATOM      2  C   UNL     1      29.365  22.921  25.800  0.00  0.00    +0.000 A 
ATOM      3  C   UNL     1      29.311  23.335  24.496  0.00  0.00    +0.000 A 
ATOM      4  C   UNL     1      28.208  23.201  23.682  0.00  0.00    +0.000 A 
ATOM      5  C   UNL     1      28.203  23.637  22.363  0.00  0.00    +0.000 A 
ATOM      6  C   UNL     1      29.386  24.221  21.907  0.00  0.00    +0.000 A 
ATOM      7  O   UNL     1      29.491  24.651  20.728  0.00  0.00    +0.000 OA
ATOM      8  O   UNL     1      30.430  24.345  22.686  0.00  0.00    +0.000 OA
ATOM      9  C   UNL     1      30.426  23.930  23.931  0.00  0.00    +0.000 A 
ATOM     10  C   UNL     1      31.537  24.077  24.714  0.00  0.00    +0.000 A 
ATOM     11  C   UNL     1      31.587  23.660  26.028  0.00  0.00    +0.000 A 
ATOM     12  O   UNL     1      32.755  23.842  26.767  0.00  0.00    +0.000 OA
ENDROOT
BRANCH   1  13
ATOM     13  C   UNL     1      30.488  22.604  27.995  0.00  0.00    +0.000 C 
BRANCH  13  16
ATOM     14  C   UNL     1      30.748  25.065  29.308  0.00  0.00    +0.000 C 
ATOM     15  C   UNL     1      29.497  24.265  29.420  0.00  0.00    +0.000 C 
ATOM     16  C   UNL     1      29.355  23.093  28.802  0.00  0.00    +0.000 C 
ATOM     17  C   UNL     1      28.125  22.278  28.896  0.00  0.00    +0.000 C 
ATOM     18  C   UNL     1      27.052  22.878  29.738  0.00  0.00    +0.000 C 
ATOM     19  C   UNL     1      26.043  23.684  28.913  0.00  0.00    +0.000 C 
ATOM     20  C   UNL     1      26.262  21.745  30.386  0.00  0.00    +0.000 C 
ATOM     21  C   UNL     1      27.567  23.747  30.859  0.00  0.00    +0.000 C 
ATOM     22  C   UNL     1      28.408  24.857  30.268  0.00  0.00    +0.000 C 
ENDBRANCH  13  16
ENDBRANCH   1  13
TORSDOF 2
ENDMDL
MODEL 9
REMARK VINA RESULT:      -7.0     20.364     23.572
REMARK  Name = 
REMARK  2 active torsions:
REMARK  status: ('A' for Active; 'I' for Inactive)
REMARK    1  A    between atoms: C_3  and  C_4
REMARK    2  A    between atoms: C_4  and  C_5
REMARK                            x       y       z     vdW  Elec       q    Type
REMARK                         _______ _______ _______ _____ _____    ______ ____
ROOT
ATOM      1  C   UNL     1      18.881   7.650  41.054  0.00  0.00    +0.000 A 
ATOM      2  C   UNL     1      20.095   7.031  40.803  0.00  0.00    +0.000 A 
ATOM      3  C   UNL     1      20.242   5.675  40.691  0.00  0.00    +0.000 A 
ATOM      4  C   UNL     1      21.438   5.038  40.443  0.00  0.00    +0.000 A 
ATOM      5  C   UNL     1      21.534   3.656  40.337  0.00  0.00    +0.000 A 
ATOM      6  C   UNL     1      20.344   2.946  40.497  0.00  0.00    +0.000 A 
ATOM      7  O   UNL     1      20.317   1.689  40.421  0.00  0.00    +0.000 OA
ATOM      8  O   UNL     1      19.211   3.556  40.733  0.00  0.00    +0.000 OA
ATOM      9  C   UNL     1      19.129   4.863  40.831  0.00  0.00    +0.000 A 
ATOM     10  C   UNL     1      17.926   5.465  41.077  0.00  0.00    +0.000 A 
ATOM     11  C   UNL     1      17.784   6.832  41.190  0.00  0.00    +0.000 A 
ATOM     12  O   UNL     1      16.526   7.377  41.443  0.00  0.00    +0.000 OA
ENDROOT
BRANCH   1  13
ATOM     13  C   UNL     1      18.783   9.112  41.164  0.00  0.00    +0.000 C 
BRANCH  13  16
ATOM     14  C   UNL     1      20.986  10.714  40.510  0.00  0.00    +0.000 C 
ATOM     15  C   UNL     1      19.832  10.580  39.578  0.00  0.00    +0.000 C 
ATOM     16  C   UNL     1      18.777   9.822  39.873  0.00  0.00    +0.000 C 
ATOM     17  C   UNL     1      17.618   9.672  38.967  0.00  0.00    +0.000 C 
ATOM     18  C   UNL     1      17.729  10.436  37.692  0.00  0.00    +0.000 C 
ATOM     19  C   UNL     1      18.296   9.588  36.549  0.00  0.00    +0.000 C 
ATOM     20  C   UNL     1      16.326  10.850  37.259  0.00  0.00    +0.000 C 
ATOM     21  C   UNL     1      18.541  11.702  37.807  0.00  0.00    +0.000 C 
ATOM     22  C   UNL     1      19.929  11.348  38.291  0.00  0.00    +0.000 C 
ENDBRANCH  13  16
ENDBRANCH   1  13
TORSDOF 2
ENDMDL
MODEL 10
REMARK VINA RESULT:      -7.0      3.244      6.707
REMARK  Name = 
REMARK  2 active torsions:
REMARK  status: ('A' for Active; 'I' for Inactive)
REMARK    1  A    between atoms: C_3  and  C_4
REMARK    2  A    between atoms: C_4  and  C_5
REMARK                            x       y       z     vdW  Elec       q    Type
REMARK                         _______ _______ _______ _____ _____    ______ ____
ROOT
ATOM      1  C   UNL     1      26.010  23.809  26.534  0.00  0.00    +0.000 A 
ATOM      2  C   UNL     1      26.186  23.757  27.908  0.00  0.00    +0.000 A 
ATOM      3  C   UNL     1      25.625  24.654  28.776  0.00  0.00    +0.000 A 
ATOM      4  C   UNL     1      25.786  24.622  30.143  0.00  0.00    +0.000 A 
ATOM      5  C   UNL     1      25.194  25.557  30.983  0.00  0.00    +0.000 A 
ATOM      6  C   UNL     1      24.421  26.537  30.357  0.00  0.00    +0.000 A 
ATOM      7  O   UNL     1      23.839  27.433  31.023  0.00  0.00    +0.000 OA
ATOM      8  O   UNL     1      24.271  26.562  29.058  0.00  0.00    +0.000 OA
ATOM      9  C   UNL     1      24.834  25.674  28.272  0.00  0.00    +0.000 A 
ATOM     10  C   UNL     1      24.654  25.733  26.919  0.00  0.00    +0.000 A 
ATOM     11  C   UNL     1      25.222  24.826  26.048  0.00  0.00    +0.000 A 
ATOM     12  O   UNL     1      24.995  24.948  24.678  0.00  0.00    +0.000 OA
ENDROOT
BRANCH   1  13
ATOM     13  C   UNL     1      26.637  22.817  25.651  0.00  0.00    +0.000 C 
BRANCH  13  16
ATOM     14  C   UNL     1      27.755  23.376  23.143  0.00  0.00    +0.000 C 
ATOM     15  C   UNL     1      28.617  23.200  24.345  0.00  0.00    +0.000 C 
ATOM     16  C   UNL     1      28.103  22.935  25.545  0.00  0.00    +0.000 C 
ATOM     17  C   UNL     1      28.935  22.755  26.754  0.00  0.00    +0.000 C 
ATOM     18  C   UNL     1      30.399  22.899  26.521  0.00  0.00    +0.000 C 
ATOM     19  C   UNL     1      30.900  24.319  26.806  0.00  0.00    +0.000 C 
ATOM     20  C   UNL     1      31.132  21.985  27.499  0.00  0.00    +0.000 C 
ATOM     21  C   UNL     1      30.841  22.498  25.135  0.00  0.00    +0.000 C 
ATOM     22  C   UNL     1      30.096  23.339  24.124  0.00  0.00    +0.000 C 
ENDBRANCH  13  16
ENDBRANCH   1  13
TORSDOF 2
ENDMDL
