MODEL 1
REMARK VINA RESULT:      -9.8      0.000      0.000
REMARK  Name = 
REMARK  3 active torsions:
REMARK  status: ('A' for Active; 'I' for Inactive)
REMARK    1  A    between atoms: C_2  and  N_3
REMARK    2  A    between atoms: C_12  and  C_13
REMARK    3  A    between atoms: C_13  and  N_14
REMARK                            x       y       z     vdW  Elec       q    Type
REMARK                         _______ _______ _______ _____ _____    ______ ____
ROOT
ATOM      1  C   UNL     1      36.427   3.741  14.412  0.00  0.00    +0.000 C 
ENDROOT
BRANCH   1   2
ATOM      2  N   UNL     1      37.060   4.713  15.222  0.00  0.00    +0.000 NA
ATOM      3  C   UNL     1      37.440   4.284  16.526  0.00  0.00    +0.000 C 
ATOM      4  C   UNL     1      38.877   4.472  16.872  0.00  0.00    +0.000 C 
ATOM      5  C   UNL     1      39.259   5.924  16.700  0.00  0.00    +0.000 C 
ATOM      6  C   UNL     1      38.686   6.509  15.432  0.00  0.00    +0.000 C 
ATOM      7  C   UNL     1      38.027   5.527  14.543  0.00  0.00    +0.000 C 
ATOM      8  C   UNL     1      40.666   6.204  16.883  0.00  0.00    +0.000 A 
ATOM      9  C   UNL     1      41.441   6.260  15.717  0.00  0.00    +0.000 A 
ATOM     10  C   UNL     1      42.789   6.515  15.727  0.00  0.00    +0.000 A 
ATOM     11  C   UNL     1      43.438   6.729  16.917  0.00  0.00    +0.000 A 
ATOM     12  C   UNL     1      42.686   6.675  18.068  0.00  0.00    +0.000 A 
ATOM     13  C   UNL     1      41.330   6.418  18.048  0.00  0.00    +0.000 A 
ATOM     14  C   UNL     1      40.559   6.370  19.311  0.00  0.00    +0.000 C 
ATOM     15  C   UNL     1      39.230   5.869  19.123  0.00  0.00    +0.000 C 
ATOM     16  C   UNL     1      38.421   6.684  17.921  0.00  0.00    +0.000 C 
ATOM     17  O   UNL     1      39.290   7.952  17.924  0.00  0.00    +0.000 OA
ENDBRANCH   1   2
BRANCH   1  27
ATOM     18  N   UNL     1      37.426  -1.379  16.535  0.00  0.00    +0.000 N 
ATOM     19  C   UNL     1      38.637  -1.629  15.956  0.00  0.00    +0.000 A 
ATOM     20  C   UNL     1      39.520  -2.677  15.993  0.00  0.00    +0.000 A 
ATOM     21  C   UNL     1      40.699  -2.628  15.274  0.00  0.00    +0.000 A 
ATOM     22  C   UNL     1      41.012  -1.524  14.506  0.00  0.00    +0.000 A 
ATOM     23  C   UNL     1      40.132  -0.465  14.463  0.00  0.00    +0.000 A 
ATOM     24  C   UNL     1      38.965  -0.538  15.187  0.00  0.00    +0.000 A 
ATOM     25  C   UNL     1      37.946   0.401  15.287  0.00  0.00    +0.000 A 
ATOM     26  C   UNL     1      37.784   1.646  14.723  0.00  0.00    +0.000 A 
ATOM     27  C   UNL     1      36.655   2.388  14.993  0.00  0.00    +0.000 A 
ATOM     28  C   UNL     1      35.724   1.822  15.840  0.00  0.00    +0.000 A 
ATOM     29  C   UNL     1      35.883   0.574  16.406  0.00  0.00    +0.000 A 
ATOM     30  C   UNL     1      37.019  -0.164  16.131  0.00  0.00    +0.000 A 
BRANCH  18  32
ATOM     31  C   UNL     1      37.131  -2.088  18.869  0.00  0.00    +0.000 C 
ATOM     32  C   UNL     1      36.767  -2.314  17.416  0.00  0.00    +0.000 C 
ENDBRANCH  18  32
ENDBRANCH   1  27
TORSDOF 3
ENDMDL
MODEL 2
REMARK VINA RESULT:      -9.8      1.913      3.855
REMARK  Name = 
REMARK  3 active torsions:
REMARK  status: ('A' for Active; 'I' for Inactive)
REMARK    1  A    between atoms: C_2  and  N_3
REMARK    2  A    between atoms: C_12  and  C_13
REMARK    3  A    between atoms: C_13  and  N_14
REMARK                            x       y       z     vdW  Elec       q    Type
REMARK                         _______ _______ _______ _____ _____    ______ ____
ROOT
ATOM      1  C   UNL     1      38.407   4.445  15.106  0.00  0.00    +0.000 C 
ENDROOT
BRANCH   1   2
ATOM      2  N   UNL     1      39.107   4.869  16.260  0.00  0.00    +0.000 NA
ATOM      3  C   UNL     1      40.087   5.882  16.056  0.00  0.00    +0.000 C 
ATOM      4  C   UNL     1      39.930   7.107  16.890  0.00  0.00    +0.000 C 
ATOM      5  C   UNL     1      39.907   6.730  18.354  0.00  0.00    +0.000 C 
ATOM      6  C   UNL     1      39.058   5.509  18.606  0.00  0.00    +0.000 C 
ATOM      7  C   UNL     1      38.294   5.036  17.431  0.00  0.00    +0.000 C 
ATOM      8  C   UNL     1      39.629   7.827  19.255  0.00  0.00    +0.000 A 
ATOM      9  C   UNL     1      38.296   7.965  19.665  0.00  0.00    +0.000 A 
ATOM     10  C   UNL     1      37.876   8.955  20.517  0.00  0.00    +0.000 A 
ATOM     11  C   UNL     1      38.776   9.866  21.008  0.00  0.00    +0.000 A 
ATOM     12  C   UNL     1      40.087   9.740  20.610  0.00  0.00    +0.000 A 
ATOM     13  C   UNL     1      40.501   8.741  19.753  0.00  0.00    +0.000 A 
ATOM     14  C   UNL     1      41.924   8.641  19.351  0.00  0.00    +0.000 C 
ATOM     15  C   UNL     1      42.128   7.700  18.290  0.00  0.00    +0.000 C 
ATOM     16  C   UNL     1      41.465   6.215  18.637  0.00  0.00    +0.000 C 
ATOM     17  O   UNL     1      41.397   6.382  20.163  0.00  0.00    +0.000 OA
ENDBRANCH   1   2
BRANCH   1  27
ATOM     18  N   UNL     1      38.017  -1.174  15.111  0.00  0.00    +0.000 N 
ATOM     19  C   UNL     1      36.821  -1.315  15.754  0.00  0.00    +0.000 A 
ATOM     20  C   UNL     1      36.054  -2.387  16.130  0.00  0.00    +0.000 A 
ATOM     21  C   UNL     1      34.854  -2.197  16.788  0.00  0.00    +0.000 A 
ATOM     22  C   UNL     1      34.404  -0.924  17.079  0.00  0.00    +0.000 A 
ATOM     23  C   UNL     1      35.166   0.160  16.706  0.00  0.00    +0.000 A 
ATOM     24  C   UNL     1      36.357  -0.056  16.052  0.00  0.00    +0.000 A 
ATOM     25  C   UNL     1      37.274   0.879  15.589  0.00  0.00    +0.000 A 
ATOM     26  C   UNL     1      37.287   2.255  15.633  0.00  0.00    +0.000 A 
ATOM     27  C   UNL     1      38.341   2.956  15.088  0.00  0.00    +0.000 A 
ATOM     28  C   UNL     1      39.352   2.215  14.512  0.00  0.00    +0.000 A 
ATOM     29  C   UNL     1      39.342   0.836  14.467  0.00  0.00    +0.000 A 
ATOM     30  C   UNL     1      38.282   0.140  15.016  0.00  0.00    +0.000 A 
BRANCH  18  32
ATOM     31  C   UNL     1      39.781  -2.782  15.691  0.00  0.00    +0.000 C 
ATOM     32  C   UNL     1      38.798  -2.296  14.647  0.00  0.00    +0.000 C 
ENDBRANCH  18  32
ENDBRANCH   1  27
TORSDOF 3
ENDMDL
MODEL 3
REMARK VINA RESULT:      -9.8      2.769      8.734
REMARK  Name = 
REMARK  3 active torsions:
REMARK  status: ('A' for Active; 'I' for Inactive)
REMARK    1  A    between atoms: C_2  and  N_3
REMARK    2  A    between atoms: C_12  and  C_13
REMARK    3  A    between atoms: C_13  and  N_14
REMARK                            x       y       z     vdW  Elec       q    Type
REMARK                         _______ _______ _______ _____ _____    ______ ____
ROOT
ATOM      1  C   UNL     1      38.716   2.569  14.304  0.00  0.00    +0.000 C 
ENDROOT
BRANCH   1   2
ATOM      2  N   UNL     1      38.209   1.570  15.168  0.00  0.00    +0.000 NA
ATOM      3  C   UNL     1      36.822   1.662  15.480  0.00  0.00    +0.000 C 
ATOM      4  C   UNL     1      36.014   0.445  15.188  0.00  0.00    +0.000 C 
ATOM      5  C   UNL     1      36.603  -0.746  15.908  0.00  0.00    +0.000 C 
ATOM      6  C   UNL     1      38.108  -0.774  15.808  0.00  0.00    +0.000 C 
ATOM      7  C   UNL     1      38.685   0.243  14.901  0.00  0.00    +0.000 C 
ATOM      8  C   UNL     1      35.976  -2.011  15.594  0.00  0.00    +0.000 A 
ATOM      9  C   UNL     1      36.604  -2.783  14.607  0.00  0.00    +0.000 A 
ATOM     10  C   UNL     1      36.130  -4.004  14.201  0.00  0.00    +0.000 A 
ATOM     11  C   UNL     1      34.992  -4.522  14.766  0.00  0.00    +0.000 A 
ATOM     12  C   UNL     1      34.368  -3.772  15.735  0.00  0.00    +0.000 A 
ATOM     13  C   UNL     1      34.851  -2.543  16.138  0.00  0.00    +0.000 A 
ATOM     14  C   UNL     1      34.147  -1.769  17.186  0.00  0.00    +0.000 C 
ATOM     15  C   UNL     1      34.652  -0.433  17.312  0.00  0.00    +0.000 C 
ATOM     16  C   UNL     1      36.302  -0.406  17.510  0.00  0.00    +0.000 C 
ATOM     17  O   UNL     1      36.466  -1.855  17.996  0.00  0.00    +0.000 OA
ENDBRANCH   1   2
BRANCH   1  27
ATOM     18  N   UNL     1      37.731   7.610  16.615  0.00  0.00    +0.000 N 
ATOM     19  C   UNL     1      38.412   7.456  17.788  0.00  0.00    +0.000 A 
ATOM     20  C   UNL     1      38.636   8.254  18.879  0.00  0.00    +0.000 A 
ATOM     21  C   UNL     1      39.391   7.796  19.942  0.00  0.00    +0.000 A 
ATOM     22  C   UNL     1      39.935   6.527  19.925  0.00  0.00    +0.000 A 
ATOM     23  C   UNL     1      39.716   5.716  18.833  0.00  0.00    +0.000 A 
ATOM     24  C   UNL     1      38.961   6.196  17.789  0.00  0.00    +0.000 A 
ATOM     25  C   UNL     1      38.618   5.558  16.603  0.00  0.00    +0.000 A 
ATOM     26  C   UNL     1      38.908   4.305  16.115  0.00  0.00    +0.000 A 
ATOM     27  C   UNL     1      38.433   3.913  14.882  0.00  0.00    +0.000 A 
ATOM     28  C   UNL     1      37.670   4.830  14.187  0.00  0.00    +0.000 A 
ATOM     29  C   UNL     1      37.377   6.086  14.674  0.00  0.00    +0.000 A 
ATOM     30  C   UNL     1      37.858   6.472  15.912  0.00  0.00    +0.000 A 
BRANCH  18  32
ATOM     31  C   UNL     1      37.881   9.779  15.472  0.00  0.00    +0.000 C 
ATOM     32  C   UNL     1      37.022   8.820  16.269  0.00  0.00    +0.000 C 
ENDBRANCH  18  32
ENDBRANCH   1  27
TORSDOF 3
ENDMDL
MODEL 4
REMARK VINA RESULT:      -9.3      1.103      2.680
REMARK  Name = 
REMARK  3 active torsions:
REMARK  status: ('A' for Active; 'I' for Inactive)
REMARK    1  A    between atoms: C_2  and  N_3
REMARK    2  A    between atoms: C_12  and  C_13
REMARK    3  A    between atoms: C_13  and  N_14
REMARK                            x       y       z     vdW  Elec       q    Type
REMARK                         _______ _______ _______ _____ _____    ______ ____
ROOT
ATOM      1  C   UNL     1      37.159   4.807  14.295  0.00  0.00    +0.000 C 
ENDROOT
BRANCH   1   2
ATOM      2  N   UNL     1      37.763   5.640  15.265  0.00  0.00    +0.000 NA
ATOM      3  C   UNL     1      37.916   5.075  16.563  0.00  0.00    +0.000 C 
ATOM      4  C   UNL     1      39.302   5.080  17.110  0.00  0.00    +0.000 C 
ATOM      5  C   UNL     1      39.843   6.492  17.120  0.00  0.00    +0.000 C 
ATOM      6  C   UNL     1      39.510   7.230  15.847  0.00  0.00    +0.000 C 
ATOM      7  C   UNL     1      38.889   6.395  14.795  0.00  0.00    +0.000 C 
ATOM      8  C   UNL     1      41.231   6.603  17.510  0.00  0.00    +0.000 A 
ATOM      9  C   UNL     1      42.162   6.665  16.464  0.00  0.00    +0.000 A 
ATOM     10  C   UNL     1      43.514   6.772  16.673  0.00  0.00    +0.000 A 
ATOM     11  C   UNL     1      44.009   6.823  17.952  0.00  0.00    +0.000 A 
ATOM     12  C   UNL     1      43.103   6.763  18.985  0.00  0.00    +0.000 A 
ATOM     13  C   UNL     1      41.745   6.656  18.766  0.00  0.00    +0.000 A 
ATOM     14  C   UNL     1      40.804   6.595  19.908  0.00  0.00    +0.000 C 
ATOM     15  C   UNL     1      39.472   6.255  19.504  0.00  0.00    +0.000 C 
ATOM     16  C   UNL     1      38.920   7.242  18.285  0.00  0.00    +0.000 C 
ATOM     17  O   UNL     1      39.898   8.405  18.516  0.00  0.00    +0.000 OA
ENDBRANCH   1   2
BRANCH   1  27
ATOM     18  N   UNL     1      38.315  -0.585  15.443  0.00  0.00    +0.000 N 
ATOM     19  C   UNL     1      37.148  -0.938  16.057  0.00  0.00    +0.000 A 
ATOM     20  C   UNL     1      36.671  -2.094  16.617  0.00  0.00    +0.000 A 
ATOM     21  C   UNL     1      35.408  -2.135  17.179  0.00  0.00    +0.000 A 
ATOM     22  C   UNL     1      34.603  -1.013  17.185  0.00  0.00    +0.000 A 
ATOM     23  C   UNL     1      35.073   0.154  16.624  0.00  0.00    +0.000 A 
ATOM     24  C   UNL     1      36.333   0.168  16.072  0.00  0.00    +0.000 A 
ATOM     25  C   UNL     1      37.000   1.223  15.460  0.00  0.00    +0.000 A 
ATOM     26  C   UNL     1      36.634   2.527  15.221  0.00  0.00    +0.000 A 
ATOM     27  C   UNL     1      37.502   3.385  14.581  0.00  0.00    +0.000 A 
ATOM     28  C   UNL     1      38.727   2.869  14.207  0.00  0.00    +0.000 A 
ATOM     29  C   UNL     1      39.096   1.562  14.447  0.00  0.00    +0.000 A 
ATOM     30  C   UNL     1      38.219   0.708  15.089  0.00  0.00    +0.000 A 
BRANCH  18  32
ATOM     31  C   UNL     1      39.347  -2.197  13.903  0.00  0.00    +0.000 C 
ATOM     32  C   UNL     1      39.411  -1.504  15.248  0.00  0.00    +0.000 C 
ENDBRANCH  18  32
ENDBRANCH   1  27
TORSDOF 3
ENDMDL
MODEL 5
REMARK VINA RESULT:      -9.3      1.860      3.072
REMARK  Name = 
REMARK  3 active torsions:
REMARK  status: ('A' for Active; 'I' for Inactive)
REMARK    1  A    between atoms: C_2  and  N_3
REMARK    2  A    between atoms: C_12  and  C_13
REMARK    3  A    between atoms: C_13  and  N_14
REMARK                            x       y       z     vdW  Elec       q    Type
REMARK                         _______ _______ _______ _____ _____    ______ ____
ROOT
ATOM      1  C   UNL     1      38.602   4.548  14.862  0.00  0.00    +0.000 C 
ENDROOT
BRANCH   1   2
ATOM      2  N   UNL     1      39.211   4.937  16.078  0.00  0.00    +0.000 NA
ATOM      3  C   UNL     1      40.205   5.952  15.981  0.00  0.00    +0.000 C 
ATOM      4  C   UNL     1      39.985   7.153  16.835  0.00  0.00    +0.000 C 
ATOM      5  C   UNL     1      39.849   6.734  18.281  0.00  0.00    +0.000 C 
ATOM      6  C   UNL     1      38.982   5.508  18.431  0.00  0.00    +0.000 C 
ATOM      7  C   UNL     1      38.310   5.072  17.187  0.00  0.00    +0.000 C 
ATOM      8  C   UNL     1      39.502   7.804  19.189  0.00  0.00    +0.000 A 
ATOM      9  C   UNL     1      38.142   7.934  19.500  0.00  0.00    +0.000 A 
ATOM     10  C   UNL     1      37.658   8.900  20.345  0.00  0.00    +0.000 A 
ATOM     11  C   UNL     1      38.518   9.795  20.930  0.00  0.00    +0.000 A 
ATOM     12  C   UNL     1      39.856   9.676  20.631  0.00  0.00    +0.000 A 
ATOM     13  C   UNL     1      40.334   8.701  19.780  0.00  0.00    +0.000 A 
ATOM     14  C   UNL     1      41.783   8.608  19.486  0.00  0.00    +0.000 C 
ATOM     15  C   UNL     1      42.069   7.698  18.417  0.00  0.00    +0.000 C 
ATOM     16  C   UNL     1      41.380   6.206  18.668  0.00  0.00    +0.000 C 
ATOM     17  O   UNL     1      41.194   6.329  20.189  0.00  0.00    +0.000 OA
ENDBRANCH   1   2
BRANCH   1  27
ATOM     18  N   UNL     1      37.806  -1.028  14.913  0.00  0.00    +0.000 N 
ATOM     19  C   UNL     1      39.089  -1.439  14.690  0.00  0.00    +0.000 A 
ATOM     20  C   UNL     1      39.696  -2.661  14.569  0.00  0.00    +0.000 A 
ATOM     21  C   UNL     1      41.056  -2.751  14.337  0.00  0.00    +0.000 A 
ATOM     22  C   UNL     1      41.828  -1.611  14.223  0.00  0.00    +0.000 A 
ATOM     23  C   UNL     1      41.227  -0.378  14.343  0.00  0.00    +0.000 A 
ATOM     24  C   UNL     1      39.872  -0.316  14.574  0.00  0.00    +0.000 A 
ATOM     25  C   UNL     1      39.069   0.807  14.727  0.00  0.00    +0.000 A 
ATOM     26  C   UNL     1      39.354   2.153  14.698  0.00  0.00    +0.000 A 
ATOM     27  C   UNL     1      38.351   3.080  14.882  0.00  0.00    +0.000 A 
ATOM     28  C   UNL     1      37.078   2.587  15.090  0.00  0.00    +0.000 A 
ATOM     29  C   UNL     1      36.789   1.239  15.119  0.00  0.00    +0.000 A 
ATOM     30  C   UNL     1      37.802   0.316  14.934  0.00  0.00    +0.000 A 
BRANCH  18  32
ATOM     31  C   UNL     1      36.455  -2.275  16.543  0.00  0.00    +0.000 C 
ATOM     32  C   UNL     1      36.704  -1.944  15.086  0.00  0.00    +0.000 C 
ENDBRANCH  18  32
ENDBRANCH   1  27
TORSDOF 3
ENDMDL
MODEL 6
REMARK VINA RESULT:      -9.3      1.541      2.869
REMARK  Name = 
REMARK  3 active torsions:
REMARK  status: ('A' for Active; 'I' for Inactive)
REMARK    1  A    between atoms: C_2  and  N_3
REMARK    2  A    between atoms: C_12  and  C_13
REMARK    3  A    between atoms: C_13  and  N_14
REMARK                            x       y       z     vdW  Elec       q    Type
REMARK                         _______ _______ _______ _____ _____    ______ ____
ROOT
ATOM      1  C   UNL     1      37.644   3.993  13.945  0.00  0.00    +0.000 C 
ENDROOT
BRANCH   1   2
ATOM      2  N   UNL     1      38.053   4.960  14.893  0.00  0.00    +0.000 NA
ATOM      3  C   UNL     1      38.094   4.524  16.248  0.00  0.00    +0.000 C 
ATOM      4  C   UNL     1      39.399   4.709  16.945  0.00  0.00    +0.000 C 
ATOM      5  C   UNL     1      39.811   6.162  16.881  0.00  0.00    +0.000 C 
ATOM      6  C   UNL     1      39.573   6.754  15.514  0.00  0.00    +0.000 C 
ATOM      7  C   UNL     1      39.159   5.777  14.483  0.00  0.00    +0.000 C 
ATOM      8  C   UNL     1      41.127   6.439  17.413  0.00  0.00    +0.000 A 
ATOM      9  C   UNL     1      42.170   6.501  16.478  0.00  0.00    +0.000 A 
ATOM     10  C   UNL     1      43.472   6.755  16.828  0.00  0.00    +0.000 A 
ATOM     11  C   UNL     1      43.801   6.962  18.143  0.00  0.00    +0.000 A 
ATOM     12  C   UNL     1      42.786   6.903  19.068  0.00  0.00    +0.000 A 
ATOM     13  C   UNL     1      41.478   6.647  18.708  0.00  0.00    +0.000 A 
ATOM     14  C   UNL     1      40.414   6.593  19.738  0.00  0.00    +0.000 C 
ATOM     15  C   UNL     1      39.175   6.094  19.219  0.00  0.00    +0.000 C 
ATOM     16  C   UNL     1      38.693   6.916  17.858  0.00  0.00    +0.000 C 
ATOM     17  O   UNL     1      39.532   8.183  18.085  0.00  0.00    +0.000 OA
ENDBRANCH   1   2
BRANCH   1  27
ATOM     18  N   UNL     1      41.220  -0.358  14.006  0.00  0.00    +0.000 N 
ATOM     19  C   UNL     1      40.483  -1.243  14.741  0.00  0.00    +0.000 A 
ATOM     20  C   UNL     1      40.684  -2.525  15.180  0.00  0.00    +0.000 A 
ATOM     21  C   UNL     1      39.718  -3.171  15.928  0.00  0.00    +0.000 A 
ATOM     22  C   UNL     1      38.533  -2.538  16.248  0.00  0.00    +0.000 A 
ATOM     23  C   UNL     1      38.321  -1.249  15.811  0.00  0.00    +0.000 A 
ATOM     24  C   UNL     1      39.298  -0.628  15.068  0.00  0.00    +0.000 A 
ATOM     25  C   UNL     1      39.296   0.653  14.531  0.00  0.00    +0.000 A 
ATOM     26  C   UNL     1      38.364   1.665  14.567  0.00  0.00    +0.000 A 
ATOM     27  C   UNL     1      38.617   2.865  13.939  0.00  0.00    +0.000 A 
ATOM     28  C   UNL     1      39.829   2.985  13.290  0.00  0.00    +0.000 A 
ATOM     29  C   UNL     1      40.766   1.974  13.252  0.00  0.00    +0.000 A 
ATOM     30  C   UNL     1      40.504   0.772  13.885  0.00  0.00    +0.000 A 
BRANCH  18  32
ATOM     31  C   UNL     1      43.635  -0.270  14.448  0.00  0.00    +0.000 C 
ATOM     32  C   UNL     1      42.532  -0.666  13.488  0.00  0.00    +0.000 C 
ENDBRANCH  18  32
ENDBRANCH   1  27
TORSDOF 3
ENDMDL
MODEL 7
REMARK VINA RESULT:      -9.2     25.298     27.715
REMARK  Name = 
REMARK  3 active torsions:
REMARK  status: ('A' for Active; 'I' for Inactive)
REMARK    1  A    between atoms: C_2  and  N_3
REMARK    2  A    between atoms: C_12  and  C_13
REMARK    3  A    between atoms: C_13  and  N_14
REMARK                            x       y       z     vdW  Elec       q    Type
REMARK                         _______ _______ _______ _____ _____    ______ ____
ROOT
ATOM      1  C   UNL     1      26.858  16.116  39.612  0.00  0.00    +0.000 C 
ENDROOT
BRANCH   1   2
ATOM      2  N   UNL     1      27.032  16.069  38.209  0.00  0.00    +0.000 NA
ATOM      3  C   UNL     1      26.259  15.093  37.519  0.00  0.00    +0.000 C 
ATOM      4  C   UNL     1      25.400  15.612  36.417  0.00  0.00    +0.000 C 
ATOM      5  C   UNL     1      26.249  16.366  35.418  0.00  0.00    +0.000 C 
ATOM      6  C   UNL     1      27.258  17.257  36.099  0.00  0.00    +0.000 C 
ATOM      7  C   UNL     1      27.106  17.351  37.568  0.00  0.00    +0.000 C 
ATOM      8  C   UNL     1      25.503  17.027  34.370  0.00  0.00    +0.000 A 
ATOM      9  C   UNL     1      25.222  18.385  34.576  0.00  0.00    +0.000 A 
ATOM     10  C   UNL     1      24.525  19.147  33.673  0.00  0.00    +0.000 A 
ATOM     11  C   UNL     1      24.068  18.586  32.508  0.00  0.00    +0.000 A 
ATOM     12  C   UNL     1      24.338  17.254  32.298  0.00  0.00    +0.000 A 
ATOM     13  C   UNL     1      25.041  16.494  33.210  0.00  0.00    +0.000 A 
ATOM     14  C   UNL     1      25.310  15.062  32.943  0.00  0.00    +0.000 C 
ATOM     15  C   UNL     1      25.841  14.381  34.087  0.00  0.00    +0.000 C 
ATOM     16  C   UNL     1      27.165  15.165  34.718  0.00  0.00    +0.000 C 
ATOM     17  O   UNL     1      27.531  15.975  33.465  0.00  0.00    +0.000 OA
ENDBRANCH   1   2
BRANCH   1  27
ATOM     18  N   UNL     1      27.250  10.880  41.650  0.00  0.00    +0.000 N 
ATOM     19  C   UNL     1      28.532  10.592  41.281  0.00  0.00    +0.000 A 
ATOM     20  C   UNL     1      29.349   9.501  41.425  0.00  0.00    +0.000 A 
ATOM     21  C   UNL     1      30.637   9.516  40.925  0.00  0.00    +0.000 A 
ATOM     22  C   UNL     1      31.127  10.631  40.272  0.00  0.00    +0.000 A 
ATOM     23  C   UNL     1      30.314  11.733  40.123  0.00  0.00    +0.000 A 
ATOM     24  C   UNL     1      29.036  11.691  40.629  0.00  0.00    +0.000 A 
ATOM     25  C   UNL     1      28.056  12.676  40.592  0.00  0.00    +0.000 A 
ATOM     26  C   UNL     1      28.049  13.947  40.063  0.00  0.00    +0.000 A 
ATOM     27  C   UNL     1      26.923  14.734  40.165  0.00  0.00    +0.000 A 
ATOM     28  C   UNL     1      25.833  14.184  40.811  0.00  0.00    +0.000 A 
ATOM     29  C   UNL     1      25.838  12.911  41.341  0.00  0.00    +0.000 A 
ATOM     30  C   UNL     1      26.972  12.127  41.235  0.00  0.00    +0.000 A 
BRANCH  18  32
ATOM     31  C   UNL     1      26.500  10.120  43.863  0.00  0.00    +0.000 C 
ATOM     32  C   UNL     1      26.406   9.948  42.361  0.00  0.00    +0.000 C 
ENDBRANCH  18  32
ENDBRANCH   1  27
TORSDOF 3
ENDMDL
MODEL 8
REMARK VINA RESULT:      -9.1     25.408     27.680
REMARK  Name = 
REMARK  3 active torsions:
REMARK  status: ('A' for Active; 'I' for Inactive)
REMARK    1  A    between atoms: C_2  and  N_3
REMARK    2  A    between atoms: C_12  and  C_13
REMARK    3  A    between atoms: C_13  and  N_14
REMARK                            x       y       z     vdW  Elec       q    Type
REMARK                         _______ _______ _______ _____ _____    ______ ____
ROOT
ATOM      1  C   UNL     1      26.919  15.692  39.592  0.00  0.00    +0.000 C 
ENDROOT
BRANCH   1   2
ATOM      2  N   UNL     1      27.057  15.789  38.187  0.00  0.00    +0.000 NA
ATOM      3  C   UNL     1      26.239  14.912  37.420  0.00  0.00    +0.000 C 
ATOM      4  C   UNL     1      25.370  15.568  36.402  0.00  0.00    +0.000 C 
ATOM      5  C   UNL     1      26.216  16.399  35.465  0.00  0.00    +0.000 C 
ATOM      6  C   UNL     1      27.268  17.185  36.207  0.00  0.00    +0.000 C 
ATOM      7  C   UNL     1      27.155  17.128  37.681  0.00  0.00    +0.000 C 
ATOM      8  C   UNL     1      25.466  17.187  34.513  0.00  0.00    +0.000 A 
ATOM      9  C   UNL     1      25.231  18.522  34.866  0.00  0.00    +0.000 A 
ATOM     10  C   UNL     1      24.535  19.395  34.068  0.00  0.00    +0.000 A 
ATOM     11  C   UNL     1      24.034  18.972  32.863  0.00  0.00    +0.000 A 
ATOM     12  C   UNL     1      24.258  17.663  32.508  0.00  0.00    +0.000 A 
ATOM     13  C   UNL     1      24.959  16.791  33.316  0.00  0.00    +0.000 A 
ATOM     14  C   UNL     1      25.179  15.389  32.893  0.00  0.00    +0.000 C 
ATOM     15  C   UNL     1      25.717  14.578  33.945  0.00  0.00    +0.000 C 
ATOM     16  C   UNL     1      27.078  15.253  34.618  0.00  0.00    +0.000 C 
ATOM     17  O   UNL     1      27.438  16.181  33.447  0.00  0.00    +0.000 OA
ENDBRANCH   1   2
BRANCH   1  27
ATOM     18  N   UNL     1      30.270  11.602  41.535  0.00  0.00    +0.000 N 
ATOM     19  C   UNL     1      29.368  10.578  41.582  0.00  0.00    +0.000 A 
ATOM     20  C   UNL     1      29.432   9.260  41.952  0.00  0.00    +0.000 A 
ATOM     21  C   UNL     1      28.311   8.456  41.886  0.00  0.00    +0.000 A 
ATOM     22  C   UNL     1      27.104   8.963  41.446  0.00  0.00    +0.000 A 
ATOM     23  C   UNL     1      27.029  10.287  41.071  0.00  0.00    +0.000 A 
ATOM     24  C   UNL     1      28.159  11.066  41.147  0.00  0.00    +0.000 A 
ATOM     25  C   UNL     1      28.310  12.409  40.824  0.00  0.00    +0.000 A 
ATOM     26  C   UNL     1      27.421  13.346  40.349  0.00  0.00    +0.000 A 
ATOM     27  C   UNL     1      27.837  14.637  40.107  0.00  0.00    +0.000 A 
ATOM     28  C   UNL     1      29.163  14.924  40.364  0.00  0.00    +0.000 A 
ATOM     29  C   UNL     1      30.055  13.987  40.841  0.00  0.00    +0.000 A 
ATOM     30  C   UNL     1      29.630  12.693  41.081  0.00  0.00    +0.000 A 
BRANCH  18  32
ATOM     31  C   UNL     1      32.537  11.059  40.760  0.00  0.00    +0.000 C 
ATOM     32  C   UNL     1      31.652  11.453  41.924  0.00  0.00    +0.000 C 
ENDBRANCH  18  32
ENDBRANCH   1  27
TORSDOF 3
ENDMDL
MODEL 9
REMARK VINA RESULT:      -8.6      5.391      8.843
REMARK  Name = 
REMARK  3 active torsions:
REMARK  status: ('A' for Active; 'I' for Inactive)
REMARK    1  A    between atoms: C_2  and  N_3
REMARK    2  A    between atoms: C_12  and  C_13
REMARK    3  A    between atoms: C_13  and  N_14
REMARK                            x       y       z     vdW  Elec       q    Type
REMARK                         _______ _______ _______ _____ _____    ______ ____
ROOT
ATOM      1  C   UNL     1      38.345   0.853  10.944  0.00  0.00    +0.000 C 
ENDROOT
BRANCH   1   2
ATOM      2  N   UNL     1      38.052   1.106  12.304  0.00  0.00    +0.000 NA
ATOM      3  C   UNL     1      36.704   0.877  12.704  0.00  0.00    +0.000 C 
ATOM      4  C   UNL     1      36.521  -0.061  13.847  0.00  0.00    +0.000 C 
ATOM      5  C   UNL     1      37.313   0.425  15.040  0.00  0.00    +0.000 C 
ATOM      6  C   UNL     1      38.688   0.904  14.643  0.00  0.00    +0.000 C 
ATOM      7  C   UNL     1      39.047   0.647  13.231  0.00  0.00    +0.000 C 
ATOM      8  C   UNL     1      37.315  -0.476  16.170  0.00  0.00    +0.000 A 
ATOM      9  C   UNL     1      38.419  -1.334  16.273  0.00  0.00    +0.000 A 
ATOM     10  C   UNL     1      38.565  -2.244  17.289  0.00  0.00    +0.000 A 
ATOM     11  C   UNL     1      37.605  -2.345  18.264  0.00  0.00    +0.000 A 
ATOM     12  C   UNL     1      36.517  -1.508  18.171  0.00  0.00    +0.000 A 
ATOM     13  C   UNL     1      36.378  -0.595  17.146  0.00  0.00    +0.000 A 
ATOM     14  C   UNL     1      35.190   0.288  17.086  0.00  0.00    +0.000 C 
ATOM     15  C   UNL     1      35.100   1.001  15.845  0.00  0.00    +0.000 C 
ATOM     16  C   UNL     1      36.507   1.811  15.489  0.00  0.00    +0.000 C 
ATOM     17  O   UNL     1      37.077   1.853  16.915  0.00  0.00    +0.000 OA
ENDBRANCH   1   2
BRANCH   1  27
ATOM     18  N   UNL     1      35.828   4.644   7.624  0.00  0.00    +0.000 N 
ATOM     19  C   UNL     1      35.623   3.871   6.518  0.00  0.00    +0.000 A 
ATOM     20  C   UNL     1      35.061   4.088   5.287  0.00  0.00    +0.000 A 
ATOM     21  C   UNL     1      35.002   3.073   4.351  0.00  0.00    +0.000 A 
ATOM     22  C   UNL     1      35.509   1.820   4.638  0.00  0.00    +0.000 A 
ATOM     23  C   UNL     1      36.076   1.591   5.872  0.00  0.00    +0.000 A 
ATOM     24  C   UNL     1      36.122   2.619   6.785  0.00  0.00    +0.000 A 
ATOM     25  C   UNL     1      36.643   2.611   8.073  0.00  0.00    +0.000 A 
ATOM     26  C   UNL     1      37.249   1.623   8.815  0.00  0.00    +0.000 A 
ATOM     27  C   UNL     1      37.683   1.884  10.096  0.00  0.00    +0.000 A 
ATOM     28  C   UNL     1      37.477   3.162  10.576  0.00  0.00    +0.000 A 
ATOM     29  C   UNL     1      36.870   4.154   9.835  0.00  0.00    +0.000 A 
ATOM     30  C   UNL     1      36.437   3.884   8.550  0.00  0.00    +0.000 A 
BRANCH  18  32
ATOM     31  C   UNL     1      33.929   6.185   7.863  0.00  0.00    +0.000 C 
ATOM     32  C   UNL     1      35.428   6.028   7.703  0.00  0.00    +0.000 C 
ENDBRANCH  18  32
ENDBRANCH   1  27
TORSDOF 3
ENDMDL
MODEL 10
REMARK VINA RESULT:      -8.4      2.963      8.992
REMARK  Name = 
REMARK  3 active torsions:
REMARK  status: ('A' for Active; 'I' for Inactive)
REMARK    1  A    between atoms: C_2  and  N_3
REMARK    2  A    between atoms: C_12  and  C_13
REMARK    3  A    between atoms: C_13  and  N_14
REMARK                            x       y       z     vdW  Elec       q    Type
REMARK                         _______ _______ _______ _____ _____    ______ ____
ROOT
ATOM      1  C   UNL     1      38.138   3.362  14.608  0.00  0.00    +0.000 C 
ENDROOT
BRANCH   1   2
ATOM      2  N   UNL     1      37.796   2.243  15.403  0.00  0.00    +0.000 NA
ATOM      3  C   UNL     1      36.421   2.126  15.755  0.00  0.00    +0.000 C 
ATOM      4  C   UNL     1      35.770   0.837  15.387  0.00  0.00    +0.000 C 
ATOM      5  C   UNL     1      36.534  -0.315  15.998  0.00  0.00    +0.000 C 
ATOM      6  C   UNL     1      38.026  -0.135  15.860  0.00  0.00    +0.000 C 
ATOM      7  C   UNL     1      38.433   1.015  15.022  0.00  0.00    +0.000 C 
ATOM      8  C   UNL     1      36.069  -1.626  15.601  0.00  0.00    +0.000 A 
ATOM      9  C   UNL     1      36.759  -2.231  14.543  0.00  0.00    +0.000 A 
ATOM     10  C   UNL     1      36.437  -3.472  14.053  0.00  0.00    +0.000 A 
ATOM     11  C   UNL     1      35.397  -4.178  14.603  0.00  0.00    +0.000 A 
ATOM     12  C   UNL     1      34.712  -3.591  15.642  0.00  0.00    +0.000 A 
ATOM     13  C   UNL     1      35.043  -2.343  16.128  0.00  0.00    +0.000 A 
ATOM     14  C   UNL     1      34.279  -1.749  17.250  0.00  0.00    +0.000 C 
ATOM     15  C   UNL     1      34.608  -0.371  17.468  0.00  0.00    +0.000 C 
ATOM     16  C   UNL     1      36.246  -0.139  17.628  0.00  0.00    +0.000 C 
ATOM     17  O   UNL     1      36.615  -1.585  17.996  0.00  0.00    +0.000 OA
ENDBRANCH   1   2
BRANCH   1  27
ATOM     18  N   UNL     1      38.743   7.939  17.834  0.00  0.00    +0.000 N 
ATOM     19  C   UNL     1      37.879   8.780  17.194  0.00  0.00    +0.000 A 
ATOM     20  C   UNL     1      37.482  10.077  17.389  0.00  0.00    +0.000 A 
ATOM     21  C   UNL     1      36.562  10.666  16.541  0.00  0.00    +0.000 A 
ATOM     22  C   UNL     1      36.026   9.959  15.483  0.00  0.00    +0.000 A 
ATOM     23  C   UNL     1      36.419   8.655  15.278  0.00  0.00    +0.000 A 
ATOM     24  C   UNL     1      37.335   8.092  16.136  0.00  0.00    +0.000 A 
ATOM     25  C   UNL     1      37.866   6.809  16.117  0.00  0.00    +0.000 A 
ATOM     26  C   UNL     1      37.657   5.739  15.277  0.00  0.00    +0.000 A 
ATOM     27  C   UNL     1      38.326   4.552  15.485  0.00  0.00    +0.000 A 
ATOM     28  C   UNL     1      39.193   4.505  16.558  0.00  0.00    +0.000 A 
ATOM     29  C   UNL     1      39.405   5.576  17.400  0.00  0.00    +0.000 A 
ATOM     30  C   UNL     1      38.730   6.763  17.185  0.00  0.00    +0.000 A 
BRANCH  18  32
ATOM     31  C   UNL     1      38.758   8.040  20.289  0.00  0.00    +0.000 C 
ATOM     32  C   UNL     1      39.501   8.327  19.000  0.00  0.00    +0.000 C 
ENDBRANCH  18  32
ENDBRANCH   1  27
TORSDOF 3
ENDMDL
