MODEL 1
REMARK VINA RESULT:      -6.8      0.000      0.000
REMARK  Name = 
REMARK  4 active torsions:
REMARK  status: ('A' for Active; 'I' for Inactive)
REMARK    1  A    between atoms: N_11  and  C_12
REMARK    2  A    between atoms: C_12  and  C_13
REMARK    3  A    between atoms: C_13  and  O_14
REMARK    4  A    between atoms: O_14  and  C_15
REMARK                            x       y       z     vdW  Elec       q    Type
REMARK                         _______ _______ _______ _____ _____    ______ ____
ROOT
ATOM      1  O   UNL     1      17.025   9.718  35.154  0.00  0.00    +0.000 OA
ATOM      2  C   UNL     1      17.696  10.037  36.181  0.00  0.00    +0.000 C 
ATOM      3  N   UNL     1      18.496   9.194  37.014  0.00  0.00    +0.000 NA
ATOM      4  C   UNL     1      18.698   9.913  38.255  0.00  0.00    +0.000 C 
ATOM      5  C   UNL     1      20.015   9.605  38.902  0.00  0.00    +0.000 C 
ATOM      6  C   UNL     1      19.760   9.544  40.380  0.00  0.00    +0.000 C 
ATOM      7  C   UNL     1      18.277   9.736  40.571  0.00  0.00    +0.000 C 
ATOM      8  C   UNL     1      17.636   9.519  39.232  0.00  0.00    +0.000 C 
ATOM      9  C   UNL     1      18.589  11.338  37.825  0.00  0.00    +0.000 C 
ATOM     10  O   UNL     1      19.139  12.326  38.376  0.00  0.00    +0.000 OA
ATOM     11  N   UNL     1      17.747  11.373  36.674  0.00  0.00    +0.000 N 
ENDROOT
BRANCH  11  12
ATOM     12  C   UNL     1      17.068  12.539  36.111  0.00  0.00    +0.000 C 
BRANCH  12  13
ATOM     13  C   UNL     1      15.680  12.644  36.730  0.00  0.00    +0.000 C 
BRANCH  13  14
ATOM     14  O   UNL     1      14.784  12.050  35.833  0.00  0.00    +0.000 OA
BRANCH  14  15
ATOM     15  C   UNL     1      14.488  12.666  34.624  0.00  0.00    +0.000 A 
ATOM     16  C   UNL     1      13.765  13.836  34.565  0.00  0.00    +0.000 A 
ATOM     17  C   UNL     1      13.488  14.423  33.339  0.00  0.00    +0.000 A 
ATOM     18  C   UNL     1      13.912  13.876  32.147  0.00  0.00    +0.000 A 
ATOM     19  F   UNL     1      13.628  14.471  30.949  0.00  0.00    +0.000 F 
ATOM     20  C   UNL     1      14.636  12.702  32.209  0.00  0.00    +0.000 A 
ATOM     21  C   UNL     1      14.917  12.109  33.437  0.00  0.00    +0.000 A 
ENDBRANCH  14  15
ENDBRANCH  13  14
ENDBRANCH  12  13
ENDBRANCH  11  12
TORSDOF 4
ENDMDL
MODEL 2
REMARK VINA RESULT:      -6.7     19.417     21.022
REMARK  Name = 
REMARK  4 active torsions:
REMARK  status: ('A' for Active; 'I' for Inactive)
REMARK    1  A    between atoms: N_11  and  C_12
REMARK    2  A    between atoms: C_12  and  C_13
REMARK    3  A    between atoms: C_13  and  O_14
REMARK    4  A    between atoms: O_14  and  C_15
REMARK                            x       y       z     vdW  Elec       q    Type
REMARK                         _______ _______ _______ _____ _____    ______ ____
ROOT
ATOM      1  O   UNL     1      25.471  22.814  22.363  0.00  0.00    +0.000 OA
ATOM      2  C   UNL     1      25.807  23.351  23.460  0.00  0.00    +0.000 C 
ATOM      3  N   UNL     1      25.285  23.099  24.767  0.00  0.00    +0.000 NA
ATOM      4  C   UNL     1      25.671  24.226  25.590  0.00  0.00    +0.000 C 
ATOM      5  C   UNL     1      25.895  23.854  27.025  0.00  0.00    +0.000 C 
ATOM      6  C   UNL     1      25.346  24.982  27.849  0.00  0.00    +0.000 C 
ATOM      7  C   UNL     1      24.733  25.963  26.884  0.00  0.00    +0.000 C 
ATOM      8  C   UNL     1      24.576  25.245  25.576  0.00  0.00    +0.000 C 
ATOM      9  C   UNL     1      26.915  24.705  24.921  0.00  0.00    +0.000 C 
ATOM     10  O   UNL     1      27.871  25.312  25.470  0.00  0.00    +0.000 OA
ATOM     11  N   UNL     1      26.823  24.348  23.542  0.00  0.00    +0.000 N 
ENDROOT
BRANCH  11  12
ATOM     12  C   UNL     1      27.606  24.891  22.434  0.00  0.00    +0.000 C 
BRANCH  12  13
ATOM     13  C   UNL     1      28.620  23.843  21.991  0.00  0.00    +0.000 C 
BRANCH  13  14
ATOM     14  O   UNL     1      29.872  24.258  22.463  0.00  0.00    +0.000 OA
BRANCH  14  15
ATOM     15  C   UNL     1      30.319  23.858  23.716  0.00  0.00    +0.000 A 
ATOM     16  C   UNL     1      31.204  24.618  24.446  0.00  0.00    +0.000 A 
ATOM     17  C   UNL     1      31.629  24.187  25.693  0.00  0.00    +0.000 A 
ATOM     18  C   UNL     1      31.197  23.003  26.251  0.00  0.00    +0.000 A 
ATOM     19  F   UNL     1      31.628  22.596  27.483  0.00  0.00    +0.000 F 
ATOM     20  C   UNL     1      30.310  22.242  25.516  0.00  0.00    +0.000 A 
ATOM     21  C   UNL     1      29.879  22.671  24.263  0.00  0.00    +0.000 A 
ENDBRANCH  14  15
ENDBRANCH  13  14
ENDBRANCH  12  13
ENDBRANCH  11  12
TORSDOF 4
ENDMDL
MODEL 3
REMARK VINA RESULT:      -6.4      2.691      3.178
REMARK  Name = 
REMARK  4 active torsions:
REMARK  status: ('A' for Active; 'I' for Inactive)
REMARK    1  A    between atoms: N_11  and  C_12
REMARK    2  A    between atoms: C_12  and  C_13
REMARK    3  A    between atoms: C_13  and  O_14
REMARK    4  A    between atoms: O_14  and  C_15
REMARK                            x       y       z     vdW  Elec       q    Type
REMARK                         _______ _______ _______ _____ _____    ______ ____
ROOT
ATOM      1  O   UNL     1      17.233   9.923  35.238  0.00  0.00    +0.000 OA
ATOM      2  C   UNL     1      17.867  10.111  36.319  0.00  0.00    +0.000 C 
ATOM      3  N   UNL     1      18.497   9.140  37.157  0.00  0.00    +0.000 NA
ATOM      4  C   UNL     1      18.703   9.775  38.442  0.00  0.00    +0.000 C 
ATOM      5  C   UNL     1      19.924   9.275  39.154  0.00  0.00    +0.000 C 
ATOM      6  C   UNL     1      19.564   9.186  40.608  0.00  0.00    +0.000 C 
ATOM      7  C   UNL     1      18.107   9.557  40.716  0.00  0.00    +0.000 C 
ATOM      8  C   UNL     1      17.536   9.479  39.330  0.00  0.00    +0.000 C 
ATOM      9  C   UNL     1      18.802  11.219  38.078  0.00  0.00    +0.000 C 
ATOM     10  O   UNL     1      19.431  12.105  38.710  0.00  0.00    +0.000 OA
ATOM     11  N   UNL     1      18.050  11.409  36.880  0.00  0.00    +0.000 N 
ENDROOT
BRANCH  11  12
ATOM     12  C   UNL     1      17.562  12.674  36.335  0.00  0.00    +0.000 C 
BRANCH  12  13
ATOM     13  C   UNL     1      16.247  13.027  37.018  0.00  0.00    +0.000 C 
BRANCH  13  14
ATOM     14  O   UNL     1      15.217  12.651  36.147  0.00  0.00    +0.000 OA
BRANCH  14  15
ATOM     15  C   UNL     1      14.004  12.196  36.647  0.00  0.00    +0.000 A 
ATOM     16  C   UNL     1      12.813  12.806  36.324  0.00  0.00    +0.000 A 
ATOM     17  C   UNL     1      11.620  12.325  36.842  0.00  0.00    +0.000 A 
ATOM     18  C   UNL     1      11.569  11.238  37.688  0.00  0.00    +0.000 A 
ATOM     19  F   UNL     1      10.382  10.779  38.188  0.00  0.00    +0.000 F 
ATOM     20  C   UNL     1      12.765  10.629  38.012  0.00  0.00    +0.000 A 
ATOM     21  C   UNL     1      13.965  11.108  37.494  0.00  0.00    +0.000 A 
ENDBRANCH  14  15
ENDBRANCH  13  14
ENDBRANCH  12  13
ENDBRANCH  11  12
TORSDOF 4
ENDMDL
MODEL 4
REMARK VINA RESULT:      -6.2     18.687     19.985
REMARK  Name = 
REMARK  4 active torsions:
REMARK  status: ('A' for Active; 'I' for Inactive)
REMARK    1  A    between atoms: N_11  and  C_12
REMARK    2  A    between atoms: C_12  and  C_13
REMARK    3  A    between atoms: C_13  and  O_14
REMARK    4  A    between atoms: O_14  and  C_15
REMARK                            x       y       z     vdW  Elec       q    Type
REMARK                         _______ _______ _______ _____ _____    ______ ____
ROOT
ATOM      1  O   UNL     1      26.313  23.339  22.348  0.00  0.00    +0.000 OA
ATOM      2  C   UNL     1      27.322  23.638  23.053  0.00  0.00    +0.000 C 
ATOM      3  N   UNL     1      28.567  22.942  23.159  0.00  0.00    +0.000 NA
ATOM      4  C   UNL     1      29.203  23.416  24.370  0.00  0.00    +0.000 C 
ATOM      5  C   UNL     1      30.700  23.418  24.283  0.00  0.00    +0.000 C 
ATOM      6  C   UNL     1      31.206  22.976  25.624  0.00  0.00    +0.000 C 
ATOM      7  C   UNL     1      29.994  22.640  26.455  0.00  0.00    +0.000 C 
ATOM      8  C   UNL     1      28.840  22.511  25.504  0.00  0.00    +0.000 C 
ATOM      9  C   UNL     1      28.635  24.787  24.519  0.00  0.00    +0.000 C 
ATOM     10  O   UNL     1      29.185  25.764  25.091  0.00  0.00    +0.000 OA
ATOM     11  N   UNL     1      27.352  24.788  23.895  0.00  0.00    +0.000 N 
ENDROOT
BRANCH  11  12
ATOM     12  C   UNL     1      26.281  25.766  24.077  0.00  0.00    +0.000 C 
BRANCH  12  13
ATOM     13  C   UNL     1      25.264  25.200  25.061  0.00  0.00    +0.000 C 
BRANCH  13  14
ATOM     14  O   UNL     1      25.431  25.893  26.266  0.00  0.00    +0.000 OA
BRANCH  14  15
ATOM     15  C   UNL     1      25.634  25.200  27.452  0.00  0.00    +0.000 A 
ATOM     16  C   UNL     1      25.266  25.726  28.670  0.00  0.00    +0.000 A 
ATOM     17  C   UNL     1      25.485  25.006  29.835  0.00  0.00    +0.000 A 
ATOM     18  C   UNL     1      26.069  23.757  29.831  0.00  0.00    +0.000 A 
ATOM     19  F   UNL     1      26.275  23.063  30.991  0.00  0.00    +0.000 F 
ATOM     20  C   UNL     1      26.437  23.233  28.608  0.00  0.00    +0.000 A 
ATOM     21  C   UNL     1      26.219  23.952  27.436  0.00  0.00    +0.000 A 
ENDBRANCH  14  15
ENDBRANCH  13  14
ENDBRANCH  12  13
ENDBRANCH  11  12
TORSDOF 4
ENDMDL
MODEL 5
REMARK VINA RESULT:      -6.1     21.659     24.399
REMARK  Name = 
REMARK  4 active torsions:
REMARK  status: ('A' for Active; 'I' for Inactive)
REMARK    1  A    between atoms: N_11  and  C_12
REMARK    2  A    between atoms: C_12  and  C_13
REMARK    3  A    between atoms: C_13  and  O_14
REMARK    4  A    between atoms: O_14  and  C_15
REMARK                            x       y       z     vdW  Elec       q    Type
REMARK                         _______ _______ _______ _____ _____    ______ ____
ROOT
ATOM      1  O   UNL     1      36.021  -5.933  33.528  0.00  0.00    +0.000 OA
ATOM      2  C   UNL     1      35.325  -6.401  32.578  0.00  0.00    +0.000 C 
ATOM      3  N   UNL     1      35.753  -6.770  31.265  0.00  0.00    +0.000 NA
ATOM      4  C   UNL     1      34.561  -6.836  30.446  0.00  0.00    +0.000 C 
ATOM      5  C   UNL     1      34.655  -7.860  29.354  0.00  0.00    +0.000 C 
ATOM      6  C   UNL     1      33.993  -7.261  28.148  0.00  0.00    +0.000 C 
ATOM      7  C   UNL     1      33.592  -5.858  28.528  0.00  0.00    +0.000 C 
ATOM      8  C   UNL     1      34.347  -5.514  29.778  0.00  0.00    +0.000 C 
ATOM      9  C   UNL     1      33.499  -7.158  31.444  0.00  0.00    +0.000 C 
ATOM     10  O   UNL     1      32.426  -7.775  31.218  0.00  0.00    +0.000 OA
ATOM     11  N   UNL     1      33.925  -6.638  32.702  0.00  0.00    +0.000 N 
ENDROOT
BRANCH  11  12
ATOM     12  C   UNL     1      33.099  -6.394  33.883  0.00  0.00    +0.000 C 
BRANCH  12  13
ATOM     13  C   UNL     1      32.282  -5.128  33.656  0.00  0.00    +0.000 C 
BRANCH  13  14
ATOM     14  O   UNL     1      32.556  -4.266  34.725  0.00  0.00    +0.000 OA
BRANCH  14  15
ATOM     15  C   UNL     1      32.741  -2.908  34.504  0.00  0.00    +0.000 A 
ATOM     16  C   UNL     1      33.629  -2.442  33.561  0.00  0.00    +0.000 A 
ATOM     17  C   UNL     1      33.788  -1.079  33.367  0.00  0.00    +0.000 A 
ATOM     18  C   UNL     1      33.082  -0.143  34.094  0.00  0.00    +0.000 A 
ATOM     19  F   UNL     1      33.254   1.197  33.886  0.00  0.00    +0.000 F 
ATOM     20  C   UNL     1      32.193  -0.613  35.039  0.00  0.00    +0.000 A 
ATOM     21  C   UNL     1      32.029  -1.982  35.237  0.00  0.00    +0.000 A 
ENDBRANCH  14  15
ENDBRANCH  13  14
ENDBRANCH  12  13
ENDBRANCH  11  12
TORSDOF 4
ENDMDL
MODEL 6
REMARK VINA RESULT:      -6.1     20.032     21.651
REMARK  Name = 
REMARK  4 active torsions:
REMARK  status: ('A' for Active; 'I' for Inactive)
REMARK    1  A    between atoms: N_11  and  C_12
REMARK    2  A    between atoms: C_12  and  C_13
REMARK    3  A    between atoms: C_13  and  O_14
REMARK    4  A    between atoms: O_14  and  C_15
REMARK                            x       y       z     vdW  Elec       q    Type
REMARK                         _______ _______ _______ _____ _____    ______ ____
ROOT
ATOM      1  O   UNL     1      27.754  27.633  22.892  0.00  0.00    +0.000 OA
ATOM      2  C   UNL     1      27.188  26.680  23.507  0.00  0.00    +0.000 C 
ATOM      3  N   UNL     1      26.531  26.712  24.776  0.00  0.00    +0.000 NA
ATOM      4  C   UNL     1      26.435  25.339  25.225  0.00  0.00    +0.000 C 
ATOM      5  C   UNL     1      25.217  25.078  26.059  0.00  0.00    +0.000 C 
ATOM      6  C   UNL     1      25.640  24.140  27.152  0.00  0.00    +0.000 C 
ATOM      7  C   UNL     1      27.123  23.929  26.989  0.00  0.00    +0.000 C 
ATOM      8  C   UNL     1      27.619  25.015  26.080  0.00  0.00    +0.000 C 
ATOM      9  C   UNL     1      26.424  24.578  23.941  0.00  0.00    +0.000 C 
ATOM     10  O   UNL     1      25.892  23.455  23.744  0.00  0.00    +0.000 OA
ATOM     11  N   UNL     1      27.128  25.359  22.976  0.00  0.00    +0.000 N 
ENDROOT
BRANCH  11  12
ATOM     12  C   UNL     1      27.679  24.903  21.702  0.00  0.00    +0.000 C 
BRANCH  12  13
ATOM     13  C   UNL     1      28.618  23.731  21.966  0.00  0.00    +0.000 C 
BRANCH  13  14
ATOM     14  O   UNL     1      29.792  24.261  22.514  0.00  0.00    +0.000 OA
BRANCH  14  15
ATOM     15  C   UNL     1      30.240  23.839  23.759  0.00  0.00    +0.000 A 
ATOM     16  C   UNL     1      31.209  24.529  24.452  0.00  0.00    +0.000 A 
ATOM     17  C   UNL     1      31.631  24.078  25.694  0.00  0.00    +0.000 A 
ATOM     18  C   UNL     1      31.115  22.943  26.280  0.00  0.00    +0.000 A 
ATOM     19  F   UNL     1      31.546  22.516  27.506  0.00  0.00    +0.000 F 
ATOM     20  C   UNL     1      30.145  22.253  25.583  0.00  0.00    +0.000 A 
ATOM     21  C   UNL     1      29.716  22.702  24.336  0.00  0.00    +0.000 A 
ENDBRANCH  14  15
ENDBRANCH  13  14
ENDBRANCH  12  13
ENDBRANCH  11  12
TORSDOF 4
ENDMDL
MODEL 7
REMARK VINA RESULT:      -5.9     22.644     24.147
REMARK  Name = 
REMARK  4 active torsions:
REMARK  status: ('A' for Active; 'I' for Inactive)
REMARK    1  A    between atoms: N_11  and  C_12
REMARK    2  A    between atoms: C_12  and  C_13
REMARK    3  A    between atoms: C_13  and  O_14
REMARK    4  A    between atoms: O_14  and  C_15
REMARK                            x       y       z     vdW  Elec       q    Type
REMARK                         _______ _______ _______ _____ _____    ______ ____
ROOT
ATOM      1  O   UNL     1      29.712  24.279  20.893  0.00  0.00    +0.000 OA
ATOM      2  C   UNL     1      29.136  24.270  22.022  0.00  0.00    +0.000 C 
ATOM      3  N   UNL     1      28.559  23.159  22.713  0.00  0.00    +0.000 NA
ATOM      4  C   UNL     1      27.676  23.712  23.719  0.00  0.00    +0.000 C 
ATOM      5  C   UNL     1      27.581  22.859  24.948  0.00  0.00    +0.000 C 
ATOM      6  C   UNL     1      26.149  22.908  25.392  0.00  0.00    +0.000 C 
ATOM      7  C   UNL     1      25.406  23.725  24.366  0.00  0.00    +0.000 C 
ATOM      8  C   UNL     1      26.293  23.815  23.159  0.00  0.00    +0.000 C 
ATOM      9  C   UNL     1      28.290  25.045  23.991  0.00  0.00    +0.000 C 
ATOM     10  O   UNL     1      28.217  25.693  25.067  0.00  0.00    +0.000 OA
ATOM     11  N   UNL     1      28.976  25.449  22.807  0.00  0.00    +0.000 N 
ENDROOT
BRANCH  11  12
ATOM     12  C   UNL     1      29.425  26.796  22.462  0.00  0.00    +0.000 C 
BRANCH  12  13
ATOM     13  C   UNL     1      28.273  27.542  21.800  0.00  0.00    +0.000 C 
BRANCH  13  14
ATOM     14  O   UNL     1      28.403  27.354  20.418  0.00  0.00    +0.000 OA
BRANCH  14  15
ATOM     15  C   UNL     1      29.476  27.906  19.732  0.00  0.00    +0.000 A 
ATOM     16  C   UNL     1      29.862  29.214  19.921  0.00  0.00    +0.000 A 
ATOM     17  C   UNL     1      30.940  29.731  19.218  0.00  0.00    +0.000 A 
ATOM     18  C   UNL     1      31.660  28.979  18.315  0.00  0.00    +0.000 A 
ATOM     19  F   UNL     1      32.720  29.509  17.632  0.00  0.00    +0.000 F 
ATOM     20  C   UNL     1      31.271  27.669  18.126  0.00  0.00    +0.000 A 
ATOM     21  C   UNL     1      30.190  27.144  18.831  0.00  0.00    +0.000 A 
ENDBRANCH  14  15
ENDBRANCH  13  14
ENDBRANCH  12  13
ENDBRANCH  11  12
TORSDOF 4
ENDMDL
MODEL 8
REMARK VINA RESULT:      -5.9     18.818     20.154
REMARK  Name = 
REMARK  4 active torsions:
REMARK  status: ('A' for Active; 'I' for Inactive)
REMARK    1  A    between atoms: N_11  and  C_12
REMARK    2  A    between atoms: C_12  and  C_13
REMARK    3  A    between atoms: C_13  and  O_14
REMARK    4  A    between atoms: O_14  and  C_15
REMARK                            x       y       z     vdW  Elec       q    Type
REMARK                         _______ _______ _______ _____ _____    ______ ____
ROOT
ATOM      1  O   UNL     1       8.197  23.031  23.554  0.00  0.00    +0.000 OA
ATOM      2  C   UNL     1       8.530  22.445  22.481  0.00  0.00    +0.000 C 
ATOM      3  N   UNL     1       8.649  21.041  22.240  0.00  0.00    +0.000 NA
ATOM      4  C   UNL     1       9.446  20.894  21.040  0.00  0.00    +0.000 C 
ATOM      5  C   UNL     1       9.080  19.683  20.237  0.00  0.00    +0.000 C 
ATOM      6  C   UNL     1      10.365  19.114  19.712  0.00  0.00    +0.000 C 
ATOM      7  C   UNL     1      11.477  19.955  20.285  0.00  0.00    +0.000 C 
ATOM      8  C   UNL     1      10.885  20.740  21.420  0.00  0.00    +0.000 C 
ATOM      9  C   UNL     1       9.174  22.169  20.313  0.00  0.00    +0.000 C 
ATOM     10  O   UNL     1       9.219  22.341  19.067  0.00  0.00    +0.000 OA
ATOM     11  N   UNL     1       8.854  23.158  21.290  0.00  0.00    +0.000 N 
ENDROOT
BRANCH  11  12
ATOM     12  C   UNL     1       8.856  24.608  21.113  0.00  0.00    +0.000 C 
BRANCH  12  13
ATOM     13  C   UNL     1      10.210  25.153  21.550  0.00  0.00    +0.000 C 
BRANCH  13  14
ATOM     14  O   UNL     1      11.139  24.776  20.572  0.00  0.00    +0.000 OA
BRANCH  14  15
ATOM     15  C   UNL     1      12.396  24.313  20.937  0.00  0.00    +0.000 A 
ATOM     16  C   UNL     1      13.068  24.823  22.024  0.00  0.00    +0.000 A 
ATOM     17  C   UNL     1      14.322  24.336  22.360  0.00  0.00    +0.000 A 
ATOM     18  C   UNL     1      14.944  23.341  21.637  0.00  0.00    +0.000 A 
ATOM     19  F   UNL     1      16.182  22.874  21.985  0.00  0.00    +0.000 F 
ATOM     20  C   UNL     1      14.268  22.831  20.546  0.00  0.00    +0.000 A 
ATOM     21  C   UNL     1      13.008  23.316  20.206  0.00  0.00    +0.000 A 
ENDBRANCH  14  15
ENDBRANCH  13  14
ENDBRANCH  12  13
ENDBRANCH  11  12
TORSDOF 4
ENDMDL
MODEL 9
REMARK VINA RESULT:      -5.9     18.506     20.119
REMARK  Name = 
REMARK  4 active torsions:
REMARK  status: ('A' for Active; 'I' for Inactive)
REMARK    1  A    between atoms: N_11  and  C_12
REMARK    2  A    between atoms: C_12  and  C_13
REMARK    3  A    between atoms: C_13  and  O_14
REMARK    4  A    between atoms: O_14  and  C_15
REMARK                            x       y       z     vdW  Elec       q    Type
REMARK                         _______ _______ _______ _____ _____    ______ ____
ROOT
ATOM      1  O   UNL     1      31.896  23.096  24.235  0.00  0.00    +0.000 OA
ATOM      2  C   UNL     1      30.635  23.101  24.366  0.00  0.00    +0.000 C 
ATOM      3  N   UNL     1      29.649  23.535  23.427  0.00  0.00    +0.000 NA
ATOM      4  C   UNL     1      28.427  23.740  24.176  0.00  0.00    +0.000 C 
ATOM      5  C   UNL     1      27.192  23.461  23.373  0.00  0.00    +0.000 C 
ATOM      6  C   UNL     1      26.185  24.502  23.764  0.00  0.00    +0.000 C 
ATOM      7  C   UNL     1      26.874  25.428  24.733  0.00  0.00    +0.000 C 
ATOM      8  C   UNL     1      28.347  25.171  24.606  0.00  0.00    +0.000 C 
ATOM      9  C   UNL     1      28.589  22.800  25.324  0.00  0.00    +0.000 C 
ATOM     10  O   UNL     1      27.663  22.249  25.973  0.00  0.00    +0.000 OA
ATOM     11  N   UNL     1      29.989  22.641  25.550  0.00  0.00    +0.000 N 
ENDROOT
BRANCH  11  12
ATOM     12  C   UNL     1      30.636  22.115  26.751  0.00  0.00    +0.000 C 
BRANCH  12  13
ATOM     13  C   UNL     1      30.581  23.177  27.842  0.00  0.00    +0.000 C 
BRANCH  13  14
ATOM     14  O   UNL     1      29.770  22.672  28.866  0.00  0.00    +0.000 OA
BRANCH  14  15
ATOM     15  C   UNL     1      28.539  23.254  29.138  0.00  0.00    +0.000 A 
ATOM     16  C   UNL     1      27.604  22.631  29.935  0.00  0.00    +0.000 A 
ATOM     17  C   UNL     1      26.385  23.242  30.185  0.00  0.00    +0.000 A 
ATOM     18  C   UNL     1      26.055  24.474  29.660  0.00  0.00    +0.000 A 
ATOM     19  F   UNL     1      24.847  25.058  29.920  0.00  0.00    +0.000 F 
ATOM     20  C   UNL     1      26.994  25.095  28.862  0.00  0.00    +0.000 A 
ATOM     21  C   UNL     1      28.220  24.486  28.608  0.00  0.00    +0.000 A 
ENDBRANCH  14  15
ENDBRANCH  13  14
ENDBRANCH  12  13
ENDBRANCH  11  12
TORSDOF 4
ENDMDL
MODEL 10
REMARK VINA RESULT:      -5.8     19.477     21.248
REMARK  Name = 
REMARK  4 active torsions:
REMARK  status: ('A' for Active; 'I' for Inactive)
REMARK    1  A    between atoms: N_11  and  C_12
REMARK    2  A    between atoms: C_12  and  C_13
REMARK    3  A    between atoms: C_13  and  O_14
REMARK    4  A    between atoms: O_14  and  C_15
REMARK                            x       y       z     vdW  Elec       q    Type
REMARK                         _______ _______ _______ _____ _____    ______ ____
ROOT
ATOM      1  O   UNL     1      24.965  22.449  22.745  0.00  0.00    +0.000 OA
ATOM      2  C   UNL     1      25.791  23.409  22.728  0.00  0.00    +0.000 C 
ATOM      3  N   UNL     1      26.651  23.820  21.662  0.00  0.00    +0.000 NA
ATOM      4  C   UNL     1      27.672  24.658  22.255  0.00  0.00    +0.000 C 
ATOM      5  C   UNL     1      28.165  25.727  21.327  0.00  0.00    +0.000 C 
ATOM      6  C   UNL     1      29.645  25.839  21.551  0.00  0.00    +0.000 C 
ATOM      7  C   UNL     1      30.012  24.772  22.552  0.00  0.00    +0.000 C 
ATOM      8  C   UNL     1      28.857  23.815  22.608  0.00  0.00    +0.000 C 
ATOM      9  C   UNL     1      26.980  25.213  23.455  0.00  0.00    +0.000 C 
ATOM     10  O   UNL     1      27.227  26.312  24.015  0.00  0.00    +0.000 OA
ATOM     11  N   UNL     1      25.986  24.269  23.849  0.00  0.00    +0.000 N 
ENDROOT
BRANCH  11  12
ATOM     12  C   UNL     1      25.302  24.191  25.138  0.00  0.00    +0.000 C 
BRANCH  12  13
ATOM     13  C   UNL     1      26.079  23.247  26.048  0.00  0.00    +0.000 C 
BRANCH  13  14
ATOM     14  O   UNL     1      27.018  24.022  26.739  0.00  0.00    +0.000 OA
BRANCH  14  15
ATOM     15  C   UNL     1      28.243  23.480  27.107  0.00  0.00    +0.000 A 
ATOM     16  C   UNL     1      28.822  23.760  28.324  0.00  0.00    +0.000 A 
ATOM     17  C   UNL     1      30.046  23.201  28.658  0.00  0.00    +0.000 A 
ATOM     18  C   UNL     1      30.728  22.358  27.807  0.00  0.00    +0.000 A 
ATOM     19  F   UNL     1      31.934  21.817  28.156  0.00  0.00    +0.000 F 
ATOM     20  C   UNL     1      30.145  22.080  26.587  0.00  0.00    +0.000 A 
ATOM     21  C   UNL     1      28.916  22.638  26.247  0.00  0.00    +0.000 A 
ENDBRANCH  14  15
ENDBRANCH  13  14
ENDBRANCH  12  13
ENDBRANCH  11  12
TORSDOF 4
ENDMDL
