MODEL 1
REMARK VINA RESULT:      -7.0      0.000      0.000
REMARK  Name = 
REMARK  1 active torsions:
REMARK  status: ('A' for Active; 'I' for Inactive)
REMARK    1  A    between atoms: C_2  and  C_3
REMARK                            x       y       z     vdW  Elec       q    Type
REMARK                         _______ _______ _______ _____ _____    ______ ____
ROOT
ATOM      1  C   UNL     1      19.398  -9.924  27.690  0.00  0.00    +0.000 A 
ATOM      2  C   UNL     1      20.539  -9.910  26.888  0.00  0.00    +0.000 A 
ATOM      3  O   UNL     1      21.359 -11.019  26.734  0.00  0.00    +0.000 OA
ATOM      4  N   UNL     1      20.860  -8.783  26.237  0.00  0.00    +0.000 N 
ATOM      5  C   UNL     1      21.855  -8.407  25.400  0.00  0.00    +0.000 A 
ATOM      6  C   UNL     1      21.693  -7.096  25.018  0.00  0.00    +0.000 A 
ATOM      7  C   UNL     1      20.547  -6.664  25.654  0.00  0.00    +0.000 A 
ATOM      8  C   UNL     1      19.800  -5.510  25.739  0.00  0.00    +0.000 A 
ATOM      9  C   UNL     1      18.655  -5.412  26.503  0.00  0.00    +0.000 A 
ATOM     10  C   UNL     1      18.200  -6.505  27.234  0.00  0.00    +0.000 A 
ATOM     11  C   UNL     1      18.946  -7.671  27.153  0.00  0.00    +0.000 A 
ATOM     12  C   UNL     1      18.596  -8.819  27.832  0.00  0.00    +0.000 A 
ATOM     13  O   UNL     1      17.591  -8.867  28.552  0.00  0.00    +0.000 OA
ATOM     14  C   UNL     1      20.080  -7.734  26.386  0.00  0.00    +0.000 A 
ATOM     15  C   UNL     1      22.558  -6.332  24.125  0.00  0.00    +0.000 C 
ATOM     16  C   UNL     1      23.251  -7.374  23.063  0.00  0.00    +0.000 C 
ATOM     17  C   UNL     1      21.903  -8.291  22.824  0.00  0.00    +0.000 C 
ATOM     18  C   UNL     1      23.947  -8.294  24.228  0.00  0.00    +0.000 C 
ATOM     19  C   UNL     1      23.006  -9.163  24.883  0.00  0.00    +0.000 C 
ENDROOT
BRANCH   1  21
ATOM     20  C   UNL     1      19.780 -11.212  29.748  0.00  0.00    +0.000 C 
ATOM     21  C   UNL     1      19.094 -11.197  28.384  0.00  0.00    +0.000 C 
ENDBRANCH   1  21
TORSDOF 1
ENDMDL
MODEL 2
REMARK VINA RESULT:      -6.9     15.514     18.421
REMARK  Name = 
REMARK  1 active torsions:
REMARK  status: ('A' for Active; 'I' for Inactive)
REMARK    1  A    between atoms: C_2  and  C_3
REMARK                            x       y       z     vdW  Elec       q    Type
REMARK                         _______ _______ _______ _____ _____    ______ ____
ROOT
ATOM      1  C   UNL     1      26.991   6.489  14.390  0.00  0.00    +0.000 A 
ATOM      2  C   UNL     1      26.007   5.546  14.685  0.00  0.00    +0.000 A 
ATOM      3  O   UNL     1      25.191   4.987  13.712  0.00  0.00    +0.000 OA
ATOM      4  N   UNL     1      25.838   5.161  15.958  0.00  0.00    +0.000 N 
ATOM      5  C   UNL     1      25.015   4.300  16.601  0.00  0.00    +0.000 A 
ATOM      6  C   UNL     1      25.282   4.296  17.949  0.00  0.00    +0.000 A 
ATOM      7  C   UNL     1      26.314   5.195  18.126  0.00  0.00    +0.000 A 
ATOM      8  C   UNL     1      27.071   5.689  19.165  0.00  0.00    +0.000 A 
ATOM      9  C   UNL     1      28.070   6.624  18.987  0.00  0.00    +0.000 A 
ATOM     10  C   UNL     1      28.357   7.115  17.718  0.00  0.00    +0.000 A 
ATOM     11  C   UNL     1      27.599   6.623  16.666  0.00  0.00    +0.000 A 
ATOM     12  C   UNL     1      27.790   7.034  15.364  0.00  0.00    +0.000 A 
ATOM     13  O   UNL     1      28.654   7.868  15.066  0.00  0.00    +0.000 OA
ATOM     14  C   UNL     1      26.614   5.695  16.878  0.00  0.00    +0.000 A 
ATOM     15  C   UNL     1      24.609   3.500  18.971  0.00  0.00    +0.000 C 
ATOM     16  C   UNL     1      24.077   2.111  18.276  0.00  0.00    +0.000 C 
ATOM     17  C   UNL     1      25.417   1.865  17.349  0.00  0.00    +0.000 C 
ATOM     18  C   UNL     1      23.162   2.877  17.152  0.00  0.00    +0.000 C 
ATOM     19  C   UNL     1      23.948   3.431  16.081  0.00  0.00    +0.000 C 
ENDROOT
BRANCH   1  21
ATOM     20  C   UNL     1      28.154   5.969  12.289  0.00  0.00    +0.000 C 
ATOM     21  C   UNL     1      27.130   6.876  12.967  0.00  0.00    +0.000 C 
ENDBRANCH   1  21
TORSDOF 1
ENDMDL
MODEL 3
REMARK VINA RESULT:      -6.9     32.393     32.785
REMARK  Name = 
REMARK  1 active torsions:
REMARK  status: ('A' for Active; 'I' for Inactive)
REMARK    1  A    between atoms: C_2  and  C_3
REMARK                            x       y       z     vdW  Elec       q    Type
REMARK                         _______ _______ _______ _____ _____    ______ ____
ROOT
ATOM      1  C   UNL     1      27.029  23.311  28.424  0.00  0.00    +0.000 A 
ATOM      2  C   UNL     1      26.472  23.512  27.161  0.00  0.00    +0.000 A 
ATOM      3  O   UNL     1      25.133  23.826  26.975  0.00  0.00    +0.000 OA
ATOM      4  N   UNL     1      27.257  23.397  26.081  0.00  0.00    +0.000 N 
ATOM      5  C   UNL     1      27.077  23.516  24.745  0.00  0.00    +0.000 A 
ATOM      6  C   UNL     1      28.257  23.286  24.077  0.00  0.00    +0.000 A 
ATOM      7  C   UNL     1      29.190  23.018  25.058  0.00  0.00    +0.000 A 
ATOM      8  C   UNL     1      30.530  22.710  25.134  0.00  0.00    +0.000 A 
ATOM      9  C   UNL     1      31.183  22.492  26.330  0.00  0.00    +0.000 A 
ATOM     10  C   UNL     1      30.493  22.578  27.535  0.00  0.00    +0.000 A 
ATOM     11  C   UNL     1      29.144  22.888  27.467  0.00  0.00    +0.000 A 
ATOM     12  C   UNL     1      28.355  23.000  28.592  0.00  0.00    +0.000 A 
ATOM     13  O   UNL     1      28.816  22.830  29.728  0.00  0.00    +0.000 OA
ATOM     14  C   UNL     1      28.526  23.098  26.262  0.00  0.00    +0.000 A 
ATOM     15  C   UNL     1      28.467  23.324  22.634  0.00  0.00    +0.000 C 
ATOM     16  C   UNL     1      27.397  24.386  21.984  0.00  0.00    +0.000 C 
ATOM     17  C   UNL     1      27.535  25.513  23.178  0.00  0.00    +0.000 C 
ATOM     18  C   UNL     1      26.078  23.604  22.563  0.00  0.00    +0.000 C 
ATOM     19  C   UNL     1      25.869  23.835  23.969  0.00  0.00    +0.000 C 
ENDROOT
BRANCH   1  21
ATOM     20  C   UNL     1      26.069  24.911  30.024  0.00  0.00    +0.000 C 
ATOM     21  C   UNL     1      26.113  23.451  29.580  0.00  0.00    +0.000 C 
ENDBRANCH   1  21
TORSDOF 1
ENDMDL
MODEL 4
REMARK VINA RESULT:      -6.9     18.681     19.780
REMARK  Name = 
REMARK  1 active torsions:
REMARK  status: ('A' for Active; 'I' for Inactive)
REMARK    1  A    between atoms: C_2  and  C_3
REMARK                            x       y       z     vdW  Elec       q    Type
REMARK                         _______ _______ _______ _____ _____    ______ ____
ROOT
ATOM      1  C   UNL     1      33.930  -0.155  36.935  0.00  0.00    +0.000 A 
ATOM      2  C   UNL     1      33.930   1.210  37.222  0.00  0.00    +0.000 A 
ATOM      3  O   UNL     1      33.930   1.703  38.519  0.00  0.00    +0.000 OA
ATOM      4  N   UNL     1      33.930   2.086  36.207  0.00  0.00    +0.000 N 
ATOM      5  C   UNL     1      33.930   3.436  36.102  0.00  0.00    +0.000 A 
ATOM      6  C   UNL     1      33.929   3.815  34.780  0.00  0.00    +0.000 A 
ATOM      7  C   UNL     1      33.930   2.640  34.057  0.00  0.00    +0.000 A 
ATOM      8  C   UNL     1      33.930   2.255  32.735  0.00  0.00    +0.000 A 
ATOM      9  C   UNL     1      33.930   0.933  32.338  0.00  0.00    +0.000 A 
ATOM     10  C   UNL     1      33.930  -0.086  33.284  0.00  0.00    +0.000 A 
ATOM     11  C   UNL     1      33.930   0.293  34.618  0.00  0.00    +0.000 A 
ATOM     12  C   UNL     1      33.929  -0.626  35.646  0.00  0.00    +0.000 A 
ATOM     13  O   UNL     1      33.930  -1.844  35.428  0.00  0.00    +0.000 OA
ATOM     14  C   UNL     1      33.929   1.615  34.978  0.00  0.00    +0.000 A 
ATOM     15  C   UNL     1      33.929   5.180  34.262  0.00  0.00    +0.000 C 
ATOM     16  C   UNL     1      34.691   6.144  35.351  0.00  0.00    +0.000 C 
ATOM     17  C   UNL     1      35.887   5.072  35.718  0.00  0.00    +0.000 C 
ATOM     18  C   UNL     1      33.671   5.774  36.580  0.00  0.00    +0.000 C 
ATOM     19  C   UNL     1      33.930   4.474  37.143  0.00  0.00    +0.000 C 
ENDROOT
BRANCH   1  21
ATOM     20  C   UNL     1      35.367  -1.438  38.461  0.00  0.00    +0.000 C 
ATOM     21  C   UNL     1      33.930  -1.073  38.097  0.00  0.00    +0.000 C 
ENDBRANCH   1  21
TORSDOF 1
ENDMDL
MODEL 5
REMARK VINA RESULT:      -6.9      1.465      4.983
REMARK  Name = 
REMARK  1 active torsions:
REMARK  status: ('A' for Active; 'I' for Inactive)
REMARK    1  A    between atoms: C_2  and  C_3
REMARK                            x       y       z     vdW  Elec       q    Type
REMARK                         _______ _______ _______ _____ _____    ______ ____
ROOT
ATOM      1  C   UNL     1      22.141  -8.128  25.189  0.00  0.00    +0.000 A 
ATOM      2  C   UNL     1      21.643  -9.176  25.964  0.00  0.00    +0.000 A 
ATOM      3  O   UNL     1      22.270 -10.411  26.046  0.00  0.00    +0.000 OA
ATOM      4  N   UNL     1      20.513  -8.987  26.661  0.00  0.00    +0.000 N 
ATOM      5  C   UNL     1      19.758  -9.743  27.491  0.00  0.00    +0.000 A 
ATOM      6  C   UNL     1      18.672  -9.029  27.939  0.00  0.00    +0.000 A 
ATOM      7  C   UNL     1      18.779  -7.785  27.352  0.00  0.00    +0.000 A 
ATOM      8  C   UNL     1      18.081  -6.598  27.339  0.00  0.00    +0.000 A 
ATOM      9  C   UNL     1      18.482  -5.499  26.609  0.00  0.00    +0.000 A 
ATOM     10  C   UNL     1      19.639  -5.549  25.837  0.00  0.00    +0.000 A 
ATOM     11  C   UNL     1      20.348  -6.740  25.844  0.00  0.00    +0.000 A 
ATOM     12  C   UNL     1      21.508  -6.912  25.119  0.00  0.00    +0.000 A 
ATOM     13  O   UNL     1      21.978  -6.005  24.421  0.00  0.00    +0.000 OA
ATOM     14  C   UNL     1      19.921  -7.814  26.581  0.00  0.00    +0.000 A 
ATOM     15  C   UNL     1      17.631  -9.498  28.848  0.00  0.00    +0.000 C 
ATOM     16  C   UNL     1      18.285 -10.628  29.842  0.00  0.00    +0.000 C 
ATOM     17  C   UNL     1      19.717  -9.844  30.069  0.00  0.00    +0.000 C 
ATOM     18  C   UNL     1      18.758 -11.612  28.619  0.00  0.00    +0.000 C 
ATOM     19  C   UNL     1      19.935 -11.131  27.944  0.00  0.00    +0.000 C 
ENDROOT
BRANCH   1  21
ATOM     20  C   UNL     1      23.052  -8.888  23.037  0.00  0.00    +0.000 C 
ATOM     21  C   UNL     1      23.391  -8.396  24.442  0.00  0.00    +0.000 C 
ENDBRANCH   1  21
TORSDOF 1
ENDMDL
MODEL 6
REMARK VINA RESULT:      -6.8      1.962      5.607
REMARK  Name = 
REMARK  1 active torsions:
REMARK  status: ('A' for Active; 'I' for Inactive)
REMARK    1  A    between atoms: C_2  and  C_3
REMARK                            x       y       z     vdW  Elec       q    Type
REMARK                         _______ _______ _______ _____ _____    ______ ____
ROOT
ATOM      1  C   UNL     1      22.983  -8.091  24.439  0.00  0.00    +0.000 A 
ATOM      2  C   UNL     1      21.850  -7.352  24.778  0.00  0.00    +0.000 A 
ATOM      3  O   UNL     1      21.551  -6.130  24.192  0.00  0.00    +0.000 OA
ATOM      4  N   UNL     1      21.012  -7.837  25.705  0.00  0.00    +0.000 N 
ATOM      5  C   UNL     1      19.856  -7.417  26.270  0.00  0.00    +0.000 A 
ATOM      6  C   UNL     1      19.412  -8.331  27.195  0.00  0.00    +0.000 A 
ATOM      7  C   UNL     1      20.343  -9.350  27.185  0.00  0.00    +0.000 A 
ATOM      8  C   UNL     1      20.549 -10.551  27.826  0.00  0.00    +0.000 A 
ATOM      9  C   UNL     1      21.635 -11.363  27.569  0.00  0.00    +0.000 A 
ATOM     10  C   UNL     1      22.589 -10.986  26.628  0.00  0.00    +0.000 A 
ATOM     11  C   UNL     1      22.389  -9.778  25.979  0.00  0.00    +0.000 A 
ATOM     12  C   UNL     1      23.265  -9.298  25.028  0.00  0.00    +0.000 A 
ATOM     13  O   UNL     1      24.279  -9.927  24.704  0.00  0.00    +0.000 OA
ATOM     14  C   UNL     1      21.299  -8.995  26.259  0.00  0.00    +0.000 A 
ATOM     15  C   UNL     1      18.205  -8.236  28.010  0.00  0.00    +0.000 C 
ATOM     16  C   UNL     1      17.090  -7.363  27.180  0.00  0.00    +0.000 C 
ATOM     17  C   UNL     1      17.414  -8.031  25.709  0.00  0.00    +0.000 C 
ATOM     18  C   UNL     1      18.048  -6.039  27.042  0.00  0.00    +0.000 C 
ATOM     19  C   UNL     1      19.069  -6.195  26.040  0.00  0.00    +0.000 C 
ENDROOT
BRANCH   1  21
ATOM     20  C   UNL     1      24.849  -6.535  24.069  0.00  0.00    +0.000 C 
ATOM     21  C   UNL     1      23.871  -7.504  23.409  0.00  0.00    +0.000 C 
ENDBRANCH   1  21
TORSDOF 1
ENDMDL
MODEL 7
REMARK VINA RESULT:      -6.8     31.036     33.072
REMARK  Name = 
REMARK  1 active torsions:
REMARK  status: ('A' for Active; 'I' for Inactive)
REMARK    1  A    between atoms: C_2  and  C_3
REMARK                            x       y       z     vdW  Elec       q    Type
REMARK                         _______ _______ _______ _____ _____    ______ ____
ROOT
ATOM      1  C   UNL     1      11.673  24.902  23.076  0.00  0.00    +0.000 A 
ATOM      2  C   UNL     1      10.700  23.928  22.853  0.00  0.00    +0.000 A 
ATOM      3  O   UNL     1       9.440  23.982  23.432  0.00  0.00    +0.000 OA
ATOM      4  N   UNL     1      10.989  22.895  22.049  0.00  0.00    +0.000 N 
ATOM      5  C   UNL     1      10.322  21.800  21.614  0.00  0.00    +0.000 A 
ATOM      6  C   UNL     1      11.119  21.052  20.780  0.00  0.00    +0.000 A 
ATOM      7  C   UNL     1      12.319  21.729  20.708  0.00  0.00    +0.000 A 
ATOM      8  C   UNL     1      13.539  21.581  20.086  0.00  0.00    +0.000 A 
ATOM      9  C   UNL     1      14.572  22.484  20.236  0.00  0.00    +0.000 A 
ATOM     10  C   UNL     1      14.415  23.606  21.043  0.00  0.00    +0.000 A 
ATOM     11  C   UNL     1      13.190  23.762  21.673  0.00  0.00    +0.000 A 
ATOM     12  C   UNL     1      12.916  24.833  22.497  0.00  0.00    +0.000 A 
ATOM     13  O   UNL     1      13.754  25.715  22.717  0.00  0.00    +0.000 OA
ATOM     14  C   UNL     1      12.185  22.846  21.503  0.00  0.00    +0.000 A 
ATOM     15  C   UNL     1      10.758  19.804  20.113  0.00  0.00    +0.000 C 
ATOM     16  C   UNL     1       9.139  19.812  19.846  0.00  0.00    +0.000 C 
ATOM     17  C   UNL     1       9.048  21.398  19.408  0.00  0.00    +0.000 C 
ATOM     18  C   UNL     1       8.753  19.992  21.429  0.00  0.00    +0.000 C 
ATOM     19  C   UNL     1       8.955  21.338  21.899  0.00  0.00    +0.000 C 
ENDROOT
BRANCH   1  21
ATOM     20  C   UNL     1      11.713  25.686  25.405  0.00  0.00    +0.000 C 
ATOM     21  C   UNL     1      11.296  26.018  23.974  0.00  0.00    +0.000 C 
ENDBRANCH   1  21
TORSDOF 1
ENDMDL
MODEL 8
REMARK VINA RESULT:      -6.8     18.464     19.505
REMARK  Name = 
REMARK  1 active torsions:
REMARK  status: ('A' for Active; 'I' for Inactive)
REMARK    1  A    between atoms: C_2  and  C_3
REMARK                            x       y       z     vdW  Elec       q    Type
REMARK                         _______ _______ _______ _____ _____    ______ ____
ROOT
ATOM      1  C   UNL     1      34.137   3.015  37.701  0.00  0.00    +0.000 A 
ATOM      2  C   UNL     1      34.184   1.633  37.520  0.00  0.00    +0.000 A 
ATOM      3  O   UNL     1      34.361   0.746  38.572  0.00  0.00    +0.000 OA
ATOM      4  N   UNL     1      34.053   1.137  36.282  0.00  0.00    +0.000 N 
ATOM      5  C   UNL     1      34.047  -0.104  35.739  0.00  0.00    +0.000 A 
ATOM      6  C   UNL     1      33.873  -0.032  34.377  0.00  0.00    +0.000 A 
ATOM      7  C   UNL     1      33.768   1.313  34.087  0.00  0.00    +0.000 A 
ATOM      8  C   UNL     1      33.589   2.106  32.976  0.00  0.00    +0.000 A 
ATOM      9  C   UNL     1      33.528   3.484  33.040  0.00  0.00    +0.000 A 
ATOM     10  C   UNL     1      33.649   4.139  34.261  0.00  0.00    +0.000 A 
ATOM     11  C   UNL     1      33.830   3.347  35.385  0.00  0.00    +0.000 A 
ATOM     12  C   UNL     1      33.963   3.880  36.649  0.00  0.00    +0.000 A 
ATOM     13  O   UNL     1      33.926   5.101  36.846  0.00  0.00    +0.000 OA
ATOM     14  C   UNL     1      33.886   1.981  35.286  0.00  0.00    +0.000 A 
ATOM     15  C   UNL     1      33.811  -1.152  33.443  0.00  0.00    +0.000 C 
ATOM     16  C   UNL     1      33.208  -2.455  34.239  0.00  0.00    +0.000 C 
ATOM     17  C   UNL     1      32.066  -1.621  35.085  0.00  0.00    +0.000 C 
ATOM     18  C   UNL     1      34.382  -2.454  35.384  0.00  0.00    +0.000 C 
ATOM     19  C   UNL     1      34.193  -1.423  36.371  0.00  0.00    +0.000 C 
ENDROOT
BRANCH   1  21
ATOM     20  C   UNL     1      35.763   3.767  39.383  0.00  0.00    +0.000 C 
ATOM     21  C   UNL     1      34.288   3.505  39.091  0.00  0.00    +0.000 C 
ENDBRANCH   1  21
TORSDOF 1
ENDMDL
MODEL 9
REMARK VINA RESULT:      -6.6     31.057     33.015
REMARK  Name = 
REMARK  1 active torsions:
REMARK  status: ('A' for Active; 'I' for Inactive)
REMARK    1  A    between atoms: C_2  and  C_3
REMARK                            x       y       z     vdW  Elec       q    Type
REMARK                         _______ _______ _______ _____ _____    ______ ____
ROOT
ATOM      1  C   UNL     1      26.791  23.139  29.322  0.00  0.00    +0.000 A 
ATOM      2  C   UNL     1      27.279  22.942  28.031  0.00  0.00    +0.000 A 
ATOM      3  O   UNL     1      28.135  21.898  27.706  0.00  0.00    +0.000 OA
ATOM      4  N   UNL     1      26.911  23.790  27.062  0.00  0.00    +0.000 N 
ATOM      5  C   UNL     1      27.172  23.911  25.739  0.00  0.00    +0.000 A 
ATOM      6  C   UNL     1      26.512  24.997  25.215  0.00  0.00    +0.000 A 
ATOM      7  C   UNL     1      25.820  25.555  26.271  0.00  0.00    +0.000 A 
ATOM      8  C   UNL     1      24.976  26.621  26.489  0.00  0.00    +0.000 A 
ATOM      9  C   UNL     1      24.436  26.910  27.725  0.00  0.00    +0.000 A 
ATOM     10  C   UNL     1      24.731  26.112  28.827  0.00  0.00    +0.000 A 
ATOM     11  C   UNL     1      25.580  25.037  28.615  0.00  0.00    +0.000 A 
ATOM     12  C   UNL     1      25.946  24.176  29.629  0.00  0.00    +0.000 A 
ATOM     13  O   UNL     1      25.532  24.321  30.785  0.00  0.00    +0.000 OA
ATOM     14  C   UNL     1      26.100  24.779  27.374  0.00  0.00    +0.000 A 
ATOM     15  C   UNL     1      26.542  25.454  23.829  0.00  0.00    +0.000 C 
ATOM     16  C   UNL     1      26.791  24.152  22.862  0.00  0.00    +0.000 C 
ATOM     17  C   UNL     1      25.803  23.131  23.697  0.00  0.00    +0.000 C 
ATOM     18  C   UNL     1      28.205  23.734  23.579  0.00  0.00    +0.000 C 
ATOM     19  C   UNL     1      28.012  23.091  24.853  0.00  0.00    +0.000 C 
ENDROOT
BRANCH   1  21
ATOM     20  C   UNL     1      26.122  21.155  30.609  0.00  0.00    +0.000 C 
ATOM     21  C   UNL     1      27.234  22.170  30.351  0.00  0.00    +0.000 C 
ENDBRANCH   1  21
TORSDOF 1
ENDMDL
MODEL 10
REMARK VINA RESULT:      -6.4     18.641     19.790
REMARK  Name = 
REMARK  1 active torsions:
REMARK  status: ('A' for Active; 'I' for Inactive)
REMARK    1  A    between atoms: C_2  and  C_3
REMARK                            x       y       z     vdW  Elec       q    Type
REMARK                         _______ _______ _______ _____ _____    ______ ____
ROOT
ATOM      1  C   UNL     1      33.926   3.903  35.144  0.00  0.00    +0.000 A 
ATOM      2  C   UNL     1      33.783   2.631  34.590  0.00  0.00    +0.000 A 
ATOM      3  O   UNL     1      33.657   2.418  33.225  0.00  0.00    +0.000 OA
ATOM      4  N   UNL     1      33.767   1.567  35.406  0.00  0.00    +0.000 N 
ATOM      5  C   UNL     1      33.650   0.229  35.238  0.00  0.00    +0.000 A 
ATOM      6  C   UNL     1      33.697  -0.414  36.453  0.00  0.00    +0.000 A 
ATOM      7  C   UNL     1      33.851   0.583  37.394  0.00  0.00    +0.000 A 
ATOM      8  C   UNL     1      33.969   0.685  38.762  0.00  0.00    +0.000 A 
ATOM      9  C   UNL     1      34.114   1.893  39.415  0.00  0.00    +0.000 A 
ATOM     10  C   UNL     1      34.148   3.083  38.695  0.00  0.00    +0.000 A 
ATOM     11  C   UNL     1      34.030   2.988  37.317  0.00  0.00    +0.000 A 
ATOM     12  C   UNL     1      34.049   4.097  36.497  0.00  0.00    +0.000 A 
ATOM     13  O   UNL     1      34.174   5.240  36.953  0.00  0.00    +0.000 OA
ATOM     14  C   UNL     1      33.886   1.773  36.700  0.00  0.00    +0.000 A 
ATOM     15  C   UNL     1      33.606  -1.852  36.685  0.00  0.00    +0.000 C 
ATOM     16  C   UNL     1      34.206  -2.627  35.368  0.00  0.00    +0.000 C 
ATOM     17  C   UNL     1      35.470  -1.596  35.129  0.00  0.00    +0.000 C 
ATOM     18  C   UNL     1      33.149  -1.934  34.324  0.00  0.00    +0.000 C 
ATOM     19  C   UNL     1      33.490  -0.570  34.014  0.00  0.00    +0.000 C 
ENDROOT
BRANCH   1  21
ATOM     20  C   UNL     1      32.502   5.471  33.897  0.00  0.00    +0.000 C 
ATOM     21  C   UNL     1      33.936   5.039  34.193  0.00  0.00    +0.000 C 
ENDBRANCH   1  21
TORSDOF 1
ENDMDL
