MODEL 1
REMARK VINA RESULT:      -7.1      0.000      0.000
REMARK  Name = 
REMARK  3 active torsions:
REMARK  status: ('A' for Active; 'I' for Inactive)
REMARK    1  A    between atoms: C_6  and  C_7
REMARK    2  A    between atoms: C_7  and  N_8
REMARK    3  A    between atoms: N_11  and  C_12
REMARK                            x       y       z     vdW  Elec       q    Type
REMARK                         _______ _______ _______ _____ _____    ______ ____
ROOT
ATOM      1  N   UNL     1      15.306  11.638  33.890  0.00  0.00    +0.000 N 
ATOM      2  C   UNL     1      14.717  12.513  34.879  0.00  0.00    +0.000 C 
ATOM      3  C   UNL     1      15.063  11.817  36.177  0.00  0.00    +0.000 C 
ATOM      4  N   UNL     1      16.379  11.283  35.929  0.00  0.00    +0.000 N 
ATOM      5  C   UNL     1      16.420  11.007  34.538  0.00  0.00    +0.000 C 
ATOM      6  O   UNL     1      17.294  10.318  33.964  0.00  0.00    +0.000 OA
ENDROOT
BRANCH   4   7
ATOM      7  C   UNL     1      17.381  11.097  36.902  0.00  0.00    +0.000 A 
ATOM      8  C   UNL     1      18.194  12.155  37.246  0.00  0.00    +0.000 A 
ATOM      9  C   UNL     1      19.182  12.016  38.195  0.00  0.00    +0.000 A 
ATOM     10  C   UNL     1      19.372  10.813  38.815  0.00  0.00    +0.000 A 
ATOM     11  C   UNL     1      18.583   9.720  38.506  0.00  0.00    +0.000 A 
ATOM     12 CL   UNL     1      18.809   8.158  39.292  0.00  0.00    +0.000 Cl
ATOM     13  C   UNL     1      17.596   9.899  37.545  0.00  0.00    +0.000 A 
ENDBRANCH   4   7
BRANCH   1  14
ATOM     14  C   UNL     1      14.905  11.407  32.518  0.00  0.00    +0.000 C 
BRANCH  14  20
ATOM     15  C   UNL     1      13.568  14.236  31.872  0.00  0.00    +0.000 C 
ATOM     16  C   UNL     1      14.823  13.677  31.348  0.00  0.00    +0.000 A 
ATOM     17  N   UNL     1      15.617  14.342  30.463  0.00  0.00    +0.000 NA
ATOM     18  C   UNL     1      16.674  13.564  30.185  0.00  0.00    +0.000 A 
ATOM     19  N   UNL     1      16.537  12.424  30.892  0.00  0.00    +0.000 NA
ATOM     20  C   UNL     1      15.410  12.464  31.615  0.00  0.00    +0.000 A 
ENDBRANCH  14  20
ENDBRANCH   1  14
TORSDOF 3
ENDMDL
MODEL 2
REMARK VINA RESULT:      -7.0      3.209      7.110
REMARK  Name = 
REMARK  3 active torsions:
REMARK  status: ('A' for Active; 'I' for Inactive)
REMARK    1  A    between atoms: C_6  and  C_7
REMARK    2  A    between atoms: C_7  and  N_8
REMARK    3  A    between atoms: N_11  and  C_12
REMARK                            x       y       z     vdW  Elec       q    Type
REMARK                         _______ _______ _______ _____ _____    ______ ____
ROOT
ATOM      1  N   UNL     1      17.337  10.122  36.679  0.00  0.00    +0.000 N 
ATOM      2  C   UNL     1      16.299  11.068  37.022  0.00  0.00    +0.000 C 
ATOM      3  C   UNL     1      16.256  11.962  35.802  0.00  0.00    +0.000 C 
ATOM      4  N   UNL     1      16.498  11.050  34.711  0.00  0.00    +0.000 N 
ATOM      5  C   UNL     1      17.327  10.031  35.246  0.00  0.00    +0.000 C 
ATOM      6  O   UNL     1      17.955   9.182  34.573  0.00  0.00    +0.000 OA
ENDROOT
BRANCH   4   7
ATOM      7  C   UNL     1      15.990  11.188  33.404  0.00  0.00    +0.000 A 
ATOM      8  C   UNL     1      14.980  10.353  32.981  0.00  0.00    +0.000 A 
ATOM      9  C   UNL     1      14.453  10.457  31.712  0.00  0.00    +0.000 A 
ATOM     10  C   UNL     1      14.932  11.401  30.847  0.00  0.00    +0.000 A 
ATOM     11  C   UNL     1      15.945  12.263  31.224  0.00  0.00    +0.000 A 
ATOM     12 CL   UNL     1      16.580  13.488  30.125  0.00  0.00    +0.000 Cl
ATOM     13  C   UNL     1      16.449  12.128  32.510  0.00  0.00    +0.000 A 
ENDBRANCH   4   7
BRANCH   1  14
ATOM     14  C   UNL     1      18.229   9.387  37.550  0.00  0.00    +0.000 C 
BRANCH  14  20
ATOM     15  C   UNL     1      21.216   9.719  36.464  0.00  0.00    +0.000 C 
ATOM     16  C   UNL     1      20.582  10.383  37.612  0.00  0.00    +0.000 A 
ATOM     17  N   UNL     1      21.237  11.277  38.405  0.00  0.00    +0.000 NA
ATOM     18  C   UNL     1      20.385  11.693  39.354  0.00  0.00    +0.000 A 
ATOM     19  N   UNL     1      19.211  11.062  39.154  0.00  0.00    +0.000 NA
ATOM     20  C   UNL     1      19.301  10.251  38.091  0.00  0.00    +0.000 A 
ENDBRANCH  14  20
ENDBRANCH   1  14
TORSDOF 3
ENDMDL
MODEL 3
REMARK VINA RESULT:      -6.9      3.278      7.147
REMARK  Name = 
REMARK  3 active torsions:
REMARK  status: ('A' for Active; 'I' for Inactive)
REMARK    1  A    between atoms: C_6  and  C_7
REMARK    2  A    between atoms: C_7  and  N_8
REMARK    3  A    between atoms: N_11  and  C_12
REMARK                            x       y       z     vdW  Elec       q    Type
REMARK                         _______ _______ _______ _____ _____    ______ ____
ROOT
ATOM      1  N   UNL     1      17.659  10.633  36.452  0.00  0.00    +0.000 N 
ATOM      2  C   UNL     1      18.393   9.699  35.628  0.00  0.00    +0.000 C 
ATOM      3  C   UNL     1      17.368   9.310  34.584  0.00  0.00    +0.000 C 
ATOM      4  N   UNL     1      16.643  10.535  34.356  0.00  0.00    +0.000 N 
ATOM      5  C   UNL     1      16.682  11.235  35.589  0.00  0.00    +0.000 C 
ATOM      6  O   UNL     1      15.974  12.225  35.880  0.00  0.00    +0.000 OA
ENDROOT
BRANCH   4   7
ATOM      7  C   UNL     1      16.040  10.911  33.138  0.00  0.00    +0.000 A 
ATOM      8  C   UNL     1      14.923  10.234  32.702  0.00  0.00    +0.000 A 
ATOM      9  C   UNL     1      14.302  10.572  31.519  0.00  0.00    +0.000 A 
ATOM     10  C   UNL     1      14.792  11.595  30.756  0.00  0.00    +0.000 A 
ATOM     11  C   UNL     1      15.910  12.305  31.151  0.00  0.00    +0.000 A 
ATOM     12 CL   UNL     1      16.560  13.628  30.183  0.00  0.00    +0.000 Cl
ATOM     13  C   UNL     1      16.508  11.936  32.348  0.00  0.00    +0.000 A 
ENDBRANCH   4   7
BRANCH   1  14
ATOM     14  C   UNL     1      17.828  10.944  37.855  0.00  0.00    +0.000 C 
BRANCH  14  20
ATOM     15  C   UNL     1      20.728   9.931  38.736  0.00  0.00    +0.000 C 
ATOM     16  C   UNL     1      20.281  11.307  38.472  0.00  0.00    +0.000 A 
ATOM     17  N   UNL     1      21.105  12.386  38.581  0.00  0.00    +0.000 NA
ATOM     18  C   UNL     1      20.395  13.484  38.277  0.00  0.00    +0.000 A 
ATOM     19  N   UNL     1      19.141  13.089  37.983  0.00  0.00    +0.000 NA
ATOM     20  C   UNL     1      19.040  11.758  38.093  0.00  0.00    +0.000 A 
ENDBRANCH  14  20
ENDBRANCH   1  14
TORSDOF 3
ENDMDL
MODEL 4
REMARK VINA RESULT:      -6.8      3.188      6.986
REMARK  Name = 
REMARK  3 active torsions:
REMARK  status: ('A' for Active; 'I' for Inactive)
REMARK    1  A    between atoms: C_6  and  C_7
REMARK    2  A    between atoms: C_7  and  N_8
REMARK    3  A    between atoms: N_11  and  C_12
REMARK                            x       y       z     vdW  Elec       q    Type
REMARK                         _______ _______ _______ _____ _____    ______ ____
ROOT
ATOM      1  N   UNL     1      17.638  10.492  36.224  0.00  0.00    +0.000 N 
ATOM      2  C   UNL     1      17.956   9.953  34.920  0.00  0.00    +0.000 C 
ATOM      3  C   UNL     1      16.641  10.087  34.183  0.00  0.00    +0.000 C 
ATOM      4  N   UNL     1      16.106  11.331  34.679  0.00  0.00    +0.000 N 
ATOM      5  C   UNL     1      16.588  11.448  36.008  0.00  0.00    +0.000 C 
ATOM      6  O   UNL     1      16.164  12.259  36.862  0.00  0.00    +0.000 OA
ENDROOT
BRANCH   4   7
ATOM      7  C   UNL     1      15.279  12.211  33.953  0.00  0.00    +0.000 A 
ATOM      8  C   UNL     1      15.240  12.119  32.578  0.00  0.00    +0.000 A 
ATOM      9  C   UNL     1      14.442  12.958  31.831  0.00  0.00    +0.000 A 
ATOM     10  C   UNL     1      13.672  13.902  32.450  0.00  0.00    +0.000 A 
ATOM     11  C   UNL     1      13.676  14.034  33.826  0.00  0.00    +0.000 A 
ATOM     12 CL   UNL     1      12.691  15.245  34.646  0.00  0.00    +0.000 Cl
ATOM     13  C   UNL     1      14.491  13.170  34.545  0.00  0.00    +0.000 A 
ENDBRANCH   4   7
BRANCH   1  14
ATOM     14  C   UNL     1      18.221  10.179  37.510  0.00  0.00    +0.000 C 
BRANCH  14  20
ATOM     15  C   UNL     1      21.287   9.685  36.758  0.00  0.00    +0.000 C 
ATOM     16  C   UNL     1      20.695  10.820  37.481  0.00  0.00    +0.000 A 
ATOM     17  N   UNL     1      21.432  11.866  37.949  0.00  0.00    +0.000 NA
ATOM     18  C   UNL     1      20.598  12.724  38.556  0.00  0.00    +0.000 A 
ATOM     19  N   UNL     1      19.354  12.215  38.467  0.00  0.00    +0.000 NA
ATOM     20  C   UNL     1      19.381  11.047  37.812  0.00  0.00    +0.000 A 
ENDBRANCH  14  20
ENDBRANCH   1  14
TORSDOF 3
ENDMDL
MODEL 5
REMARK VINA RESULT:      -6.1     21.190     22.347
REMARK  Name = 
REMARK  3 active torsions:
REMARK  status: ('A' for Active; 'I' for Inactive)
REMARK    1  A    between atoms: C_6  and  C_7
REMARK    2  A    between atoms: C_7  and  N_8
REMARK    3  A    between atoms: N_11  and  C_12
REMARK                            x       y       z     vdW  Elec       q    Type
REMARK                         _______ _______ _______ _____ _____    ______ ____
ROOT
ATOM      1  N   UNL     1      15.315  -9.986  26.513  0.00  0.00    +0.000 N 
ATOM      2  C   UNL     1      16.156 -10.333  27.637  0.00  0.00    +0.000 C 
ATOM      3  C   UNL     1      17.517  -9.849  27.186  0.00  0.00    +0.000 C 
ATOM      4  N   UNL     1      17.217  -8.640  26.460  0.00  0.00    +0.000 N 
ATOM      5  C   UNL     1      15.929  -8.843  25.901  0.00  0.00    +0.000 C 
ATOM      6  O   UNL     1      15.408  -8.134  25.009  0.00  0.00    +0.000 OA
ENDROOT
BRANCH   4   7
ATOM      7  C   UNL     1      18.063  -7.517  26.359  0.00  0.00    +0.000 A 
ATOM      8  C   UNL     1      17.648  -6.311  26.880  0.00  0.00    +0.000 A 
ATOM      9  C   UNL     1      18.446  -5.190  26.806  0.00  0.00    +0.000 A 
ATOM     10  C   UNL     1      19.672  -5.262  26.207  0.00  0.00    +0.000 A 
ATOM     11  C   UNL     1      20.134  -6.448  25.669  0.00  0.00    +0.000 A 
ATOM     12 CL   UNL     1      21.713  -6.564  24.890  0.00  0.00    +0.000 Cl
ATOM     13  C   UNL     1      19.303  -7.556  25.764  0.00  0.00    +0.000 A 
ENDBRANCH   4   7
BRANCH   1  14
ATOM     14  C   UNL     1      14.095 -10.617  26.055  0.00  0.00    +0.000 C 
BRANCH  14  20
ATOM     15  C   UNL     1      11.968  -8.397  25.185  0.00  0.00    +0.000 C 
ATOM     16  C   UNL     1      12.009  -9.187  26.424  0.00  0.00    +0.000 A 
ATOM     17  N   UNL     1      11.086  -9.056  27.417  0.00  0.00    +0.000 NA
ATOM     18  C   UNL     1      11.407  -9.911  28.400  0.00  0.00    +0.000 A 
ATOM     19  N   UNL     1      12.522 -10.567  28.022  0.00  0.00    +0.000 NA
ATOM     20  C   UNL     1      12.916 -10.144  26.813  0.00  0.00    +0.000 A 
ENDBRANCH  14  20
ENDBRANCH   1  14
TORSDOF 3
ENDMDL
MODEL 6
REMARK VINA RESULT:      -6.1      1.963      2.822
REMARK  Name = 
REMARK  3 active torsions:
REMARK  status: ('A' for Active; 'I' for Inactive)
REMARK    1  A    between atoms: C_6  and  C_7
REMARK    2  A    between atoms: C_7  and  N_8
REMARK    3  A    between atoms: N_11  and  C_12
REMARK                            x       y       z     vdW  Elec       q    Type
REMARK                         _______ _______ _______ _____ _____    ______ ____
ROOT
ATOM      1  N   UNL     1      15.694  12.019  35.677  0.00  0.00    +0.000 N 
ATOM      2  C   UNL     1      17.135  11.958  35.573  0.00  0.00    +0.000 C 
ATOM      3  C   UNL     1      17.563  11.891  37.023  0.00  0.00    +0.000 C 
ATOM      4  N   UNL     1      16.540  11.081  37.636  0.00  0.00    +0.000 N 
ATOM      5  C   UNL     1      15.359  11.336  36.894  0.00  0.00    +0.000 C 
ATOM      6  O   UNL     1      14.200  11.016  37.246  0.00  0.00    +0.000 OA
ENDROOT
BRANCH   4   7
ATOM      7  C   UNL     1      16.728  10.227  38.742  0.00  0.00    +0.000 A 
ATOM      8  C   UNL     1      15.776  10.193  39.737  0.00  0.00    +0.000 A 
ATOM      9  C   UNL     1      15.920   9.370  40.833  0.00  0.00    +0.000 A 
ATOM     10  C   UNL     1      17.021   8.570  40.948  0.00  0.00    +0.000 A 
ATOM     11  C   UNL     1      18.005   8.568  39.977  0.00  0.00    +0.000 A 
ATOM     12 CL   UNL     1      19.436   7.545  40.105  0.00  0.00    +0.000 Cl
ATOM     13  C   UNL     1      17.824   9.409  38.887  0.00  0.00    +0.000 A 
ENDBRANCH   4   7
BRANCH   1  14
ATOM     14  C   UNL     1      14.737  12.623  34.774  0.00  0.00    +0.000 C 
BRANCH  14  20
ATOM     15  C   UNL     1      13.920  13.966  31.992  0.00  0.00    +0.000 C 
ATOM     16  C   UNL     1      14.451  12.617  32.234  0.00  0.00    +0.000 A 
ATOM     17  N   UNL     1      14.670  11.717  31.235  0.00  0.00    +0.000 NA
ATOM     18  C   UNL     1      15.151  10.592  31.786  0.00  0.00    +0.000 A 
ATOM     19  N   UNL     1      15.230  10.791  33.117  0.00  0.00    +0.000 NA
ATOM     20  C   UNL     1      14.806  12.025  33.423  0.00  0.00    +0.000 A 
ENDBRANCH  14  20
ENDBRANCH   1  14
TORSDOF 3
ENDMDL
MODEL 7
REMARK VINA RESULT:      -5.9     21.201     22.562
REMARK  Name = 
REMARK  3 active torsions:
REMARK  status: ('A' for Active; 'I' for Inactive)
REMARK    1  A    between atoms: C_6  and  C_7
REMARK    2  A    between atoms: C_7  and  N_8
REMARK    3  A    between atoms: N_11  and  C_12
REMARK                            x       y       z     vdW  Elec       q    Type
REMARK                         _______ _______ _______ _____ _____    ______ ____
ROOT
ATOM      1  N   UNL     1      17.369 -10.689  28.713  0.00  0.00    +0.000 N 
ATOM      2  C   UNL     1      16.799 -10.801  27.389  0.00  0.00    +0.000 C 
ATOM      3  C   UNL     1      16.628  -9.353  26.984  0.00  0.00    +0.000 C 
ATOM      4  N   UNL     1      17.784  -8.708  27.556  0.00  0.00    +0.000 N 
ATOM      5  C   UNL     1      18.092  -9.449  28.725  0.00  0.00    +0.000 C 
ATOM      6  O   UNL     1      18.874  -9.078  29.630  0.00  0.00    +0.000 OA
ENDROOT
BRANCH   4   7
ATOM      7  C   UNL     1      18.435  -7.578  27.021  0.00  0.00    +0.000 A 
ATOM      8  C   UNL     1      17.897  -6.327  27.231  0.00  0.00    +0.000 A 
ATOM      9  C   UNL     1      18.503  -5.197  26.729  0.00  0.00    +0.000 A 
ATOM     10  C   UNL     1      19.659  -5.303  26.009  0.00  0.00    +0.000 A 
ATOM     11  C   UNL     1      20.240  -6.534  25.771  0.00  0.00    +0.000 A 
ATOM     12 CL   UNL     1      21.731  -6.696  24.843  0.00  0.00    +0.000 Cl
ATOM     13  C   UNL     1      19.600  -7.651  26.293  0.00  0.00    +0.000 A 
ENDBRANCH   4   7
BRANCH   1  14
ATOM     14  C   UNL     1      17.271 -11.602  29.831  0.00  0.00    +0.000 C 
BRANCH  14  20
ATOM     15  C   UNL     1      14.094 -11.947  29.808  0.00  0.00    +0.000 C 
ATOM     16  C   UNL     1      14.934 -11.285  30.816  0.00  0.00    +0.000 A 
ATOM     17  N   UNL     1      14.424 -10.698  31.935  0.00  0.00    +0.000 NA
ATOM     18  C   UNL     1      15.446 -10.189  32.641  0.00  0.00    +0.000 A 
ATOM     19  N   UNL     1      16.581 -10.456  31.966  0.00  0.00    +0.000 NA
ATOM     20  C   UNL     1      16.299 -11.128  30.841  0.00  0.00    +0.000 A 
ENDBRANCH  14  20
ENDBRANCH   1  14
TORSDOF 3
ENDMDL
MODEL 8
REMARK VINA RESULT:      -5.8      6.041      8.382
REMARK  Name = 
REMARK  3 active torsions:
REMARK  status: ('A' for Active; 'I' for Inactive)
REMARK    1  A    between atoms: C_6  and  C_7
REMARK    2  A    between atoms: C_7  and  N_8
REMARK    3  A    between atoms: N_11  and  C_12
REMARK                            x       y       z     vdW  Elec       q    Type
REMARK                         _______ _______ _______ _____ _____    ______ ____
ROOT
ATOM      1  N   UNL     1      18.857   9.440  38.950  0.00  0.00    +0.000 N 
ATOM      2  C   UNL     1      18.568   9.262  37.545  0.00  0.00    +0.000 C 
ATOM      3  C   UNL     1      19.534  10.226  36.890  0.00  0.00    +0.000 C 
ATOM      4  N   UNL     1      20.710  10.134  37.719  0.00  0.00    +0.000 N 
ATOM      5  C   UNL     1      20.234   9.837  39.021  0.00  0.00    +0.000 C 
ATOM      6  O   UNL     1      20.910   9.911  40.072  0.00  0.00    +0.000 OA
ENDROOT
BRANCH   4   7
ATOM      7  C   UNL     1      22.036  10.310  37.276  0.00  0.00    +0.000 A 
ATOM      8  C   UNL     1      22.623   9.336  36.497  0.00  0.00    +0.000 A 
ATOM      9  C   UNL     1      23.915   9.471  36.041  0.00  0.00    +0.000 A 
ATOM     10  C   UNL     1      24.641  10.585  36.358  0.00  0.00    +0.000 A 
ATOM     11  C   UNL     1      24.098  11.591  37.135  0.00  0.00    +0.000 A 
ATOM     12 CL   UNL     1      25.015  13.037  37.558  0.00  0.00    +0.000 Cl
ATOM     13  C   UNL     1      22.793  11.420  37.576  0.00  0.00    +0.000 A 
ENDBRANCH   4   7
BRANCH   1  14
ATOM     14  C   UNL     1      17.984   9.265  40.092  0.00  0.00    +0.000 C 
BRANCH  14  20
ATOM     15  C   UNL     1      15.552   7.831  41.588  0.00  0.00    +0.000 C 
ATOM     16  C   UNL     1      16.816   7.240  41.124  0.00  0.00    +0.000 A 
ATOM     17  N   UNL     1      17.122   5.923  41.290  0.00  0.00    +0.000 NA
ATOM     18  C   UNL     1      18.337   5.708  40.762  0.00  0.00    +0.000 A 
ATOM     19  N   UNL     1      18.782   6.882  40.274  0.00  0.00    +0.000 NA
ATOM     20  C   UNL     1      17.870   7.842  40.481  0.00  0.00    +0.000 A 
ENDBRANCH  14  20
ENDBRANCH   1  14
TORSDOF 3
ENDMDL
MODEL 9
REMARK VINA RESULT:      -5.6     16.812     19.132
REMARK  Name = 
REMARK  3 active torsions:
REMARK  status: ('A' for Active; 'I' for Inactive)
REMARK    1  A    between atoms: C_6  and  C_7
REMARK    2  A    between atoms: C_7  and  N_8
REMARK    3  A    between atoms: N_11  and  C_12
REMARK                            x       y       z     vdW  Elec       q    Type
REMARK                         _______ _______ _______ _____ _____    ______ ____
ROOT
ATOM      1  N   UNL     1      27.939  23.288  24.224  0.00  0.00    +0.000 N 
ATOM      2  C   UNL     1      29.256  23.164  24.809  0.00  0.00    +0.000 C 
ATOM      3  C   UNL     1      29.091  23.875  26.135  0.00  0.00    +0.000 C 
ATOM      4  N   UNL     1      27.750  23.527  26.535  0.00  0.00    +0.000 N 
ATOM      5  C   UNL     1      27.025  23.362  25.328  0.00  0.00    +0.000 C 
ATOM      6  O   UNL     1      25.778  23.292  25.238  0.00  0.00    +0.000 OA
ENDROOT
BRANCH   4   7
ATOM      7  C   UNL     1      27.305  23.392  27.866  0.00  0.00    +0.000 A 
ATOM      8  C   UNL     1      27.653  22.268  28.582  0.00  0.00    +0.000 A 
ATOM      9  C   UNL     1      27.242  22.099  29.886  0.00  0.00    +0.000 A 
ATOM     10  C   UNL     1      26.475  23.054  30.492  0.00  0.00    +0.000 A 
ATOM     11  C   UNL     1      26.099  24.199  29.816  0.00  0.00    +0.000 A 
ATOM     12 CL   UNL     1      25.109  25.445  30.576  0.00  0.00    +0.000 Cl
ATOM     13  C   UNL     1      26.533  24.335  28.504  0.00  0.00    +0.000 A 
ENDBRANCH   4   7
BRANCH   1  14
ATOM     14  C   UNL     1      27.559  23.329  22.828  0.00  0.00    +0.000 C 
BRANCH  14  20
ATOM     15  C   UNL     1      26.983  26.459  23.113  0.00  0.00    +0.000 C 
ATOM     16  C   UNL     1      27.961  25.785  22.247  0.00  0.00    +0.000 A 
ATOM     17  N   UNL     1      28.793  26.459  21.405  0.00  0.00    +0.000 NA
ATOM     18  C   UNL     1      29.553  25.559  20.762  0.00  0.00    +0.000 A 
ATOM     19  N   UNL     1      29.196  24.336  21.200  0.00  0.00    +0.000 NA
ATOM     20  C   UNL     1      28.221  24.442  22.113  0.00  0.00    +0.000 A 
ENDBRANCH  14  20
ENDBRANCH   1  14
TORSDOF 3
ENDMDL
MODEL 10
REMARK VINA RESULT:      -5.6     20.534     23.742
REMARK  Name = 
REMARK  3 active torsions:
REMARK  status: ('A' for Active; 'I' for Inactive)
REMARK    1  A    between atoms: C_6  and  C_7
REMARK    2  A    between atoms: C_7  and  N_8
REMARK    3  A    between atoms: N_11  and  C_12
REMARK                            x       y       z     vdW  Elec       q    Type
REMARK                         _______ _______ _______ _____ _____    ______ ____
ROOT
ATOM      1  N   UNL     1      28.218  24.689  22.482  0.00  0.00    +0.000 N 
ATOM      2  C   UNL     1      27.451  25.824  22.946  0.00  0.00    +0.000 C 
ATOM      3  C   UNL     1      28.383  26.983  22.668  0.00  0.00    +0.000 C 
ATOM      4  N   UNL     1      29.021  26.608  21.430  0.00  0.00    +0.000 N 
ATOM      5  C   UNL     1      29.072  25.191  21.443  0.00  0.00    +0.000 C 
ATOM      6  O   UNL     1      29.757  24.486  20.668  0.00  0.00    +0.000 OA
ENDROOT
BRANCH   4   7
ATOM      7  C   UNL     1      29.479  27.506  20.444  0.00  0.00    +0.000 A 
ATOM      8  C   UNL     1      29.460  28.859  20.703  0.00  0.00    +0.000 A 
ATOM      9  C   UNL     1      29.902  29.769  19.768  0.00  0.00    +0.000 A 
ATOM     10  C   UNL     1      30.369  29.337  18.559  0.00  0.00    +0.000 A 
ATOM     11  C   UNL     1      30.409  27.990  18.251  0.00  0.00    +0.000 A 
ATOM     12 CL   UNL     1      31.007  27.409  16.697  0.00  0.00    +0.000 Cl
ATOM     13  C   UNL     1      29.956  27.103  19.218  0.00  0.00    +0.000 A 
ENDBRANCH   4   7
BRANCH   1  14
ATOM     14  C   UNL     1      28.175  23.313  22.927  0.00  0.00    +0.000 C 
BRANCH  14  20
ATOM     15  C   UNL     1      27.562  22.582  25.977  0.00  0.00    +0.000 C 
ATOM     16  C   UNL     1      28.868  22.745  25.321  0.00  0.00    +0.000 A 
ATOM     17  N   UNL     1      30.051  22.596  25.979  0.00  0.00    +0.000 NA
ATOM     18  C   UNL     1      31.045  22.811  25.103  0.00  0.00    +0.000 A 
ATOM     19  N   UNL     1      30.484  23.092  23.911  0.00  0.00    +0.000 NA
ATOM     20  C   UNL     1      29.148  23.059  24.013  0.00  0.00    +0.000 A 
ENDBRANCH  14  20
ENDBRANCH   1  14
TORSDOF 3
ENDMDL
