MODEL 1
REMARK VINA RESULT:      -7.5      0.000      0.000
REMARK  Name = 
REMARK  9 active torsions:
REMARK  status: ('A' for Active; 'I' for Inactive)
REMARK    1  A    between atoms: C_2  and  C_5
REMARK    2  A    between atoms: C_8  and  O_9
REMARK    3  A    between atoms: O_9  and  C_10
REMARK    4  A    between atoms: C_10  and  C_11
REMARK    5  A    between atoms: C_11  and  O_12
REMARK    6  A    between atoms: O_12  and  C_13
REMARK    7  A    between atoms: C_17  and  C_18
REMARK    8  A    between atoms: N_19  and  N_20
REMARK    9  A    between atoms: C_21  and  C_23
REMARK                            x       y       z     vdW  Elec       q    Type
REMARK                         _______ _______ _______ _____ _____    ______ ____
ROOT
ATOM      1  C   UNL     1      38.979   0.439  13.121  0.00  0.00    +0.000 A 
ATOM      2  C   UNL     1      37.843   0.164  12.405  0.00  0.00    +0.000 A 
ATOM      3  C   UNL     1      36.642   0.733  12.759  0.00  0.00    +0.000 A 
ATOM      4  C   UNL     1      36.629   1.561  13.824  0.00  0.00    +0.000 A 
ATOM      5  C   UNL     1      37.756   1.891  14.607  0.00  0.00    +0.000 A 
ATOM      6  C   UNL     1      38.944   1.291  14.210  0.00  0.00    +0.000 A 
ENDROOT
BRANCH   5   7
ATOM      7  C   UNL     1      37.597   2.749  15.669  0.00  0.00    +0.000 C 
ATOM      8  N   UNL     1      37.446   3.477  16.563  0.00  0.00    +0.000 NA
BRANCH   8   9
ATOM      9  N   UNL     1      38.386   4.031  17.482  0.00  0.00    +0.000 NA
ATOM     10  C   UNL     1      38.796   5.408  17.340  0.00  0.00    +0.000 C 
ATOM     11  O   UNL     1      38.271   6.026  16.376  0.00  0.00    +0.000 OA
BRANCH  10  12
ATOM     12  C   UNL     1      39.740   6.060  18.232  0.00  0.00    +0.000 A 
ATOM     13  C   UNL     1      41.053   6.258  17.890  0.00  0.00    +0.000 A 
ATOM     14  C   UNL     1      41.909   6.894  18.803  0.00  0.00    +0.000 A 
ATOM     15  N   UNL     1      41.500   7.321  20.001  0.00  0.00    +0.000 NA
ATOM     16  C   UNL     1      40.225   7.141  20.361  0.00  0.00    +0.000 A 
ATOM     17  C   UNL     1      39.356   6.522  19.498  0.00  0.00    +0.000 A 
ENDBRANCH  10  12
ENDBRANCH   8   9
ENDBRANCH   5   7
BRANCH   1  18
ATOM     18  O   UNL     1      40.172  -0.133  12.756  0.00  0.00    +0.000 OA
BRANCH  18  19
ATOM     19  C   UNL     1      40.367  -1.514  12.627  0.00  0.00    +0.000 C 
BRANCH  19  20
ATOM     20  C   UNL     1      40.336  -2.131  14.016  0.00  0.00    +0.000 C 
BRANCH  20  21
ATOM     21  O   UNL     1      39.172  -2.947  14.197  0.00  0.00    +0.000 OA
BRANCH  21  25
ATOM     22  C   UNL     1      36.230  -1.269  16.655  0.00  0.00    +0.000 A 
ATOM     23  C   UNL     1      35.863  -1.918  15.475  0.00  0.00    +0.000 A 
ATOM     24  C   UNL     1      36.846  -2.466  14.674  0.00  0.00    +0.000 A 
ATOM     25  C   UNL     1      38.171  -2.407  14.981  0.00  0.00    +0.000 A 
ATOM     26  C   UNL     1      38.526  -1.756  16.163  0.00  0.00    +0.000 A 
ATOM     27  C   UNL     1      37.554  -1.199  16.977  0.00  0.00    +0.000 A 
BRANCH  22  29
ATOM     28  C   UNL     1      34.865   0.695  16.921  0.00  0.00    +0.000 C 
ATOM     29  C   UNL     1      35.143  -0.683  17.510  0.00  0.00    +0.000 C 
ATOM     30  C   UNL     1      35.613  -0.518  18.926  0.00  0.00    +0.000 C 
ATOM     31  C   UNL     1      33.926  -1.581  17.409  0.00  0.00    +0.000 C 
ENDBRANCH  22  29
ENDBRANCH  21  25
ENDBRANCH  20  21
ENDBRANCH  19  20
ENDBRANCH  18  19
ENDBRANCH   1  18
TORSDOF 9
ENDMDL
MODEL 2
REMARK VINA RESULT:      -6.6      1.587      2.215
REMARK  Name = 
REMARK  9 active torsions:
REMARK  status: ('A' for Active; 'I' for Inactive)
REMARK    1  A    between atoms: C_2  and  C_5
REMARK    2  A    between atoms: C_8  and  O_9
REMARK    3  A    between atoms: O_9  and  C_10
REMARK    4  A    between atoms: C_10  and  C_11
REMARK    5  A    between atoms: C_11  and  O_12
REMARK    6  A    between atoms: O_12  and  C_13
REMARK    7  A    between atoms: C_17  and  C_18
REMARK    8  A    between atoms: N_19  and  N_20
REMARK    9  A    between atoms: C_21  and  C_23
REMARK                            x       y       z     vdW  Elec       q    Type
REMARK                         _______ _______ _______ _____ _____    ______ ____
ROOT
ATOM      1  C   UNL     1      40.831   0.298  13.346  0.00  0.00    +0.000 A 
ATOM      2  C   UNL     1      41.292   0.987  12.255  0.00  0.00    +0.000 A 
ATOM      3  C   UNL     1      40.991   2.320  12.095  0.00  0.00    +0.000 A 
ATOM      4  C   UNL     1      40.235   2.911  13.043  0.00  0.00    +0.000 A 
ATOM      5  C   UNL     1      39.726   2.266  14.191  0.00  0.00    +0.000 A 
ATOM      6  C   UNL     1      40.056   0.922  14.306  0.00  0.00    +0.000 A 
ENDROOT
BRANCH   5   7
ATOM      7  C   UNL     1      38.965   2.992  15.076  0.00  0.00    +0.000 C 
ATOM      8  N   UNL     1      38.309   3.593  15.823  0.00  0.00    +0.000 NA
BRANCH   8   9
ATOM      9  N   UNL     1      38.516   4.870  16.426  0.00  0.00    +0.000 NA
ATOM     10  C   UNL     1      38.617   4.975  17.862  0.00  0.00    +0.000 C 
ATOM     11  O   UNL     1      38.504   3.886  18.487  0.00  0.00    +0.000 OA
BRANCH  10  12
ATOM     12  C   UNL     1      38.836   6.229  18.562  0.00  0.00    +0.000 A 
ATOM     13  C   UNL     1      39.675   6.328  19.642  0.00  0.00    +0.000 A 
ATOM     14  C   UNL     1      39.837   7.572  20.271  0.00  0.00    +0.000 A 
ATOM     15  N   UNL     1      39.206   8.677  19.861  0.00  0.00    +0.000 NA
ATOM     16  C   UNL     1      38.383   8.610  18.811  0.00  0.00    +0.000 A 
ATOM     17  C   UNL     1      38.195   7.411  18.169  0.00  0.00    +0.000 A 
ENDBRANCH  10  12
ENDBRANCH   8   9
ENDBRANCH   5   7
BRANCH   1  18
ATOM     18  O   UNL     1      41.141  -1.031  13.494  0.00  0.00    +0.000 OA
BRANCH  18  19
ATOM     19  C   UNL     1      40.758  -2.027  12.587  0.00  0.00    +0.000 C 
BRANCH  19  20
ATOM     20  C   UNL     1      39.358  -2.491  12.952  0.00  0.00    +0.000 C 
BRANCH  20  21
ATOM     21  O   UNL     1      39.296  -2.942  14.311  0.00  0.00    +0.000 OA
BRANCH  21  25
ATOM     22  C   UNL     1      36.222  -1.246  16.590  0.00  0.00    +0.000 A 
ATOM     23  C   UNL     1      37.529  -1.254  17.081  0.00  0.00    +0.000 A 
ATOM     24  C   UNL     1      38.532  -1.818  16.317  0.00  0.00    +0.000 A 
ATOM     25  C   UNL     1      38.310  -2.372  15.093  0.00  0.00    +0.000 A 
ATOM     26  C   UNL     1      37.000  -2.358  14.613  0.00  0.00    +0.000 A 
ATOM     27  C   UNL     1      35.981  -1.798  15.366  0.00  0.00    +0.000 A 
BRANCH  22  29
ATOM     28  C   UNL     1      35.713  -0.607  18.853  0.00  0.00    +0.000 C 
ATOM     29  C   UNL     1      35.149  -0.625  17.437  0.00  0.00    +0.000 C 
ATOM     30  C   UNL     1      33.907  -1.468  17.422  0.00  0.00    +0.000 C 
ATOM     31  C   UNL     1      34.897   0.779  16.926  0.00  0.00    +0.000 C 
ENDBRANCH  22  29
ENDBRANCH  21  25
ENDBRANCH  20  21
ENDBRANCH  19  20
ENDBRANCH  18  19
ENDBRANCH   1  18
TORSDOF 9
ENDMDL
MODEL 3
REMARK VINA RESULT:      -6.6      2.880      9.213
REMARK  Name = 
REMARK  9 active torsions:
REMARK  status: ('A' for Active; 'I' for Inactive)
REMARK    1  A    between atoms: C_2  and  C_5
REMARK    2  A    between atoms: C_8  and  O_9
REMARK    3  A    between atoms: O_9  and  C_10
REMARK    4  A    between atoms: C_10  and  C_11
REMARK    5  A    between atoms: C_11  and  O_12
REMARK    6  A    between atoms: O_12  and  C_13
REMARK    7  A    between atoms: C_17  and  C_18
REMARK    8  A    between atoms: N_19  and  N_20
REMARK    9  A    between atoms: C_21  and  C_23
REMARK                            x       y       z     vdW  Elec       q    Type
REMARK                         _______ _______ _______ _____ _____    ______ ____
ROOT
ATOM      1  C   UNL     1      40.383   6.660  19.940  0.00  0.00    +0.000 A 
ATOM      2  C   UNL     1      39.713   7.854  20.010  0.00  0.00    +0.000 A 
ATOM      3  C   UNL     1      38.572   8.057  19.270  0.00  0.00    +0.000 A 
ATOM      4  C   UNL     1      38.145   7.046  18.484  0.00  0.00    +0.000 A 
ATOM      5  C   UNL     1      38.781   5.792  18.361  0.00  0.00    +0.000 A 
ATOM      6  C   UNL     1      39.929   5.638  19.127  0.00  0.00    +0.000 A 
ENDROOT
BRANCH   5   7
ATOM      7  C   UNL     1      38.236   4.853  17.519  0.00  0.00    +0.000 C 
ATOM      8  N   UNL     1      37.776   4.070  16.794  0.00  0.00    +0.000 NA
BRANCH   8   9
ATOM      9  N   UNL     1      37.281   2.754  17.036  0.00  0.00    +0.000 NA
ATOM     10  C   UNL     1      36.489   2.091  16.027  0.00  0.00    +0.000 C 
ATOM     11  O   UNL     1      36.291   2.760  14.978  0.00  0.00    +0.000 OA
BRANCH  10  12
ATOM     12  C   UNL     1      35.951   0.750  16.182  0.00  0.00    +0.000 A 
ATOM     13  C   UNL     1      34.958   0.460  17.082  0.00  0.00    +0.000 A 
ATOM     14  C   UNL     1      34.487  -0.859  17.178  0.00  0.00    +0.000 A 
ATOM     15  N   UNL     1      34.965  -1.855  16.425  0.00  0.00    +0.000 NA
ATOM     16  C   UNL     1      35.932  -1.600  15.539  0.00  0.00    +0.000 A 
ATOM     17  C   UNL     1      36.422  -0.323  15.415  0.00  0.00    +0.000 A 
ENDBRANCH  10  12
ENDBRANCH   8   9
ENDBRANCH   5   7
BRANCH   1  18
ATOM     18  O   UNL     1      41.520   6.470  20.685  0.00  0.00    +0.000 OA
BRANCH  18  19
ATOM     19  C   UNL     1      42.610   7.348  20.682  0.00  0.00    +0.000 C 
BRANCH  19  20
ATOM     20  C   UNL     1      43.493   7.008  19.493  0.00  0.00    +0.000 C 
BRANCH  20  21
ATOM     21  O   UNL     1      43.424   8.025  18.485  0.00  0.00    +0.000 OA
BRANCH  21  25
ATOM     22  C   UNL     1      40.657   7.285  15.434  0.00  0.00    +0.000 A 
ATOM     23  C   UNL     1      40.679   8.529  16.066  0.00  0.00    +0.000 A 
ATOM     24  C   UNL     1      41.598   8.758  17.072  0.00  0.00    +0.000 A 
ATOM     25  C   UNL     1      42.497   7.820  17.483  0.00  0.00    +0.000 A 
ATOM     26  C   UNL     1      42.465   6.580  16.843  0.00  0.00    +0.000 A 
ATOM     27  C   UNL     1      41.550   6.333  15.834  0.00  0.00    +0.000 A 
BRANCH  22  29
ATOM     28  C   UNL     1      38.328   7.570  14.901  0.00  0.00    +0.000 C 
ATOM     29  C   UNL     1      39.651   7.061  14.342  0.00  0.00    +0.000 C 
ATOM     30  C   UNL     1      39.516   5.597  14.037  0.00  0.00    +0.000 C 
ATOM     31  C   UNL     1      40.082   7.863  13.130  0.00  0.00    +0.000 C 
ENDBRANCH  22  29
ENDBRANCH  21  25
ENDBRANCH  20  21
ENDBRANCH  19  20
ENDBRANCH  18  19
ENDBRANCH   1  18
TORSDOF 9
ENDMDL
MODEL 4
REMARK VINA RESULT:      -6.5      2.941      9.672
REMARK  Name = 
REMARK  9 active torsions:
REMARK  status: ('A' for Active; 'I' for Inactive)
REMARK    1  A    between atoms: C_2  and  C_5
REMARK    2  A    between atoms: C_8  and  O_9
REMARK    3  A    between atoms: O_9  and  C_10
REMARK    4  A    between atoms: C_10  and  C_11
REMARK    5  A    between atoms: C_11  and  O_12
REMARK    6  A    between atoms: O_12  and  C_13
REMARK    7  A    between atoms: C_17  and  C_18
REMARK    8  A    between atoms: N_19  and  N_20
REMARK    9  A    between atoms: C_21  and  C_23
REMARK                            x       y       z     vdW  Elec       q    Type
REMARK                         _______ _______ _______ _____ _____    ______ ____
ROOT
ATOM      1  C   UNL     1      42.028   6.699  18.278  0.00  0.00    +0.000 A 
ATOM      2  C   UNL     1      41.850   7.140  19.563  0.00  0.00    +0.000 A 
ATOM      3  C   UNL     1      40.668   6.899  20.225  0.00  0.00    +0.000 A 
ATOM      4  C   UNL     1      39.706   6.219  19.564  0.00  0.00    +0.000 A 
ATOM      5  C   UNL     1      39.819   5.736  18.244  0.00  0.00    +0.000 A 
ATOM      6  C   UNL     1      41.029   6.006  17.619  0.00  0.00    +0.000 A 
ENDROOT
BRANCH   5   7
ATOM      7  C   UNL     1      38.756   5.060  17.693  0.00  0.00    +0.000 C 
ATOM      8  N   UNL     1      37.851   4.504  17.221  0.00  0.00    +0.000 NA
BRANCH   8   9
ATOM      9  N   UNL     1      37.463   3.132  17.289  0.00  0.00    +0.000 NA
ATOM     10  C   UNL     1      36.418   2.642  16.421  0.00  0.00    +0.000 C 
ATOM     11  O   UNL     1      35.915   3.503  15.651  0.00  0.00    +0.000 OA
BRANCH  10  12
ATOM     12  C   UNL     1      35.963   1.262  16.414  0.00  0.00    +0.000 A 
ATOM     13  C   UNL     1      35.027   0.795  17.301  0.00  0.00    +0.000 A 
ATOM     14  C   UNL     1      34.635  -0.551  17.236  0.00  0.00    +0.000 A 
ATOM     15  N   UNL     1      35.136  -1.408  16.341  0.00  0.00    +0.000 NA
ATOM     16  C   UNL     1      36.050  -0.980  15.464  0.00  0.00    +0.000 A 
ATOM     17  C   UNL     1      36.461   0.330  15.495  0.00  0.00    +0.000 A 
ENDBRANCH  10  12
ENDBRANCH   8   9
ENDBRANCH   5   7
BRANCH   1  18
ATOM     18  O   UNL     1      43.213   6.945  17.630  0.00  0.00    +0.000 OA
BRANCH  18  19
ATOM     19  C   UNL     1      43.300   7.411  16.313  0.00  0.00    +0.000 C 
BRANCH  19  20
ATOM     20  C   UNL     1      43.487   8.919  16.352  0.00  0.00    +0.000 C 
BRANCH  20  21
ATOM     21  O   UNL     1      42.306   9.601  15.911  0.00  0.00    +0.000 OA
BRANCH  21  25
ATOM     22  C   UNL     1      39.152   9.882  18.646  0.00  0.00    +0.000 A 
ATOM     23  C   UNL     1      40.400  10.417  18.967  0.00  0.00    +0.000 A 
ATOM     24  C   UNL     1      41.431  10.316  18.054  0.00  0.00    +0.000 A 
ATOM     25  C   UNL     1      41.291   9.715  16.840  0.00  0.00    +0.000 A 
ATOM     26  C   UNL     1      40.038   9.184  16.530  0.00  0.00    +0.000 A 
ATOM     27  C   UNL     1      38.994   9.274  17.435  0.00  0.00    +0.000 A 
BRANCH  22  29
ATOM     28  C   UNL     1      37.461  11.398  19.442  0.00  0.00    +0.000 C 
ATOM     29  C   UNL     1      38.045  10.006  19.654  0.00  0.00    +0.000 C 
ATOM     30  C   UNL     1      38.588   9.916  21.051  0.00  0.00    +0.000 C 
ATOM     31  C   UNL     1      37.020   8.928  19.365  0.00  0.00    +0.000 C 
ENDBRANCH  22  29
ENDBRANCH  21  25
ENDBRANCH  20  21
ENDBRANCH  19  20
ENDBRANCH  18  19
ENDBRANCH   1  18
TORSDOF 9
ENDMDL
MODEL 5
REMARK VINA RESULT:      -6.3      2.917      8.915
REMARK  Name = 
REMARK  9 active torsions:
REMARK  status: ('A' for Active; 'I' for Inactive)
REMARK    1  A    between atoms: C_2  and  C_5
REMARK    2  A    between atoms: C_8  and  O_9
REMARK    3  A    between atoms: O_9  and  C_10
REMARK    4  A    between atoms: C_10  and  C_11
REMARK    5  A    between atoms: C_11  and  O_12
REMARK    6  A    between atoms: O_12  and  C_13
REMARK    7  A    between atoms: C_17  and  C_18
REMARK    8  A    between atoms: N_19  and  N_20
REMARK    9  A    between atoms: C_21  and  C_23
REMARK                            x       y       z     vdW  Elec       q    Type
REMARK                         _______ _______ _______ _____ _____    ______ ____
ROOT
ATOM      1  C   UNL     1      36.237   2.635  15.794  0.00  0.00    +0.000 A 
ATOM      2  C   UNL     1      35.033   2.364  16.390  0.00  0.00    +0.000 A 
ATOM      3  C   UNL     1      34.698   1.074  16.730  0.00  0.00    +0.000 A 
ATOM      4  C   UNL     1      35.593   0.100  16.457  0.00  0.00    +0.000 A 
ATOM      5  C   UNL     1      36.849   0.304  15.847  0.00  0.00    +0.000 A 
ATOM      6  C   UNL     1      37.138   1.622  15.522  0.00  0.00    +0.000 A 
ENDROOT
BRANCH   5   7
ATOM      7  C   UNL     1      37.661  -0.783  15.625  0.00  0.00    +0.000 C 
ATOM      8  N   UNL     1      38.334  -1.712  15.438  0.00  0.00    +0.000 NA
BRANCH   8   9
ATOM      9  N   UNL     1      39.747  -1.819  15.270  0.00  0.00    +0.000 NA
ATOM     10  C   UNL     1      40.283  -2.277  14.009  0.00  0.00    +0.000 C 
ATOM     11  O   UNL     1      39.422  -2.558  13.133  0.00  0.00    +0.000 OA
BRANCH  10  12
ATOM     12  C   UNL     1      41.705  -2.410  13.743  0.00  0.00    +0.000 A 
ATOM     13  C   UNL     1      42.653  -1.752  14.484  0.00  0.00    +0.000 A 
ATOM     14  C   UNL     1      44.010  -1.926  14.169  0.00  0.00    +0.000 A 
ATOM     15  N   UNL     1      44.425  -2.711  13.171  0.00  0.00    +0.000 NA
ATOM     16  C   UNL     1      43.523  -3.365  12.432  0.00  0.00    +0.000 A 
ATOM     17  C   UNL     1      42.186  -3.221  12.706  0.00  0.00    +0.000 A 
ENDBRANCH  10  12
ENDBRANCH   8   9
ENDBRANCH   5   7
BRANCH   1  18
ATOM     18  O   UNL     1      36.558   3.927  15.462  0.00  0.00    +0.000 OA
BRANCH  18  19
ATOM     19  C   UNL     1      37.832   4.483  15.634  0.00  0.00    +0.000 C 
BRANCH  19  20
ATOM     20  C   UNL     1      38.070   4.678  17.122  0.00  0.00    +0.000 C 
BRANCH  20  21
ATOM     21  O   UNL     1      38.403   6.039  17.422  0.00  0.00    +0.000 OA
BRANCH  21  25
ATOM     22  C   UNL     1      41.967   6.634  19.535  0.00  0.00    +0.000 A 
ATOM     23  C   UNL     1      41.989   6.561  18.141  0.00  0.00    +0.000 A 
ATOM     24  C   UNL     1      40.804   6.364  17.458  0.00  0.00    +0.000 A 
ATOM     25  C   UNL     1      39.600   6.237  18.082  0.00  0.00    +0.000 A 
ATOM     26  C   UNL     1      39.591   6.312  19.476  0.00  0.00    +0.000 A 
ATOM     27  C   UNL     1      40.770   6.508  20.177  0.00  0.00    +0.000 A 
BRANCH  22  29
ATOM     28  C   UNL     1      43.193   8.273  20.800  0.00  0.00    +0.000 C 
ATOM     29  C   UNL     1      43.267   6.852  20.254  0.00  0.00    +0.000 C 
ATOM     30  C   UNL     1      44.423   6.758  19.301  0.00  0.00    +0.000 C 
ATOM     31  C   UNL     1      43.362   5.836  21.375  0.00  0.00    +0.000 C 
ENDBRANCH  22  29
ENDBRANCH  21  25
ENDBRANCH  20  21
ENDBRANCH  19  20
ENDBRANCH  18  19
ENDBRANCH   1  18
TORSDOF 9
ENDMDL
MODEL 6
REMARK VINA RESULT:      -6.3      2.849     10.260
REMARK  Name = 
REMARK  9 active torsions:
REMARK  status: ('A' for Active; 'I' for Inactive)
REMARK    1  A    between atoms: C_2  and  C_5
REMARK    2  A    between atoms: C_8  and  O_9
REMARK    3  A    between atoms: O_9  and  C_10
REMARK    4  A    between atoms: C_10  and  C_11
REMARK    5  A    between atoms: C_11  and  O_12
REMARK    6  A    between atoms: O_12  and  C_13
REMARK    7  A    between atoms: C_17  and  C_18
REMARK    8  A    between atoms: N_19  and  N_20
REMARK    9  A    between atoms: C_21  and  C_23
REMARK                            x       y       z     vdW  Elec       q    Type
REMARK                         _______ _______ _______ _____ _____    ______ ____
ROOT
ATOM      1  C   UNL     1      38.292   7.991  19.555  0.00  0.00    +0.000 A 
ATOM      2  C   UNL     1      39.384   7.615  20.294  0.00  0.00    +0.000 A 
ATOM      3  C   UNL     1      40.108   6.498  19.949  0.00  0.00    +0.000 A 
ATOM      4  C   UNL     1      39.705   5.798  18.867  0.00  0.00    +0.000 A 
ATOM      5  C   UNL     1      38.594   6.124  18.060  0.00  0.00    +0.000 A 
ATOM      6  C   UNL     1      37.896   7.258  18.451  0.00  0.00    +0.000 A 
ENDROOT
BRANCH   5   7
ATOM      7  C   UNL     1      38.296   5.318  16.987  0.00  0.00    +0.000 C 
ATOM      8  N   UNL     1      38.039   4.651  16.071  0.00  0.00    +0.000 NA
BRANCH   8   9
ATOM      9  N   UNL     1      38.058   3.232  15.917  0.00  0.00    +0.000 NA
ATOM     10  C   UNL     1      36.822   2.489  15.990  0.00  0.00    +0.000 C 
ATOM     11  O   UNL     1      35.792   3.184  16.196  0.00  0.00    +0.000 OA
BRANCH  10  12
ATOM     12  C   UNL     1      36.743   1.046  15.837  0.00  0.00    +0.000 A 
ATOM     13  C   UNL     1      37.765   0.311  15.294  0.00  0.00    +0.000 A 
ATOM     14  C   UNL     1      37.619  -1.080  15.175  0.00  0.00    +0.000 A 
ATOM     15  N   UNL     1      36.519  -1.727  15.571  0.00  0.00    +0.000 NA
ATOM     16  C   UNL     1      35.507  -1.036  16.103  0.00  0.00    +0.000 A 
ATOM     17  C   UNL     1      35.609   0.327  16.236  0.00  0.00    +0.000 A 
ENDBRANCH  10  12
ENDBRANCH   8   9
ENDBRANCH   5   7
BRANCH   1  18
ATOM     18  O   UNL     1      37.579   9.109  19.909  0.00  0.00    +0.000 OA
BRANCH  18  19
ATOM     19  C   UNL     1      38.167  10.327  20.270  0.00  0.00    +0.000 C 
BRANCH  19  20
ATOM     20  C   UNL     1      38.140  11.246  19.060  0.00  0.00    +0.000 C 
BRANCH  20  21
ATOM     21  O   UNL     1      39.461  11.670  18.699  0.00  0.00    +0.000 OA
BRANCH  21  25
ATOM     22  C   UNL     1      42.076   8.604  17.568  0.00  0.00    +0.000 A 
ATOM     23  C   UNL     1      42.318   9.329  18.736  0.00  0.00    +0.000 A 
ATOM     24  C   UNL     1      41.446  10.338  19.096  0.00  0.00    +0.000 A 
ATOM     25  C   UNL     1      40.347  10.666  18.361  0.00  0.00    +0.000 A 
ATOM     26  C   UNL     1      40.116   9.934  17.195  0.00  0.00    +0.000 A 
ATOM     27  C   UNL     1      40.980   8.920  16.819  0.00  0.00    +0.000 A 
BRANCH  22  29
ATOM     28  C   UNL     1      42.217   6.507  16.397  0.00  0.00    +0.000 C 
ATOM     29  C   UNL     1      43.037   7.510  17.199  0.00  0.00    +0.000 C 
ATOM     30  C   UNL     1      43.565   6.831  18.430  0.00  0.00    +0.000 C 
ATOM     31  C   UNL     1      44.142   8.117  16.358  0.00  0.00    +0.000 C 
ENDBRANCH  22  29
ENDBRANCH  21  25
ENDBRANCH  20  21
ENDBRANCH  19  20
ENDBRANCH  18  19
ENDBRANCH   1  18
TORSDOF 9
ENDMDL
MODEL 7
REMARK VINA RESULT:      -6.2      4.115      6.750
REMARK  Name = 
REMARK  9 active torsions:
REMARK  status: ('A' for Active; 'I' for Inactive)
REMARK    1  A    between atoms: C_2  and  C_5
REMARK    2  A    between atoms: C_8  and  O_9
REMARK    3  A    between atoms: O_9  and  C_10
REMARK    4  A    between atoms: C_10  and  C_11
REMARK    5  A    between atoms: C_11  and  O_12
REMARK    6  A    between atoms: O_12  and  C_13
REMARK    7  A    between atoms: C_17  and  C_18
REMARK    8  A    between atoms: N_19  and  N_20
REMARK    9  A    between atoms: C_21  and  C_23
REMARK                            x       y       z     vdW  Elec       q    Type
REMARK                         _______ _______ _______ _____ _____    ______ ____
ROOT
ATOM      1  C   UNL     1      43.066  -2.884  12.483  0.00  0.00    +0.000 A 
ATOM      2  C   UNL     1      43.979  -1.899  12.754  0.00  0.00    +0.000 A 
ATOM      3  C   UNL     1      43.748  -0.993  13.762  0.00  0.00    +0.000 A 
ATOM      4  C   UNL     1      42.601  -1.112  14.463  0.00  0.00    +0.000 A 
ATOM      5  C   UNL     1      41.617  -2.099  14.242  0.00  0.00    +0.000 A 
ATOM      6  C   UNL     1      41.896  -2.989  13.214  0.00  0.00    +0.000 A 
ENDROOT
BRANCH   5   7
ATOM      7  C   UNL     1      40.492  -2.102  15.033  0.00  0.00    +0.000 C 
ATOM      8  N   UNL     1      39.543  -2.121  15.703  0.00  0.00    +0.000 NA
BRANCH   8   9
ATOM      9  N   UNL     1      38.646  -1.076  16.078  0.00  0.00    +0.000 NA
ATOM     10  C   UNL     1      37.396  -0.920  15.372  0.00  0.00    +0.000 C 
ATOM     11  O   UNL     1      37.199  -1.750  14.445  0.00  0.00    +0.000 OA
BRANCH  10  12
ATOM     12  C   UNL     1      36.418   0.107  15.689  0.00  0.00    +0.000 A 
ATOM     13  C   UNL     1      35.672   0.076  16.839  0.00  0.00    +0.000 A 
ATOM     14  C   UNL     1      34.744   1.102  17.079  0.00  0.00    +0.000 A 
ATOM     15  N   UNL     1      34.554   2.117  16.232  0.00  0.00    +0.000 NA
ATOM     16  C   UNL     1      35.267   2.172  15.103  0.00  0.00    +0.000 A 
ATOM     17  C   UNL     1      36.184   1.188  14.830  0.00  0.00    +0.000 A 
ENDBRANCH  10  12
ENDBRANCH   8   9
ENDBRANCH   5   7
BRANCH   1  18
ATOM     18  O   UNL     1      43.310  -3.784  11.476  0.00  0.00    +0.000 OA
BRANCH  18  19
ATOM     19  C   UNL     1      42.413  -4.052  10.435  0.00  0.00    +0.000 C 
BRANCH  19  20
ATOM     20  C   UNL     1      42.393  -2.853   9.502  0.00  0.00    +0.000 C 
BRANCH  20  21
ATOM     21  O   UNL     1      41.080  -2.286   9.409  0.00  0.00    +0.000 OA
BRANCH  21  25
ATOM     22  C   UNL     1      40.359   0.913  12.008  0.00  0.00    +0.000 A 
ATOM     23  C   UNL     1      39.442  -0.136  11.926  0.00  0.00    +0.000 A 
ATOM     24  C   UNL     1      39.694  -1.185  11.064  0.00  0.00    +0.000 A 
ATOM     25  C   UNL     1      40.806  -1.250  10.280  0.00  0.00    +0.000 A 
ATOM     26  C   UNL     1      41.715  -0.194  10.370  0.00  0.00    +0.000 A 
ATOM     27  C   UNL     1      41.478   0.866  11.229  0.00  0.00    +0.000 A 
BRANCH  22  29
ATOM     28  C   UNL     1      41.255   2.985  12.842  0.00  0.00    +0.000 C 
ATOM     29  C   UNL     1      40.064   2.041  12.956  0.00  0.00    +0.000 C 
ATOM     30  C   UNL     1      39.976   1.539  14.368  0.00  0.00    +0.000 C 
ATOM     31  C   UNL     1      38.783   2.714  12.504  0.00  0.00    +0.000 C 
ENDBRANCH  22  29
ENDBRANCH  21  25
ENDBRANCH  20  21
ENDBRANCH  19  20
ENDBRANCH  18  19
ENDBRANCH   1  18
TORSDOF 9
ENDMDL
MODEL 8
REMARK VINA RESULT:      -6.2      5.241     10.366
REMARK  Name = 
REMARK  9 active torsions:
REMARK  status: ('A' for Active; 'I' for Inactive)
REMARK    1  A    between atoms: C_2  and  C_5
REMARK    2  A    between atoms: C_8  and  O_9
REMARK    3  A    between atoms: O_9  and  C_10
REMARK    4  A    between atoms: C_10  and  C_11
REMARK    5  A    between atoms: C_11  and  O_12
REMARK    6  A    between atoms: O_12  and  C_13
REMARK    7  A    between atoms: C_17  and  C_18
REMARK    8  A    between atoms: N_19  and  N_20
REMARK    9  A    between atoms: C_21  and  C_23
REMARK                            x       y       z     vdW  Elec       q    Type
REMARK                         _______ _______ _______ _____ _____    ______ ____
ROOT
ATOM      1  C   UNL     1      36.909  -1.132  17.266  0.00  0.00    +0.000 A 
ATOM      2  C   UNL     1      38.195  -1.599  17.184  0.00  0.00    +0.000 A 
ATOM      3  C   UNL     1      38.457  -2.818  16.602  0.00  0.00    +0.000 A 
ATOM      4  C   UNL     1      37.411  -3.523  16.123  0.00  0.00    +0.000 A 
ATOM      5  C   UNL     1      36.064  -3.106  16.171  0.00  0.00    +0.000 A 
ATOM      6  C   UNL     1      35.851  -1.871  16.769  0.00  0.00    +0.000 A 
ENDROOT
BRANCH   5   7
ATOM      7  C   UNL     1      35.096  -3.928  15.645  0.00  0.00    +0.000 C 
ATOM      8  N   UNL     1      34.267  -4.615  15.209  0.00  0.00    +0.000 NA
BRANCH   8   9
ATOM      9  N   UNL     1      34.352  -5.737  14.331  0.00  0.00    +0.000 NA
ATOM     10  C   UNL     1      33.832  -7.016  14.753  0.00  0.00    +0.000 C 
ATOM     11  O   UNL     1      33.331  -7.034  15.909  0.00  0.00    +0.000 OA
BRANCH  10  12
ATOM     12  C   UNL     1      33.866  -8.210  13.925  0.00  0.00    +0.000 A 
ATOM     13  C   UNL     1      33.469  -8.201  12.613  0.00  0.00    +0.000 A 
ATOM     14  C   UNL     1      33.528  -9.393  11.873  0.00  0.00    +0.000 A 
ATOM     15  N   UNL     1      33.959 -10.546  12.393  0.00  0.00    +0.000 NA
ATOM     16  C   UNL     1      34.352 -10.583  13.670  0.00  0.00    +0.000 A 
ATOM     17  C   UNL     1      34.308  -9.440  14.429  0.00  0.00    +0.000 A 
ENDBRANCH  10  12
ENDBRANCH   8   9
ENDBRANCH   5   7
BRANCH   1  18
ATOM     18  O   UNL     1      36.662   0.087  17.847  0.00  0.00    +0.000 OA
BRANCH  18  19
ATOM     19  C   UNL     1      35.679   0.979  17.402  0.00  0.00    +0.000 C 
BRANCH  19  20
ATOM     20  C   UNL     1      36.371   2.186  16.790  0.00  0.00    +0.000 C 
BRANCH  20  21
ATOM     21  O   UNL     1      36.306   2.154  15.359  0.00  0.00    +0.000 OA
BRANCH  21  25
ATOM     22  C   UNL     1      38.897  -0.576  13.529  0.00  0.00    +0.000 A 
ATOM     23  C   UNL     1      37.519  -0.690  13.337  0.00  0.00    +0.000 A 
ATOM     24  C   UNL     1      36.677   0.219  13.949  0.00  0.00    +0.000 A 
ATOM     25  C   UNL     1      37.127   1.234  14.737  0.00  0.00    +0.000 A 
ATOM     26  C   UNL     1      38.507   1.337  14.921  0.00  0.00    +0.000 A 
ATOM     27  C   UNL     1      39.366   0.434  14.317  0.00  0.00    +0.000 A 
BRANCH  22  29
ATOM     28  C   UNL     1      41.038  -1.657  13.726  0.00  0.00    +0.000 C 
ATOM     29  C   UNL     1      39.792  -1.575  12.852  0.00  0.00    +0.000 C 
ATOM     30  C   UNL     1      40.189  -1.091  11.487  0.00  0.00    +0.000 C 
ATOM     31  C   UNL     1      39.065  -2.904  12.802  0.00  0.00    +0.000 C 
ENDBRANCH  22  29
ENDBRANCH  21  25
ENDBRANCH  20  21
ENDBRANCH  19  20
ENDBRANCH  18  19
ENDBRANCH   1  18
TORSDOF 9
ENDMDL
MODEL 9
REMARK VINA RESULT:      -6.1     24.911     28.674
REMARK  Name = 
REMARK  9 active torsions:
REMARK  status: ('A' for Active; 'I' for Inactive)
REMARK    1  A    between atoms: C_2  and  C_5
REMARK    2  A    between atoms: C_8  and  O_9
REMARK    3  A    between atoms: O_9  and  C_10
REMARK    4  A    between atoms: C_10  and  C_11
REMARK    5  A    between atoms: C_11  and  O_12
REMARK    6  A    between atoms: O_12  and  C_13
REMARK    7  A    between atoms: C_17  and  C_18
REMARK    8  A    between atoms: N_19  and  N_20
REMARK    9  A    between atoms: C_21  and  C_23
REMARK                            x       y       z     vdW  Elec       q    Type
REMARK                         _______ _______ _______ _____ _____    ______ ____
ROOT
ATOM      1  C   UNL     1       9.559  -1.934  25.875  0.00  0.00    +0.000 A 
ATOM      2  C   UNL     1       8.918  -2.020  27.083  0.00  0.00    +0.000 A 
ATOM      3  C   UNL     1       9.562  -1.650  28.241  0.00  0.00    +0.000 A 
ATOM      4  C   UNL     1      10.832  -1.205  28.138  0.00  0.00    +0.000 A 
ATOM      5  C   UNL     1      11.554  -1.089  26.931  0.00  0.00    +0.000 A 
ATOM      6  C   UNL     1      10.861  -1.476  25.792  0.00  0.00    +0.000 A 
ENDROOT
BRANCH   5   7
ATOM      7  C   UNL     1      12.846  -0.622  26.975  0.00  0.00    +0.000 C 
ATOM      8  N   UNL     1      13.933  -0.214  27.022  0.00  0.00    +0.000 NA
BRANCH   8   9
ATOM      9  N   UNL     1      15.104  -0.597  26.302  0.00  0.00    +0.000 NA
ATOM     10  C   UNL     1      16.239   0.295  26.256  0.00  0.00    +0.000 C 
ATOM     11  O   UNL     1      16.090   1.381  26.878  0.00  0.00    +0.000 OA
BRANCH  10  12
ATOM     12  C   UNL     1      17.475  -0.014  25.557  0.00  0.00    +0.000 A 
ATOM     13  C   UNL     1      18.359   0.960  25.170  0.00  0.00    +0.000 A 
ATOM     14  C   UNL     1      19.533   0.589  24.495  0.00  0.00    +0.000 A 
ATOM     15  N   UNL     1      19.832  -0.682  24.212  0.00  0.00    +0.000 NA
ATOM     16  C   UNL     1      18.989  -1.652  24.578  0.00  0.00    +0.000 A 
ATOM     17  C   UNL     1      17.828  -1.331  25.238  0.00  0.00    +0.000 A 
ENDBRANCH  10  12
ENDBRANCH   8   9
ENDBRANCH   5   7
BRANCH   1  18
ATOM     18  O   UNL     1       8.904  -2.304  24.727  0.00  0.00    +0.000 OA
BRANCH  18  19
ATOM     19  C   UNL     1       7.611  -1.882  24.395  0.00  0.00    +0.000 C 
BRANCH  19  20
ATOM     20  C   UNL     1       7.714  -0.535  23.699  0.00  0.00    +0.000 C 
BRANCH  20  21
ATOM     21  O   UNL     1       7.140   0.508  24.497  0.00  0.00    +0.000 OA
BRANCH  21  25
ATOM     22  C   UNL     1       9.688   2.477  27.171  0.00  0.00    +0.000 A 
ATOM     23  C   UNL     1      10.057   2.340  25.832  0.00  0.00    +0.000 A 
ATOM     24  C   UNL     1       9.206   1.687  24.961  0.00  0.00    +0.000 A 
ATOM     25  C   UNL     1       8.008   1.165  25.347  0.00  0.00    +0.000 A 
ATOM     26  C   UNL     1       7.650   1.309  26.689  0.00  0.00    +0.000 A 
ATOM     27  C   UNL     1       8.493   1.959  27.575  0.00  0.00    +0.000 A 
BRANCH  22  29
ATOM     28  C   UNL     1      11.537   4.017  27.192  0.00  0.00    +0.000 C 
ATOM     29  C   UNL     1      10.630   3.193  28.097  0.00  0.00    +0.000 C 
ATOM     30  C   UNL     1      11.470   2.211  28.861  0.00  0.00    +0.000 C 
ATOM     31  C   UNL     1       9.809   4.081  29.010  0.00  0.00    +0.000 C 
ENDBRANCH  22  29
ENDBRANCH  21  25
ENDBRANCH  20  21
ENDBRANCH  19  20
ENDBRANCH  18  19
ENDBRANCH   1  18
TORSDOF 9
ENDMDL
MODEL 10
REMARK VINA RESULT:      -6.0     26.527     29.804
REMARK  Name = 
REMARK  9 active torsions:
REMARK  status: ('A' for Active; 'I' for Inactive)
REMARK    1  A    between atoms: C_2  and  C_5
REMARK    2  A    between atoms: C_8  and  O_9
REMARK    3  A    between atoms: O_9  and  C_10
REMARK    4  A    between atoms: C_10  and  C_11
REMARK    5  A    between atoms: C_11  and  O_12
REMARK    6  A    between atoms: O_12  and  C_13
REMARK    7  A    between atoms: C_17  and  C_18
REMARK    8  A    between atoms: N_19  and  N_20
REMARK    9  A    between atoms: C_21  and  C_23
REMARK                            x       y       z     vdW  Elec       q    Type
REMARK                         _______ _______ _______ _____ _____    ______ ____
ROOT
ATOM      1  C   UNL     1       8.727   4.220   7.169  0.00  0.00    +0.000 A 
ATOM      2  C   UNL     1       7.463   3.800   7.495  0.00  0.00    +0.000 A 
ATOM      3  C   UNL     1       7.271   2.588   8.115  0.00  0.00    +0.000 A 
ATOM      4  C   UNL     1       8.362   1.841   8.385  0.00  0.00    +0.000 A 
ATOM      5  C   UNL     1       9.690   2.207   8.081  0.00  0.00    +0.000 A 
ATOM      6  C   UNL     1       9.831   3.439   7.454  0.00  0.00    +0.000 A 
ENDROOT
BRANCH   5   7
ATOM      7  C   UNL     1      10.708   1.346   8.412  0.00  0.00    +0.000 C 
ATOM      8  N   UNL     1      11.562   0.616   8.709  0.00  0.00    +0.000 NA
BRANCH   8   9
ATOM      9  N   UNL     1      12.689   0.150   7.967  0.00  0.00    +0.000 NA
ATOM     10  C   UNL     1      13.028  -1.254   7.989  0.00  0.00    +0.000 C 
ATOM     11  O   UNL     1      12.272  -1.975   8.693  0.00  0.00    +0.000 OA
BRANCH  10  12
ATOM     12  C   UNL     1      14.149  -1.820   7.258  0.00  0.00    +0.000 A 
ATOM     13  C   UNL     1      14.503  -3.140   7.370  0.00  0.00    +0.000 A 
ATOM     14  C   UNL     1      15.600  -3.618   6.635  0.00  0.00    +0.000 A 
ATOM     15  N   UNL     1      16.321  -2.839   5.823  0.00  0.00    +0.000 NA
ATOM     16  C   UNL     1      15.998  -1.549   5.695  0.00  0.00    +0.000 A 
ATOM     17  C   UNL     1      14.933  -1.041   6.398  0.00  0.00    +0.000 A 
ENDBRANCH  10  12
ENDBRANCH   8   9
ENDBRANCH   5   7
BRANCH   1  18
ATOM     18  O   UNL     1       8.905   5.433   6.552  0.00  0.00    +0.000 OA
BRANCH  18  19
ATOM     19  C   UNL     1       8.434   6.647   7.067  0.00  0.00    +0.000 C 
BRANCH  19  20
ATOM     20  C   UNL     1       9.314   7.041   8.241  0.00  0.00    +0.000 C 
BRANCH  20  21
ATOM     21  O   UNL     1       8.538   7.243   9.429  0.00  0.00    +0.000 OA
BRANCH  21  25
ATOM     22  C   UNL     1       7.889   3.796  11.713  0.00  0.00    +0.000 A 
ATOM     23  C   UNL     1       6.813   4.619  11.376  0.00  0.00    +0.000 A 
ATOM     24  C   UNL     1       7.044   5.754  10.622  0.00  0.00    +0.000 A 
ATOM     25  C   UNL     1       8.282   6.114  10.183  0.00  0.00    +0.000 A 
ATOM     26  C   UNL     1       9.349   5.283  10.527  0.00  0.00    +0.000 A 
ATOM     27  C   UNL     1       9.137   4.143  11.283  0.00  0.00    +0.000 A 
BRANCH  22  29
ATOM     28  C   UNL     1       8.428   2.741  13.807  0.00  0.00    +0.000 C 
ATOM     29  C   UNL     1       7.613   2.567  12.531  0.00  0.00    +0.000 C 
ATOM     30  C   UNL     1       8.088   1.336  11.816  0.00  0.00    +0.000 C 
ATOM     31  C   UNL     1       6.127   2.522  12.828  0.00  0.00    +0.000 C 
ENDBRANCH  22  29
ENDBRANCH  21  25
ENDBRANCH  20  21
ENDBRANCH  19  20
ENDBRANCH  18  19
ENDBRANCH   1  18
TORSDOF 9
ENDMDL
