MODEL 1
REMARK VINA RESULT:      -7.3      0.000      0.000
REMARK  Name = 
REMARK  10 active torsions:
REMARK  status: ('A' for Active; 'I' for Inactive)
REMARK    1  A    between atoms: C_2  and  C_3
REMARK    2  A    between atoms: C_3  and  C_4
REMARK    3  A    between atoms: C_4  and  C_5
REMARK    4  A    between atoms: C_5  and  O_6
REMARK    5  A    between atoms: O_6  and  C_7
REMARK    6  A    between atoms: C_10  and  C_11
REMARK    7  A    between atoms: C_11  and  O_13
REMARK    8  A    between atoms: O_13  and  C_14
REMARK    9  A    between atoms: C_14  and  C_15
REMARK   10  A    between atoms: N_17  and  C_18
REMARK                            x       y       z     vdW  Elec       q    Type
REMARK                         _______ _______ _______ _____ _____    ______ ____
ROOT
ATOM      1  O   UNL     1      36.674   4.468  14.332  0.00  0.00    +0.000 OA
ENDROOT
BRANCH   1   2
ATOM      2  C   UNL     1      35.554   3.773  14.753  0.00  0.00    +0.000 C 
ATOM      3  O   UNL     1      34.430   4.330  14.694  0.00  0.00    +0.000 OA
BRANCH   2   7
ATOM      4  C   UNL     1      35.713  -0.208  16.291  0.00  0.00    +0.000 A 
ATOM      5  C   UNL     1      35.070   0.813  16.961  0.00  0.00    +0.000 A 
ATOM      6  C   UNL     1      35.022   2.083  16.466  0.00  0.00    +0.000 A 
ATOM      7  C   UNL     1      35.616   2.410  15.267  0.00  0.00    +0.000 A 
ATOM      8  C   UNL     1      36.261   1.398  14.587  0.00  0.00    +0.000 A 
ATOM      9  C   UNL     1      36.308   0.118  15.091  0.00  0.00    +0.000 A 
BRANCH   4  10
ATOM     10  O   UNL     1      35.771  -1.512  16.783  0.00  0.00    +0.000 OA
BRANCH  10  11
ATOM     11  C   UNL     1      36.402  -1.779  18.007  0.00  0.00    +0.000 C 
BRANCH  11  12
ATOM     12  C   UNL     1      37.908  -1.933  17.856  0.00  0.00    +0.000 C 
BRANCH  12  13
ATOM     13  C   UNL     1      38.266  -3.316  17.337  0.00  0.00    +0.000 C 
BRANCH  13  15
ATOM     14  C   UNL     1      39.378  -1.682  15.854  0.00  0.00    +0.000 C 
ATOM     15  C   UNL     1      39.010  -3.157  16.048  0.00  0.00    +0.000 C 
ENDBRANCH  13  15
ENDBRANCH  12  13
ENDBRANCH  11  12
ENDBRANCH  10  11
ENDBRANCH   4  10
ENDBRANCH   2   7
ENDBRANCH   1   2
BRANCH   1  16
ATOM     16  C   UNL     1      36.768   5.879  14.394  0.00  0.00    +0.000 C 
BRANCH  16  17
ATOM     17  C   UNL     1      37.670   6.324  15.478  0.00  0.00    +0.000 C 
ATOM     18  O   UNL     1      37.756   7.529  15.756  0.00  0.00    +0.000 OA
ATOM     19  N   UNL     1      38.429   5.381  16.192  0.00  0.00    +0.000 NA
BRANCH  19  20
ATOM     20  C   UNL     1      39.323   5.714  17.250  0.00  0.00    +0.000 A 
ATOM     21  C   UNL     1      38.971   5.745  18.569  0.00  0.00    +0.000 A 
ATOM     22  C   UNL     1      39.927   6.081  19.508  0.00  0.00    +0.000 A 
ATOM     23  C   UNL     1      41.219   6.384  19.143  0.00  0.00    +0.000 A 
ATOM     24  C   UNL     1      42.176   6.721  20.081  0.00  0.00    +0.000 A 
ATOM     25  C   UNL     1      43.477   7.026  19.700  0.00  0.00    +0.000 A 
ATOM     26  C   UNL     1      43.852   7.000  18.374  0.00  0.00    +0.000 A 
ATOM     27  C   UNL     1      42.886   6.662  17.449  0.00  0.00    +0.000 A 
ATOM     28  C   UNL     1      41.594   6.360  17.822  0.00  0.00    +0.000 A 
ATOM     29  C   UNL     1      40.624   6.019  16.881  0.00  0.00    +0.000 A 
ENDBRANCH  19  20
ENDBRANCH  16  17
ENDBRANCH   1  16
TORSDOF 10
ENDMDL
MODEL 2
REMARK VINA RESULT:      -7.0      2.526      3.971
REMARK  Name = 
REMARK  10 active torsions:
REMARK  status: ('A' for Active; 'I' for Inactive)
REMARK    1  A    between atoms: C_2  and  C_3
REMARK    2  A    between atoms: C_3  and  C_4
REMARK    3  A    between atoms: C_4  and  C_5
REMARK    4  A    between atoms: C_5  and  O_6
REMARK    5  A    between atoms: O_6  and  C_7
REMARK    6  A    between atoms: C_10  and  C_11
REMARK    7  A    between atoms: C_11  and  O_13
REMARK    8  A    between atoms: O_13  and  C_14
REMARK    9  A    between atoms: C_14  and  C_15
REMARK   10  A    between atoms: N_17  and  C_18
REMARK                            x       y       z     vdW  Elec       q    Type
REMARK                         _______ _______ _______ _____ _____    ______ ____
ROOT
ATOM      1  O   UNL     1      39.282   2.122  15.057  0.00  0.00    +0.000 OA
ENDROOT
BRANCH   1   2
ATOM      2  C   UNL     1      39.309   1.050  14.183  0.00  0.00    +0.000 C 
ATOM      3  O   UNL     1      39.835   1.195  13.052  0.00  0.00    +0.000 OA
BRANCH   2   7
ATOM      4  C   UNL     1      37.640  -2.765  15.130  0.00  0.00    +0.000 A 
ATOM      5  C   UNL     1      37.034  -1.898  14.243  0.00  0.00    +0.000 A 
ATOM      6  C   UNL     1      37.571  -0.681  13.943  0.00  0.00    +0.000 A 
ATOM      7  C   UNL     1      38.750  -0.255  14.515  0.00  0.00    +0.000 A 
ATOM      8  C   UNL     1      39.365  -1.113  15.403  0.00  0.00    +0.000 A 
ATOM      9  C   UNL     1      38.819  -2.340  15.702  0.00  0.00    +0.000 A 
BRANCH   4  10
ATOM     10  O   UNL     1      37.105  -4.014  15.447  0.00  0.00    +0.000 OA
BRANCH  10  11
ATOM     11  C   UNL     1      35.981  -4.111  16.281  0.00  0.00    +0.000 C 
BRANCH  11  12
ATOM     12  C   UNL     1      35.832  -2.899  17.189  0.00  0.00    +0.000 C 
BRANCH  12  13
ATOM     13  C   UNL     1      34.558  -2.134  16.873  0.00  0.00    +0.000 C 
BRANCH  13  15
ATOM     14  C   UNL     1      36.220  -0.501  17.697  0.00  0.00    +0.000 C 
ATOM     15  C   UNL     1      34.787  -0.688  17.185  0.00  0.00    +0.000 C 
ENDBRANCH  13  15
ENDBRANCH  12  13
ENDBRANCH  11  12
ENDBRANCH  10  11
ENDBRANCH   4  10
ENDBRANCH   2   7
ENDBRANCH   1   2
BRANCH   1  16
ATOM     16  C   UNL     1      38.285   3.126  15.008  0.00  0.00    +0.000 C 
BRANCH  16  17
ATOM     17  C   UNL     1      38.234   3.912  16.260  0.00  0.00    +0.000 C 
ATOM     18  O   UNL     1      37.484   3.559  17.182  0.00  0.00    +0.000 OA
ATOM     19  N   UNL     1      39.036   5.056  16.404  0.00  0.00    +0.000 NA
BRANCH  19  20
ATOM     20  C   UNL     1      39.056   5.875  17.570  0.00  0.00    +0.000 A 
ATOM     21  C   UNL     1      39.772   5.586  18.697  0.00  0.00    +0.000 A 
ATOM     22  C   UNL     1      39.714   6.457  19.767  0.00  0.00    +0.000 A 
ATOM     23  C   UNL     1      38.952   7.603  19.722  0.00  0.00    +0.000 A 
ATOM     24  C   UNL     1      38.892   8.476  20.792  0.00  0.00    +0.000 A 
ATOM     25  C   UNL     1      38.120   9.629  20.734  0.00  0.00    +0.000 A 
ATOM     26  C   UNL     1      37.390   9.938  19.606  0.00  0.00    +0.000 A 
ATOM     27  C   UNL     1      37.459   9.057  18.546  0.00  0.00    +0.000 A 
ATOM     28  C   UNL     1      38.224   7.912  18.599  0.00  0.00    +0.000 A 
ATOM     29  C   UNL     1      38.289   7.028  17.523  0.00  0.00    +0.000 A 
ENDBRANCH  19  20
ENDBRANCH  16  17
ENDBRANCH   1  16
TORSDOF 10
ENDMDL
MODEL 3
REMARK VINA RESULT:      -6.9      1.701      2.697
REMARK  Name = 
REMARK  10 active torsions:
REMARK  status: ('A' for Active; 'I' for Inactive)
REMARK    1  A    between atoms: C_2  and  C_3
REMARK    2  A    between atoms: C_3  and  C_4
REMARK    3  A    between atoms: C_4  and  C_5
REMARK    4  A    between atoms: C_5  and  O_6
REMARK    5  A    between atoms: O_6  and  C_7
REMARK    6  A    between atoms: C_10  and  C_11
REMARK    7  A    between atoms: C_11  and  O_13
REMARK    8  A    between atoms: O_13  and  C_14
REMARK    9  A    between atoms: C_14  and  C_15
REMARK   10  A    between atoms: N_17  and  C_18
REMARK                            x       y       z     vdW  Elec       q    Type
REMARK                         _______ _______ _______ _____ _____    ______ ____
ROOT
ATOM      1  O   UNL     1      37.985   3.791  12.533  0.00  0.00    +0.000 OA
ENDROOT
BRANCH   1   2
ATOM      2  C   UNL     1      37.844   2.455  12.204  0.00  0.00    +0.000 C 
ATOM      3  O   UNL     1      37.697   2.134  10.998  0.00  0.00    +0.000 OA
BRANCH   2   7
ATOM      4  C   UNL     1      37.846  -0.679  15.104  0.00  0.00    +0.000 A 
ATOM      5  C   UNL     1      36.777  -0.462  14.258  0.00  0.00    +0.000 A 
ATOM      6  C   UNL     1      36.781   0.541  13.333  0.00  0.00    +0.000 A 
ATOM      7  C   UNL     1      37.858   1.389  13.198  0.00  0.00    +0.000 A 
ATOM      8  C   UNL     1      38.932   1.182  14.037  0.00  0.00    +0.000 A 
ATOM      9  C   UNL     1      38.924   0.169  14.969  0.00  0.00    +0.000 A 
BRANCH   4  10
ATOM     10  O   UNL     1      37.859  -1.700  16.055  0.00  0.00    +0.000 OA
BRANCH  10  11
ATOM     11  C   UNL     1      36.742  -1.916  16.876  0.00  0.00    +0.000 C 
BRANCH  11  12
ATOM     12  C   UNL     1      36.922  -1.316  18.262  0.00  0.00    +0.000 C 
BRANCH  12  13
ATOM     13  C   UNL     1      35.763  -0.399  18.615  0.00  0.00    +0.000 C 
BRANCH  13  15
ATOM     14  C   UNL     1      34.951   1.230  16.943  0.00  0.00    +0.000 C 
ATOM     15  C   UNL     1      34.907  -0.233  17.397  0.00  0.00    +0.000 C 
ENDBRANCH  13  15
ENDBRANCH  12  13
ENDBRANCH  11  12
ENDBRANCH  10  11
ENDBRANCH   4  10
ENDBRANCH   2   7
ENDBRANCH   1   2
BRANCH   1  16
ATOM     16  C   UNL     1      36.983   4.523  13.214  0.00  0.00    +0.000 C 
BRANCH  16  17
ATOM     17  C   UNL     1      37.492   5.118  14.468  0.00  0.00    +0.000 C 
ATOM     18  O   UNL     1      37.055   6.212  14.856  0.00  0.00    +0.000 OA
ATOM     19  N   UNL     1      38.469   4.444  15.220  0.00  0.00    +0.000 NA
BRANCH  19  20
ATOM     20  C   UNL     1      39.019   4.937  16.438  0.00  0.00    +0.000 A 
ATOM     21  C   UNL     1      38.421   4.803  17.658  0.00  0.00    +0.000 A 
ATOM     22  C   UNL     1      39.051   5.322  18.773  0.00  0.00    +0.000 A 
ATOM     23  C   UNL     1      40.262   5.969  18.678  0.00  0.00    +0.000 A 
ATOM     24  C   UNL     1      40.894   6.490  19.792  0.00  0.00    +0.000 A 
ATOM     25  C   UNL     1      42.116   7.142  19.683  0.00  0.00    +0.000 A 
ATOM     26  C   UNL     1      42.736   7.287  18.461  0.00  0.00    +0.000 A 
ATOM     27  C   UNL     1      42.094   6.763  17.358  0.00  0.00    +0.000 A 
ATOM     28  C   UNL     1      40.880   6.116  17.461  0.00  0.00    +0.000 A 
ATOM     29  C   UNL     1      40.239   5.589  16.342  0.00  0.00    +0.000 A 
ENDBRANCH  19  20
ENDBRANCH  16  17
ENDBRANCH   1  16
TORSDOF 10
ENDMDL
MODEL 4
REMARK VINA RESULT:      -6.9      3.585      7.343
REMARK  Name = 
REMARK  10 active torsions:
REMARK  status: ('A' for Active; 'I' for Inactive)
REMARK    1  A    between atoms: C_2  and  C_3
REMARK    2  A    between atoms: C_3  and  C_4
REMARK    3  A    between atoms: C_4  and  C_5
REMARK    4  A    between atoms: C_5  and  O_6
REMARK    5  A    between atoms: O_6  and  C_7
REMARK    6  A    between atoms: C_10  and  C_11
REMARK    7  A    between atoms: C_11  and  O_13
REMARK    8  A    between atoms: O_13  and  C_14
REMARK    9  A    between atoms: C_14  and  C_15
REMARK   10  A    between atoms: N_17  and  C_18
REMARK                            x       y       z     vdW  Elec       q    Type
REMARK                         _______ _______ _______ _____ _____    ______ ____
ROOT
ATOM      1  O   UNL     1      38.523   3.953  16.440  0.00  0.00    +0.000 OA
ENDROOT
BRANCH   1   2
ATOM      2  C   UNL     1      38.700   4.086  15.075  0.00  0.00    +0.000 C 
ATOM      3  O   UNL     1      38.817   5.235  14.582  0.00  0.00    +0.000 OA
BRANCH   2   7
ATOM      4  C   UNL     1      38.905   0.729  12.443  0.00  0.00    +0.000 A 
ATOM      5  C   UNL     1      39.806   0.912  13.473  0.00  0.00    +0.000 A 
ATOM      6  C   UNL     1      39.737   1.985  14.310  0.00  0.00    +0.000 A 
ATOM      7  C   UNL     1      38.758   2.944  14.170  0.00  0.00    +0.000 A 
ATOM      8  C   UNL     1      37.851   2.773  13.145  0.00  0.00    +0.000 A 
ATOM      9  C   UNL     1      37.925   1.688  12.302  0.00  0.00    +0.000 A 
BRANCH   4  10
ATOM     10  O   UNL     1      38.961  -0.364  11.578  0.00  0.00    +0.000 OA
BRANCH  10  11
ATOM     11  C   UNL     1      39.988  -1.311  11.700  0.00  0.00    +0.000 C 
BRANCH  11  12
ATOM     12  C   UNL     1      39.539  -2.550  12.462  0.00  0.00    +0.000 C 
BRANCH  12  13
ATOM     13  C   UNL     1      40.631  -3.038  13.400  0.00  0.00    +0.000 C 
BRANCH  13  15
ATOM     14  C   UNL     1      40.021  -3.176  15.791  0.00  0.00    +0.000 C 
ATOM     15  C   UNL     1      40.538  -2.260  14.676  0.00  0.00    +0.000 C 
ENDBRANCH  13  15
ENDBRANCH  12  13
ENDBRANCH  11  12
ENDBRANCH  10  11
ENDBRANCH   4  10
ENDBRANCH   2   7
ENDBRANCH   1   2
BRANCH   1  16
ATOM     16  C   UNL     1      37.246   3.946  17.052  0.00  0.00    +0.000 C 
BRANCH  16  17
ATOM     17  C   UNL     1      36.474   2.735  16.698  0.00  0.00    +0.000 C 
ATOM     18  O   UNL     1      35.509   2.821  15.924  0.00  0.00    +0.000 OA
ATOM     19  N   UNL     1      36.835   1.489  17.237  0.00  0.00    +0.000 NA
BRANCH  19  20
ATOM     20  C   UNL     1      36.152   0.270  16.956  0.00  0.00    +0.000 A 
ATOM     21  C   UNL     1      35.008  -0.129  17.585  0.00  0.00    +0.000 A 
ATOM     22  C   UNL     1      34.434  -1.334  17.227  0.00  0.00    +0.000 A 
ATOM     23  C   UNL     1      34.989  -2.135  16.255  0.00  0.00    +0.000 A 
ATOM     24  C   UNL     1      34.416  -3.340  15.896  0.00  0.00    +0.000 A 
ATOM     25  C   UNL     1      34.987  -4.140  14.914  0.00  0.00    +0.000 A 
ATOM     26  C   UNL     1      36.141  -3.754  14.266  0.00  0.00    +0.000 A 
ATOM     27  C   UNL     1      36.702  -2.549  14.636  0.00  0.00    +0.000 A 
ATOM     28  C   UNL     1      36.139  -1.752  15.610  0.00  0.00    +0.000 A 
ATOM     29  C   UNL     1      36.712  -0.535  15.977  0.00  0.00    +0.000 A 
ENDBRANCH  19  20
ENDBRANCH  16  17
ENDBRANCH   1  16
TORSDOF 10
ENDMDL
MODEL 5
REMARK VINA RESULT:      -6.8      2.592      9.550
REMARK  Name = 
REMARK  10 active torsions:
REMARK  status: ('A' for Active; 'I' for Inactive)
REMARK    1  A    between atoms: C_2  and  C_3
REMARK    2  A    between atoms: C_3  and  C_4
REMARK    3  A    between atoms: C_4  and  C_5
REMARK    4  A    between atoms: C_5  and  O_6
REMARK    5  A    between atoms: O_6  and  C_7
REMARK    6  A    between atoms: C_10  and  C_11
REMARK    7  A    between atoms: C_11  and  O_13
REMARK    8  A    between atoms: O_13  and  C_14
REMARK    9  A    between atoms: C_14  and  C_15
REMARK   10  A    between atoms: N_17  and  C_18
REMARK                            x       y       z     vdW  Elec       q    Type
REMARK                         _______ _______ _______ _____ _____    ______ ____
ROOT
ATOM      1  O   UNL     1      37.549   3.424  17.172  0.00  0.00    +0.000 OA
ENDROOT
BRANCH   1   2
ATOM      2  C   UNL     1      38.206   4.536  16.678  0.00  0.00    +0.000 C 
ATOM      3  O   UNL     1      37.943   4.937  15.517  0.00  0.00    +0.000 OA
BRANCH   2   7
ATOM      4  C   UNL     1      41.142   6.703  18.896  0.00  0.00    +0.000 A 
ATOM      5  C   UNL     1      41.275   6.460  17.544  0.00  0.00    +0.000 A 
ATOM      6  C   UNL     1      40.334   5.767  16.840  0.00  0.00    +0.000 A 
ATOM      7  C   UNL     1      39.201   5.274  17.447  0.00  0.00    +0.000 A 
ATOM      8  C   UNL     1      39.056   5.511  18.798  0.00  0.00    +0.000 A 
ATOM      9  C   UNL     1      40.008   6.210  19.505  0.00  0.00    +0.000 A 
BRANCH   4  10
ATOM     10  O   UNL     1      42.094   7.410  19.631  0.00  0.00    +0.000 OA
BRANCH  10  11
ATOM     11  C   UNL     1      43.311   6.805  19.980  0.00  0.00    +0.000 C 
BRANCH  11  12
ATOM     12  C   UNL     1      43.519   6.759  21.487  0.00  0.00    +0.000 C 
BRANCH  12  13
ATOM     13  C   UNL     1      44.998   6.712  21.832  0.00  0.00    +0.000 C 
BRANCH  13  15
ATOM     14  C   UNL     1      45.347   4.266  21.907  0.00  0.00    +0.000 C 
ATOM     15  C   UNL     1      45.612   5.551  21.113  0.00  0.00    +0.000 C 
ENDBRANCH  13  15
ENDBRANCH  12  13
ENDBRANCH  11  12
ENDBRANCH  10  11
ENDBRANCH   4  10
ENDBRANCH   2   7
ENDBRANCH   1   2
BRANCH   1  16
ATOM     16  C   UNL     1      36.384   2.891  16.570  0.00  0.00    +0.000 C 
BRANCH  16  17
ATOM     17  C   UNL     1      36.259   1.436  16.804  0.00  0.00    +0.000 C 
ATOM     18  O   UNL     1      35.441   1.010  17.632  0.00  0.00    +0.000 OA
ATOM     19  N   UNL     1      37.067   0.538  16.087  0.00  0.00    +0.000 NA
BRANCH  19  20
ATOM     20  C   UNL     1      37.019  -0.878  16.243  0.00  0.00    +0.000 A 
ATOM     21  C   UNL     1      37.917  -1.597  16.979  0.00  0.00    +0.000 A 
ATOM     22  C   UNL     1      37.769  -2.968  17.059  0.00  0.00    +0.000 A 
ATOM     23  C   UNL     1      36.742  -3.620  16.417  0.00  0.00    +0.000 A 
ATOM     24  C   UNL     1      36.592  -4.992  16.496  0.00  0.00    +0.000 A 
ATOM     25  C   UNL     1      35.550  -5.638  15.842  0.00  0.00    +0.000 A 
ATOM     26  C   UNL     1      34.634  -4.929  15.095  0.00  0.00    +0.000 A 
ATOM     27  C   UNL     1      34.795  -3.561  15.025  0.00  0.00    +0.000 A 
ATOM     28  C   UNL     1      35.828  -2.916  15.671  0.00  0.00    +0.000 A 
ATOM     29  C   UNL     1      35.984  -1.533  15.596  0.00  0.00    +0.000 A 
ENDBRANCH  19  20
ENDBRANCH  16  17
ENDBRANCH   1  16
TORSDOF 10
ENDMDL
MODEL 6
REMARK VINA RESULT:      -6.8      2.016      2.640
REMARK  Name = 
REMARK  10 active torsions:
REMARK  status: ('A' for Active; 'I' for Inactive)
REMARK    1  A    between atoms: C_2  and  C_3
REMARK    2  A    between atoms: C_3  and  C_4
REMARK    3  A    between atoms: C_4  and  C_5
REMARK    4  A    between atoms: C_5  and  O_6
REMARK    5  A    between atoms: O_6  and  C_7
REMARK    6  A    between atoms: C_10  and  C_11
REMARK    7  A    between atoms: C_11  and  O_13
REMARK    8  A    between atoms: O_13  and  C_14
REMARK    9  A    between atoms: C_14  and  C_15
REMARK   10  A    between atoms: N_17  and  C_18
REMARK                            x       y       z     vdW  Elec       q    Type
REMARK                         _______ _______ _______ _____ _____    ______ ____
ROOT
ATOM      1  O   UNL     1      36.304   3.778  15.499  0.00  0.00    +0.000 OA
ENDROOT
BRANCH   1   2
ATOM      2  C   UNL     1      35.251   2.913  15.734  0.00  0.00    +0.000 C 
ATOM      3  O   UNL     1      34.074   3.349  15.668  0.00  0.00    +0.000 OA
BRANCH   2   7
ATOM      4  C   UNL     1      35.796  -1.205  16.725  0.00  0.00    +0.000 A 
ATOM      5  C   UNL     1      35.370  -0.276  17.653  0.00  0.00    +0.000 A 
ATOM      6  C   UNL     1      35.197   1.038  17.332  0.00  0.00    +0.000 A 
ATOM      7  C   UNL     1      35.440   1.505  16.059  0.00  0.00    +0.000 A 
ATOM      8  C   UNL     1      35.866   0.586  15.122  0.00  0.00    +0.000 A 
ATOM      9  C   UNL     1      36.039  -0.739  15.451  0.00  0.00    +0.000 A 
BRANCH   4  10
ATOM     10  O   UNL     1      35.977  -2.553  17.036  0.00  0.00    +0.000 OA
BRANCH  10  11
ATOM     11  C   UNL     1      37.139  -2.976  17.699  0.00  0.00    +0.000 C 
BRANCH  11  12
ATOM     12  C   UNL     1      38.348  -2.125  17.339  0.00  0.00    +0.000 C 
BRANCH  12  13
ATOM     13  C   UNL     1      39.350  -2.920  16.520  0.00  0.00    +0.000 C 
BRANCH  13  15
ATOM     14  C   UNL     1      40.460  -1.662  14.705  0.00  0.00    +0.000 C 
ATOM     15  C   UNL     1      39.231  -2.494  15.089  0.00  0.00    +0.000 C 
ENDBRANCH  13  15
ENDBRANCH  12  13
ENDBRANCH  11  12
ENDBRANCH  10  11
ENDBRANCH   4  10
ENDBRANCH   2   7
ENDBRANCH   1   2
BRANCH   1  16
ATOM     16  C   UNL     1      37.640   3.474  15.855  0.00  0.00    +0.000 C 
BRANCH  16  17
ATOM     17  C   UNL     1      38.317   4.626  16.487  0.00  0.00    +0.000 C 
ATOM     18  O   UNL     1      38.994   5.402  15.796  0.00  0.00    +0.000 OA
ATOM     19  N   UNL     1      38.191   4.843  17.870  0.00  0.00    +0.000 NA
BRANCH  19  20
ATOM     20  C   UNL     1      38.805   5.924  18.567  0.00  0.00    +0.000 A 
ATOM     21  C   UNL     1      40.039   5.857  19.149  0.00  0.00    +0.000 A 
ATOM     22  C   UNL     1      40.533   6.971  19.799  0.00  0.00    +0.000 A 
ATOM     23  C   UNL     1      39.811   8.140  19.872  0.00  0.00    +0.000 A 
ATOM     24  C   UNL     1      40.303   9.257  20.522  0.00  0.00    +0.000 A 
ATOM     25  C   UNL     1      39.564  10.431  20.589  0.00  0.00    +0.000 A 
ATOM     26  C   UNL     1      38.317  10.518  20.007  0.00  0.00    +0.000 A 
ATOM     27  C   UNL     1      37.838   9.397  19.362  0.00  0.00    +0.000 A 
ATOM     28  C   UNL     1      38.568   8.229  19.294  0.00  0.00    +0.000 A 
ATOM     29  C   UNL     1      38.077   7.100  18.640  0.00  0.00    +0.000 A 
ENDBRANCH  19  20
ENDBRANCH  16  17
ENDBRANCH   1  16
TORSDOF 10
ENDMDL
MODEL 7
REMARK VINA RESULT:      -6.8      1.808      2.281
REMARK  Name = 
REMARK  10 active torsions:
REMARK  status: ('A' for Active; 'I' for Inactive)
REMARK    1  A    between atoms: C_2  and  C_3
REMARK    2  A    between atoms: C_3  and  C_4
REMARK    3  A    between atoms: C_4  and  C_5
REMARK    4  A    between atoms: C_5  and  O_6
REMARK    5  A    between atoms: O_6  and  C_7
REMARK    6  A    between atoms: C_10  and  C_11
REMARK    7  A    between atoms: C_11  and  O_13
REMARK    8  A    between atoms: O_13  and  C_14
REMARK    9  A    between atoms: C_14  and  C_15
REMARK   10  A    between atoms: N_17  and  C_18
REMARK                            x       y       z     vdW  Elec       q    Type
REMARK                         _______ _______ _______ _____ _____    ______ ____
ROOT
ATOM      1  O   UNL     1      36.570   4.679  15.330  0.00  0.00    +0.000 OA
ENDROOT
BRANCH   1   2
ATOM      2  C   UNL     1      36.272   3.466  14.734  0.00  0.00    +0.000 C 
ATOM      3  O   UNL     1      36.200   3.402  13.482  0.00  0.00    +0.000 OA
BRANCH   2   7
ATOM      4  C   UNL     1      35.616  -0.125  16.949  0.00  0.00    +0.000 A 
ATOM      5  C   UNL     1      36.703   0.034  16.113  0.00  0.00    +0.000 A 
ATOM      6  C   UNL     1      36.908   1.183  15.407  0.00  0.00    +0.000 A 
ATOM      7  C   UNL     1      36.036   2.246  15.496  0.00  0.00    +0.000 A 
ATOM      8  C   UNL     1      34.947   2.100  16.329  0.00  0.00    +0.000 A 
ATOM      9  C   UNL     1      34.743   0.938  17.038  0.00  0.00    +0.000 A 
BRANCH   4  10
ATOM     10  O   UNL     1      35.391  -1.293  17.678  0.00  0.00    +0.000 OA
BRANCH  10  11
ATOM     11  C   UNL     1      35.638  -2.547  17.099  0.00  0.00    +0.000 C 
BRANCH  11  12
ATOM     12  C   UNL     1      34.485  -3.011  16.220  0.00  0.00    +0.000 C 
BRANCH  12  13
ATOM     13  C   UNL     1      34.996  -3.573  14.903  0.00  0.00    +0.000 C 
BRANCH  13  15
ATOM     14  C   UNL     1      34.021  -5.833  15.123  0.00  0.00    +0.000 C 
ATOM     15  C   UNL     1      33.961  -4.507  14.357  0.00  0.00    +0.000 C 
ENDBRANCH  13  15
ENDBRANCH  12  13
ENDBRANCH  11  12
ENDBRANCH  10  11
ENDBRANCH   4  10
ENDBRANCH   2   7
ENDBRANCH   1   2
BRANCH   1  16
ATOM     16  C   UNL     1      37.529   5.577  14.805  0.00  0.00    +0.000 C 
BRANCH  16  17
ATOM     17  C   UNL     1      38.374   6.164  15.867  0.00  0.00    +0.000 C 
ATOM     18  O   UNL     1      38.464   7.395  15.976  0.00  0.00    +0.000 OA
ATOM     19  N   UNL     1      39.072   5.326  16.753  0.00  0.00    +0.000 NA
BRANCH  19  20
ATOM     20  C   UNL     1      39.908   5.798  17.805  0.00  0.00    +0.000 A 
ATOM     21  C   UNL     1      39.506   5.925  19.104  0.00  0.00    +0.000 A 
ATOM     22  C   UNL     1      40.408   6.394  20.040  0.00  0.00    +0.000 A 
ATOM     23  C   UNL     1      41.695   6.734  19.692  0.00  0.00    +0.000 A 
ATOM     24  C   UNL     1      42.599   7.203  20.627  0.00  0.00    +0.000 A 
ATOM     25  C   UNL     1      43.895   7.543  20.262  0.00  0.00    +0.000 A 
ATOM     26  C   UNL     1      44.320   7.421  18.957  0.00  0.00    +0.000 A 
ATOM     27  C   UNL     1      43.408   6.952  18.034  0.00  0.00    +0.000 A 
ATOM     28  C   UNL     1      42.120   6.614  18.391  0.00  0.00    +0.000 A 
ATOM     29  C   UNL     1      41.204   6.140  17.453  0.00  0.00    +0.000 A 
ENDBRANCH  19  20
ENDBRANCH  16  17
ENDBRANCH   1  16
TORSDOF 10
ENDMDL
MODEL 8
REMARK VINA RESULT:      -6.7      2.335      8.978
REMARK  Name = 
REMARK  10 active torsions:
REMARK  status: ('A' for Active; 'I' for Inactive)
REMARK    1  A    between atoms: C_2  and  C_3
REMARK    2  A    between atoms: C_3  and  C_4
REMARK    3  A    between atoms: C_4  and  C_5
REMARK    4  A    between atoms: C_5  and  O_6
REMARK    5  A    between atoms: O_6  and  C_7
REMARK    6  A    between atoms: C_10  and  C_11
REMARK    7  A    between atoms: C_11  and  O_13
REMARK    8  A    between atoms: O_13  and  C_14
REMARK    9  A    between atoms: C_14  and  C_15
REMARK   10  A    between atoms: N_17  and  C_18
REMARK                            x       y       z     vdW  Elec       q    Type
REMARK                         _______ _______ _______ _____ _____    ______ ____
ROOT
ATOM      1  O   UNL     1      37.787   5.531  15.791  0.00  0.00    +0.000 OA
ENDROOT
BRANCH   1   2
ATOM      2  C   UNL     1      39.159   5.473  15.955  0.00  0.00    +0.000 C 
ATOM      3  O   UNL     1      39.874   5.077  15.001  0.00  0.00    +0.000 OA
BRANCH   2   7
ATOM      4  C   UNL     1      41.072   6.587  19.607  0.00  0.00    +0.000 A 
ATOM      5  C   UNL     1      39.733   6.255  19.550  0.00  0.00    +0.000 A 
ATOM      6  C   UNL     1      39.127   5.900  18.382  0.00  0.00    +0.000 A 
ATOM      7  C   UNL     1      39.825   5.855  17.195  0.00  0.00    +0.000 A 
ATOM      8  C   UNL     1      41.163   6.183  17.238  0.00  0.00    +0.000 A 
ATOM      9  C   UNL     1      41.771   6.541  18.420  0.00  0.00    +0.000 A 
BRANCH   4  10
ATOM     10  O   UNL     1      41.708   6.952  20.794  0.00  0.00    +0.000 OA
BRANCH  10  11
ATOM     11  C   UNL     1      43.108   6.961  20.872  0.00  0.00    +0.000 C 
BRANCH  11  12
ATOM     12  C   UNL     1      43.653   5.738  21.595  0.00  0.00    +0.000 C 
BRANCH  12  13
ATOM     13  C   UNL     1      44.723   6.129  22.600  0.00  0.00    +0.000 C 
BRANCH  13  15
ATOM     14  C   UNL     1      44.290   7.691  24.466  0.00  0.00    +0.000 C 
ATOM     15  C   UNL     1      44.529   7.571  22.957  0.00  0.00    +0.000 C 
ENDBRANCH  13  15
ENDBRANCH  12  13
ENDBRANCH  11  12
ENDBRANCH  10  11
ENDBRANCH   4  10
ENDBRANCH   2   7
ENDBRANCH   1   2
BRANCH   1  16
ATOM     16  C   UNL     1      37.131   5.032  14.640  0.00  0.00    +0.000 C 
BRANCH  16  17
ATOM     17  C   UNL     1      36.373   3.796  14.930  0.00  0.00    +0.000 C 
ATOM     18  O   UNL     1      35.218   3.662  14.500  0.00  0.00    +0.000 OA
ATOM     19  N   UNL     1      36.962   2.773  15.692  0.00  0.00    +0.000 NA
BRANCH  19  20
ATOM     20  C   UNL     1      36.312   1.549  16.023  0.00  0.00    +0.000 A 
ATOM     21  C   UNL     1      35.367   1.424  17.002  0.00  0.00    +0.000 A 
ATOM     22  C   UNL     1      34.804   0.184  17.233  0.00  0.00    +0.000 A 
ATOM     23  C   UNL     1      35.175  -0.922  16.502  0.00  0.00    +0.000 A 
ATOM     24  C   UNL     1      34.613  -2.163  16.732  0.00  0.00    +0.000 A 
ATOM     25  C   UNL     1      34.996  -3.272  15.988  0.00  0.00    +0.000 A 
ATOM     26  C   UNL     1      35.947  -3.166  14.996  0.00  0.00    +0.000 A 
ATOM     27  C   UNL     1      36.500  -1.921  14.778  0.00  0.00    +0.000 A 
ATOM     28  C   UNL     1      36.123  -0.818  15.515  0.00  0.00    +0.000 A 
ATOM     29  C   UNL     1      36.686   0.437  15.287  0.00  0.00    +0.000 A 
ENDBRANCH  19  20
ENDBRANCH  16  17
ENDBRANCH   1  16
TORSDOF 10
ENDMDL
MODEL 9
REMARK VINA RESULT:      -6.7      3.557     10.128
REMARK  Name = 
REMARK  10 active torsions:
REMARK  status: ('A' for Active; 'I' for Inactive)
REMARK    1  A    between atoms: C_2  and  C_3
REMARK    2  A    between atoms: C_3  and  C_4
REMARK    3  A    between atoms: C_4  and  C_5
REMARK    4  A    between atoms: C_5  and  O_6
REMARK    5  A    between atoms: O_6  and  C_7
REMARK    6  A    between atoms: C_10  and  C_11
REMARK    7  A    between atoms: C_11  and  O_13
REMARK    8  A    between atoms: O_13  and  C_14
REMARK    9  A    between atoms: C_14  and  C_15
REMARK   10  A    between atoms: N_17  and  C_18
REMARK                            x       y       z     vdW  Elec       q    Type
REMARK                         _______ _______ _______ _____ _____    ______ ____
ROOT
ATOM      1  O   UNL     1      37.981   4.029  16.827  0.00  0.00    +0.000 OA
ENDROOT
BRANCH   1   2
ATOM      2  C   UNL     1      38.948   5.010  16.961  0.00  0.00    +0.000 C 
ATOM      3  O   UNL     1      39.904   5.042  16.146  0.00  0.00    +0.000 OA
BRANCH   2   7
ATOM      4  C   UNL     1      38.871   7.947  20.060  0.00  0.00    +0.000 A 
ATOM      5  C   UNL     1      39.741   6.875  20.085  0.00  0.00    +0.000 A 
ATOM      6  C   UNL     1      39.762   5.940  19.092  0.00  0.00    +0.000 A 
ATOM      7  C   UNL     1      38.911   6.019  18.012  0.00  0.00    +0.000 A 
ATOM      8  C   UNL     1      38.038   7.086  17.975  0.00  0.00    +0.000 A 
ATOM      9  C   UNL     1      38.020   8.027  18.979  0.00  0.00    +0.000 A 
BRANCH   4  10
ATOM     10  O   UNL     1      38.837   8.913  21.066  0.00  0.00    +0.000 OA
BRANCH  10  11
ATOM     11  C   UNL     1      39.478  10.147  20.884  0.00  0.00    +0.000 C 
BRANCH  11  12
ATOM     12  C   UNL     1      38.489  11.282  20.662  0.00  0.00    +0.000 C 
BRANCH  12  13
ATOM     13  C   UNL     1      38.583  12.312  21.775  0.00  0.00    +0.000 C 
BRANCH  13  15
ATOM     14  C   UNL     1      37.304  13.338  19.925  0.00  0.00    +0.000 C 
ATOM     15  C   UNL     1      37.938  13.578  21.300  0.00  0.00    +0.000 C 
ENDBRANCH  13  15
ENDBRANCH  12  13
ENDBRANCH  11  12
ENDBRANCH  10  11
ENDBRANCH   4  10
ENDBRANCH   2   7
ENDBRANCH   1   2
BRANCH   1  16
ATOM     16  C   UNL     1      37.024   4.034  15.784  0.00  0.00    +0.000 C 
BRANCH  16  17
ATOM     17  C   UNL     1      36.339   2.729  15.661  0.00  0.00    +0.000 C 
ATOM     18  O   UNL     1      35.427   2.585  14.833  0.00  0.00    +0.000 OA
ATOM     19  N   UNL     1      36.722   1.654  16.479  0.00  0.00    +0.000 NA
BRANCH  19  20
ATOM     20  C   UNL     1      36.122   0.362  16.433  0.00  0.00    +0.000 A 
ATOM     21  C   UNL     1      35.054  -0.013  17.196  0.00  0.00    +0.000 A 
ATOM     22  C   UNL     1      34.556  -1.295  17.065  0.00  0.00    +0.000 A 
ATOM     23  C   UNL     1      35.112  -2.196  16.185  0.00  0.00    +0.000 A 
ATOM     24  C   UNL     1      34.615  -3.479  16.052  0.00  0.00    +0.000 A 
ATOM     25  C   UNL     1      35.186  -4.379  15.161  0.00  0.00    +0.000 A 
ATOM     26  C   UNL     1      36.264  -4.019  14.381  0.00  0.00    +0.000 A 
ATOM     27  C   UNL     1      36.749  -2.736  14.525  0.00  0.00    +0.000 A 
ATOM     28  C   UNL     1      36.187  -1.839  15.409  0.00  0.00    +0.000 A 
ATOM     29  C   UNL     1      36.683  -0.544  15.547  0.00  0.00    +0.000 A 
ENDBRANCH  19  20
ENDBRANCH  16  17
ENDBRANCH   1  16
TORSDOF 10
ENDMDL
MODEL 10
REMARK VINA RESULT:      -6.7     24.116     26.713
REMARK  Name = 
REMARK  10 active torsions:
REMARK  status: ('A' for Active; 'I' for Inactive)
REMARK    1  A    between atoms: C_2  and  C_3
REMARK    2  A    between atoms: C_3  and  C_4
REMARK    3  A    between atoms: C_4  and  C_5
REMARK    4  A    between atoms: C_5  and  O_6
REMARK    5  A    between atoms: O_6  and  C_7
REMARK    6  A    between atoms: C_10  and  C_11
REMARK    7  A    between atoms: C_11  and  O_13
REMARK    8  A    between atoms: O_13  and  C_14
REMARK    9  A    between atoms: C_14  and  C_15
REMARK   10  A    between atoms: N_17  and  C_18
REMARK                            x       y       z     vdW  Elec       q    Type
REMARK                         _______ _______ _______ _____ _____    ______ ____
ROOT
ATOM      1  O   UNL     1      25.867  12.468  40.403  0.00  0.00    +0.000 OA
ENDROOT
BRANCH   1   2
ATOM      2  C   UNL     1      26.791  11.664  41.046  0.00  0.00    +0.000 C 
ATOM      3  O   UNL     1      26.395  10.857  41.923  0.00  0.00    +0.000 OA
BRANCH   2   7
ATOM      4  C   UNL     1      30.971  11.834  40.186  0.00  0.00    +0.000 A 
ATOM      5  C   UNL     1      30.218  12.971  40.402  0.00  0.00    +0.000 A 
ATOM      6  C   UNL     1      28.884  12.911  40.676  0.00  0.00    +0.000 A 
ATOM      7  C   UNL     1      28.218  11.708  40.752  0.00  0.00    +0.000 A 
ATOM      8  C   UNL     1      28.959  10.564  40.539  0.00  0.00    +0.000 A 
ATOM      9  C   UNL     1      30.306  10.629  40.262  0.00  0.00    +0.000 A 
BRANCH   4  10
ATOM     10  O   UNL     1      32.336  11.876  39.905  0.00  0.00    +0.000 OA
BRANCH  10  11
ATOM     11  C   UNL     1      32.787  11.825  38.577  0.00  0.00    +0.000 C 
BRANCH  11  12
ATOM     12  C   UNL     1      31.706  12.229  37.586  0.00  0.00    +0.000 C 
BRANCH  12  13
ATOM     13  C   UNL     1      32.254  13.186  36.541  0.00  0.00    +0.000 C 
BRANCH  13  15
ATOM     14  C   UNL     1      30.375  14.790  36.462  0.00  0.00    +0.000 C 
ATOM     15  C   UNL     1      31.112  13.678  35.707  0.00  0.00    +0.000 C 
ENDBRANCH  13  15
ENDBRANCH  12  13
ENDBRANCH  11  12
ENDBRANCH  10  11
ENDBRANCH   4  10
ENDBRANCH   2   7
ENDBRANCH   1   2
BRANCH   1  16
ATOM     16  C   UNL     1      25.914  13.882  40.454  0.00  0.00    +0.000 C 
BRANCH  16  17
ATOM     17  C   UNL     1      25.405  14.495  39.208  0.00  0.00    +0.000 C 
ATOM     18  O   UNL     1      24.202  14.405  38.922  0.00  0.00    +0.000 OA
ATOM     19  N   UNL     1      26.283  15.179  38.351  0.00  0.00    +0.000 NA
BRANCH  19  20
ATOM     20  C   UNL     1      25.886  15.799  37.132  0.00  0.00    +0.000 A 
ATOM     21  C   UNL     1      25.492  17.103  37.029  0.00  0.00    +0.000 A 
ATOM     22  C   UNL     1      25.129  17.596  35.791  0.00  0.00    +0.000 A 
ATOM     23  C   UNL     1      25.155  16.805  34.665  0.00  0.00    +0.000 A 
ATOM     24  C   UNL     1      24.792  17.296  33.426  0.00  0.00    +0.000 A 
ATOM     25  C   UNL     1      24.823  16.487  32.297  0.00  0.00    +0.000 A 
ATOM     26  C   UNL     1      25.218  15.169  32.380  0.00  0.00    +0.000 A 
ATOM     27  C   UNL     1      25.577  14.692  33.623  0.00  0.00    +0.000 A 
ATOM     28  C   UNL     1      25.548  15.491  34.746  0.00  0.00    +0.000 A 
ATOM     29  C   UNL     1      25.913  15.001  35.999  0.00  0.00    +0.000 A 
ENDBRANCH  19  20
ENDBRANCH  16  17
ENDBRANCH   1  16
TORSDOF 10
ENDMDL
