MODEL 1
REMARK VINA RESULT:      -5.9      0.000      0.000
REMARK  Name = 
REMARK  3 active torsions:
REMARK  status: ('A' for Active; 'I' for Inactive)
REMARK    1  A    between atoms: C_6  and  C_7
REMARK    2  A    between atoms: N_8  and  C_9
REMARK    3  A    between atoms: C_12  and  N_13
REMARK                            x       y       z     vdW  Elec       q    Type
REMARK                         _______ _______ _______ _____ _____    ______ ____
ROOT
ATOM      1  C   UNL     1      17.744   9.539  37.945  0.00  0.00    +0.000 A 
ATOM      2  C   UNL     1      18.256   8.997  36.786  0.00  0.00    +0.000 A 
ATOM      3  C   UNL     1      17.865   9.430  35.536  0.00  0.00    +0.000 A 
ATOM      4  C   UNL     1      16.924  10.447  35.393  0.00  0.00    +0.000 A 
ATOM      5  C   UNL     1      16.416  10.985  36.555  0.00  0.00    +0.000 A 
ATOM      6  C   UNL     1      16.812  10.547  37.803  0.00  0.00    +0.000 A 
ENDROOT
BRANCH   4   7
ATOM      7  N   UNL     1      16.505  10.911  34.122  0.00  0.00    +0.000 N 
ATOM      8  C   UNL     1      16.920  10.472  32.810  0.00  0.00    +0.000 C 
ATOM      9  C   UNL     1      15.662  10.565  31.972  0.00  0.00    +0.000 C 
ATOM     10  C   UNL     1      14.878  11.673  32.596  0.00  0.00    +0.000 C 
ATOM     11  C   UNL     1      15.536  11.962  33.919  0.00  0.00    +0.000 C 
ENDBRANCH   4   7
BRANCH   1  13
ATOM     12  C   UNL     1      19.226   9.434  39.806  0.00  0.00    +0.000 C 
ATOM     13  N   UNL     1      18.140   9.098  39.244  0.00  0.00    +0.000 NA
BRANCH  12  19
ATOM     14  O   UNL     1      23.330  10.122  37.328  0.00  0.00    +0.000 OA
ATOM     15  C   UNL     1      22.166  10.574  37.943  0.00  0.00    +0.000 A 
ATOM     16  C   UNL     1      21.933  11.936  37.895  0.00  0.00    +0.000 A 
ATOM     17  C   UNL     1      20.806  12.476  38.477  0.00  0.00    +0.000 A 
ATOM     18  C   UNL     1      19.926  11.652  39.099  0.00  0.00    +0.000 A 
ATOM     19  C   UNL     1      20.155  10.311  39.148  0.00  0.00    +0.000 A 
ATOM     20  C   UNL     1      21.278   9.715  38.575  0.00  0.00    +0.000 A 
ENDBRANCH  12  19
ENDBRANCH   1  13
TORSDOF 3
ENDMDL
MODEL 2
REMARK VINA RESULT:      -5.9     18.601     20.760
REMARK  Name = 
REMARK  3 active torsions:
REMARK  status: ('A' for Active; 'I' for Inactive)
REMARK    1  A    between atoms: C_6  and  C_7
REMARK    2  A    between atoms: N_8  and  C_9
REMARK    3  A    between atoms: C_12  and  N_13
REMARK                            x       y       z     vdW  Elec       q    Type
REMARK                         _______ _______ _______ _____ _____    ______ ____
ROOT
ATOM      1  C   UNL     1      26.956  22.990  25.822  0.00  0.00    +0.000 A 
ATOM      2  C   UNL     1      28.171  22.447  25.466  0.00  0.00    +0.000 A 
ATOM      3  C   UNL     1      29.246  22.419  26.330  0.00  0.00    +0.000 A 
ATOM      4  C   UNL     1      29.145  22.945  27.616  0.00  0.00    +0.000 A 
ATOM      5  C   UNL     1      27.927  23.486  27.965  0.00  0.00    +0.000 A 
ATOM      6  C   UNL     1      26.856  23.512  27.096  0.00  0.00    +0.000 A 
ENDROOT
BRANCH   4   7
ATOM      7  N   UNL     1      30.232  22.928  28.522  0.00  0.00    +0.000 N 
ATOM      8  C   UNL     1      30.238  23.189  29.944  0.00  0.00    +0.000 C 
ATOM      9  C   UNL     1      31.266  22.224  30.494  0.00  0.00    +0.000 C 
ATOM     10  C   UNL     1      32.241  22.039  29.377  0.00  0.00    +0.000 C 
ATOM     11  C   UNL     1      31.595  22.629  28.153  0.00  0.00    +0.000 C 
ENDBRANCH   4   7
BRANCH   1  13
ATOM     12  C   UNL     1      25.814  23.684  23.851  0.00  0.00    +0.000 C 
ATOM     13  N   UNL     1      25.838  23.026  24.936  0.00  0.00    +0.000 NA
BRANCH  12  19
ATOM     14  O   UNL     1      29.691  24.272  21.007  0.00  0.00    +0.000 OA
ATOM     15  C   UNL     1      28.824  24.680  22.018  0.00  0.00    +0.000 A 
ATOM     16  C   UNL     1      29.108  25.891  22.620  0.00  0.00    +0.000 A 
ATOM     17  C   UNL     1      28.306  26.378  23.631  0.00  0.00    +0.000 A 
ATOM     18  C   UNL     1      27.232  25.651  24.027  0.00  0.00    +0.000 A 
ATOM     19  C   UNL     1      26.951  24.458  23.434  0.00  0.00    +0.000 A 
ATOM     20  C   UNL     1      27.729  23.922  22.409  0.00  0.00    +0.000 A 
ENDBRANCH  12  19
ENDBRANCH   1  13
TORSDOF 3
ENDMDL
MODEL 3
REMARK VINA RESULT:      -5.9     19.469     21.782
REMARK  Name = 
REMARK  3 active torsions:
REMARK  status: ('A' for Active; 'I' for Inactive)
REMARK    1  A    between atoms: C_6  and  C_7
REMARK    2  A    between atoms: N_8  and  C_9
REMARK    3  A    between atoms: C_12  and  N_13
REMARK                            x       y       z     vdW  Elec       q    Type
REMARK                         _______ _______ _______ _____ _____    ______ ____
ROOT
ATOM      1  C   UNL     1      30.022  23.910  23.484  0.00  0.00    +0.000 A 
ATOM      2  C   UNL     1      29.884  22.691  24.112  0.00  0.00    +0.000 A 
ATOM      3  C   UNL     1      30.366  22.461  25.384  0.00  0.00    +0.000 A 
ATOM      4  C   UNL     1      31.019  23.465  26.095  0.00  0.00    +0.000 A 
ATOM      5  C   UNL     1      31.153  24.681  25.461  0.00  0.00    +0.000 A 
ATOM      6  C   UNL     1      30.669  24.905  24.188  0.00  0.00    +0.000 A 
ENDROOT
BRANCH   4   7
ATOM      7  N   UNL     1      31.523  23.256  27.401  0.00  0.00    +0.000 N 
ATOM      8  C   UNL     1      31.045  22.362  28.430  0.00  0.00    +0.000 C 
ATOM      9  C   UNL     1      32.305  21.879  29.118  0.00  0.00    +0.000 C 
ATOM     10  C   UNL     1      33.271  23.008  28.964  0.00  0.00    +0.000 C 
ATOM     11  C   UNL     1      32.667  23.945  27.952  0.00  0.00    +0.000 C 
ENDBRANCH   4   7
BRANCH   1  13
ATOM     12  C   UNL     1      28.319  24.432  21.903  0.00  0.00    +0.000 C 
ATOM     13  N   UNL     1      29.529  24.159  22.168  0.00  0.00    +0.000 NA
BRANCH  12  19
ATOM     14  O   UNL     1      25.975  26.978  25.293  0.00  0.00    +0.000 OA
ATOM     15  C   UNL     1      26.235  25.810  24.582  0.00  0.00    +0.000 A 
ATOM     16  C   UNL     1      25.491  24.698  24.932  0.00  0.00    +0.000 A 
ATOM     17  C   UNL     1      25.678  23.496  24.284  0.00  0.00    +0.000 A 
ATOM     18  C   UNL     1      26.603  23.417  23.295  0.00  0.00    +0.000 A 
ATOM     19  C   UNL     1      27.336  24.511  22.950  0.00  0.00    +0.000 A 
ATOM     20  C   UNL     1      27.186  25.749  23.574  0.00  0.00    +0.000 A 
ENDBRANCH  12  19
ENDBRANCH   1  13
TORSDOF 3
ENDMDL
MODEL 4
REMARK VINA RESULT:      -5.8     20.453     22.149
REMARK  Name = 
REMARK  3 active torsions:
REMARK  status: ('A' for Active; 'I' for Inactive)
REMARK    1  A    between atoms: C_6  and  C_7
REMARK    2  A    between atoms: N_8  and  C_9
REMARK    3  A    between atoms: C_12  and  N_13
REMARK                            x       y       z     vdW  Elec       q    Type
REMARK                         _______ _______ _______ _____ _____    ______ ____
ROOT
ATOM      1  C   UNL     1      16.429  -9.428  26.313  0.00  0.00    +0.000 A 
ATOM      2  C   UNL     1      16.978  -9.988  25.180  0.00  0.00    +0.000 A 
ATOM      3  C   UNL     1      16.437  -9.791  23.926  0.00  0.00    +0.000 A 
ATOM      4  C   UNL     1      15.299  -9.007  23.753  0.00  0.00    +0.000 A 
ATOM      5  C   UNL     1      14.756  -8.450  24.889  0.00  0.00    +0.000 A 
ATOM      6  C   UNL     1      15.302  -8.651  26.141  0.00  0.00    +0.000 A 
ENDROOT
BRANCH   4   7
ATOM      7  N   UNL     1      14.725  -8.787  22.478  0.00  0.00    +0.000 N 
ATOM      8  C   UNL     1      13.470  -8.156  22.139  0.00  0.00    +0.000 C 
ATOM      9  C   UNL     1      13.764  -7.411  20.854  0.00  0.00    +0.000 C 
ATOM     10  C   UNL     1      14.837  -8.214  20.194  0.00  0.00    +0.000 C 
ATOM     11  C   UNL     1      15.336  -9.184  21.230  0.00  0.00    +0.000 C 
ENDBRANCH   4   7
BRANCH   1  13
ATOM     12  C   UNL     1      17.944  -8.954  28.088  0.00  0.00    +0.000 C 
ATOM     13  N   UNL     1      16.978  -9.627  27.616  0.00  0.00    +0.000 NA
BRANCH  12  19
ATOM     14  O   UNL     1      18.112  -4.346  26.603  0.00  0.00    +0.000 OA
ATOM     15  C   UNL     1      18.586  -5.655  26.632  0.00  0.00    +0.000 A 
ATOM     16  C   UNL     1      19.706  -5.921  25.866  0.00  0.00    +0.000 A 
ATOM     17  C   UNL     1      20.248  -7.188  25.832  0.00  0.00    +0.000 A 
ATOM     18  C   UNL     1      19.666  -8.173  26.560  0.00  0.00    +0.000 A 
ATOM     19  C   UNL     1      18.563  -7.912  27.314  0.00  0.00    +0.000 A 
ATOM     20  C   UNL     1      17.977  -6.650  27.384  0.00  0.00    +0.000 A 
ENDBRANCH  12  19
ENDBRANCH   1  13
TORSDOF 3
ENDMDL
MODEL 5
REMARK VINA RESULT:      -5.8     18.615     20.417
REMARK  Name = 
REMARK  3 active torsions:
REMARK  status: ('A' for Active; 'I' for Inactive)
REMARK    1  A    between atoms: C_6  and  C_7
REMARK    2  A    between atoms: N_8  and  C_9
REMARK    3  A    between atoms: C_12  and  N_13
REMARK                            x       y       z     vdW  Elec       q    Type
REMARK                         _______ _______ _______ _____ _____    ______ ____
ROOT
ATOM      1  C   UNL     1      26.203  23.678  24.276  0.00  0.00    +0.000 A 
ATOM      2  C   UNL     1      25.453  24.718  24.781  0.00  0.00    +0.000 A 
ATOM      3  C   UNL     1      25.279  24.908  26.136  0.00  0.00    +0.000 A 
ATOM      4  C   UNL     1      25.863  24.046  27.061  0.00  0.00    +0.000 A 
ATOM      5  C   UNL     1      26.611  23.009  26.549  0.00  0.00    +0.000 A 
ATOM      6  C   UNL     1      26.781  22.824  25.192  0.00  0.00    +0.000 A 
ENDROOT
BRANCH   4   7
ATOM      7  N   UNL     1      25.701  24.219  28.457  0.00  0.00    +0.000 N 
ATOM      8  C   UNL     1      26.107  23.349  29.537  0.00  0.00    +0.000 C 
ATOM      9  C   UNL     1      26.530  24.298  30.639  0.00  0.00    +0.000 C 
ATOM     10  C   UNL     1      25.693  25.517  30.425  0.00  0.00    +0.000 C 
ATOM     11  C   UNL     1      25.065  25.364  29.066  0.00  0.00    +0.000 C 
ENDBRANCH   4   7
BRANCH   1  13
ATOM     12  C   UNL     1      27.432  23.810  22.240  0.00  0.00    +0.000 C 
ATOM     13  N   UNL     1      26.388  23.470  22.876  0.00  0.00    +0.000 NA
BRANCH  12  19
ATOM     14  O   UNL     1      31.743  23.553  24.434  0.00  0.00    +0.000 OA
ATOM     15  C   UNL     1      30.630  24.249  23.972  0.00  0.00    +0.000 A 
ATOM     16  C   UNL     1      30.621  25.614  24.194  0.00  0.00    +0.000 A 
ATOM     17  C   UNL     1      29.560  26.387  23.772  0.00  0.00    +0.000 A 
ATOM     18  C   UNL     1      28.523  25.790  23.134  0.00  0.00    +0.000 A 
ATOM     19  C   UNL     1      28.530  24.446  22.915  0.00  0.00    +0.000 A 
ATOM     20  C   UNL     1      29.577  23.621  23.321  0.00  0.00    +0.000 A 
ENDBRANCH  12  19
ENDBRANCH   1  13
TORSDOF 3
ENDMDL
MODEL 6
REMARK VINA RESULT:      -5.7     20.721     22.357
REMARK  Name = 
REMARK  3 active torsions:
REMARK  status: ('A' for Active; 'I' for Inactive)
REMARK    1  A    between atoms: C_6  and  C_7
REMARK    2  A    between atoms: N_8  and  C_9
REMARK    3  A    between atoms: C_12  and  N_13
REMARK                            x       y       z     vdW  Elec       q    Type
REMARK                         _______ _______ _______ _____ _____    ______ ____
ROOT
ATOM      1  C   UNL     1      24.826   1.327  17.690  0.00  0.00    +0.000 A 
ATOM      2  C   UNL     1      24.420   2.252  18.629  0.00  0.00    +0.000 A 
ATOM      3  C   UNL     1      24.915   3.540  18.653  0.00  0.00    +0.000 A 
ATOM      4  C   UNL     1      25.856   3.963  17.718  0.00  0.00    +0.000 A 
ATOM      5  C   UNL     1      26.257   3.033  16.783  0.00  0.00    +0.000 A 
ATOM      6  C   UNL     1      25.758   1.747  16.764  0.00  0.00    +0.000 A 
ENDROOT
BRANCH   4   7
ATOM      7  N   UNL     1      26.380   5.278  17.720  0.00  0.00    +0.000 N 
ATOM      8  C   UNL     1      27.248   5.912  18.685  0.00  0.00    +0.000 C 
ATOM      9  C   UNL     1      28.149   6.797  17.849  0.00  0.00    +0.000 C 
ATOM     10  C   UNL     1      27.315   7.168  16.666  0.00  0.00    +0.000 C 
ATOM     11  C   UNL     1      26.115   6.261  16.695  0.00  0.00    +0.000 C 
ENDBRANCH   4   7
BRANCH   1  13
ATOM     12  C   UNL     1      23.154  -0.316  17.270  0.00  0.00    +0.000 C 
ATOM     13  N   UNL     1      24.322  -0.008  17.657  0.00  0.00    +0.000 NA
BRANCH  12  19
ATOM     14  O   UNL     1      19.409   2.636  18.126  0.00  0.00    +0.000 OA
ATOM     15  C   UNL     1      20.408   2.108  17.311  0.00  0.00    +0.000 A 
ATOM     16  C   UNL     1      20.482   2.609  16.025  0.00  0.00    +0.000 A 
ATOM     17  C   UNL     1      21.438   2.146  15.146  0.00  0.00    +0.000 A 
ATOM     18  C   UNL     1      22.307   1.191  15.560  0.00  0.00    +0.000 A 
ATOM     19  C   UNL     1      22.235   0.697  16.827  0.00  0.00    +0.000 A 
ATOM     20  C   UNL     1      21.288   1.130  17.754  0.00  0.00    +0.000 A 
ENDBRANCH  12  19
ENDBRANCH   1  13
TORSDOF 3
ENDMDL
MODEL 7
REMARK VINA RESULT:      -5.7      2.593      6.096
REMARK  Name = 
REMARK  3 active torsions:
REMARK  status: ('A' for Active; 'I' for Inactive)
REMARK    1  A    between atoms: C_6  and  C_7
REMARK    2  A    between atoms: N_8  and  C_9
REMARK    3  A    between atoms: C_12  and  N_13
REMARK                            x       y       z     vdW  Elec       q    Type
REMARK                         _______ _______ _______ _____ _____    ______ ____
ROOT
ATOM      1  C   UNL     1      18.988  10.270  38.724  0.00  0.00    +0.000 A 
ATOM      2  C   UNL     1      19.726  11.356  39.144  0.00  0.00    +0.000 A 
ATOM      3  C   UNL     1      20.981  11.631  38.641  0.00  0.00    +0.000 A 
ATOM      4  C   UNL     1      21.561  10.812  37.676  0.00  0.00    +0.000 A 
ATOM      5  C   UNL     1      20.818   9.729  37.260  0.00  0.00    +0.000 A 
ATOM      6  C   UNL     1      19.563   9.459  37.767  0.00  0.00    +0.000 A 
ENDROOT
BRANCH   4   7
ATOM      7  N   UNL     1      22.846  11.072  37.143  0.00  0.00    +0.000 N 
ATOM      8  C   UNL     1      23.861  11.987  37.614  0.00  0.00    +0.000 C 
ATOM      9  C   UNL     1      25.165  11.266  37.343  0.00  0.00    +0.000 C 
ATOM     10  C   UNL     1      24.881  10.414  36.149  0.00  0.00    +0.000 C 
ATOM     11  C   UNL     1      23.387  10.426  35.969  0.00  0.00    +0.000 C 
ENDBRANCH   4   7
BRANCH   1  13
ATOM     12  C   UNL     1      16.608  10.256  38.638  0.00  0.00    +0.000 C 
ATOM     13  N   UNL     1      17.690   9.974  39.238  0.00  0.00    +0.000 NA
BRANCH  12  19
ATOM     14  O   UNL     1      16.814  10.045  33.803  0.00  0.00    +0.000 OA
ATOM     15  C   UNL     1      16.729  10.736  35.009  0.00  0.00    +0.000 A 
ATOM     16  C   UNL     1      16.661  12.114  34.925  0.00  0.00    +0.000 A 
ATOM     17  C   UNL     1      16.575  12.883  36.066  0.00  0.00    +0.000 A 
ATOM     18  C   UNL     1      16.559  12.269  37.275  0.00  0.00    +0.000 A 
ATOM     19  C   UNL     1      16.626  10.911  37.359  0.00  0.00    +0.000 A 
ATOM     20  C   UNL     1      16.713  10.089  36.237  0.00  0.00    +0.000 A 
ENDBRANCH  12  19
ENDBRANCH   1  13
TORSDOF 3
ENDMDL
MODEL 8
REMARK VINA RESULT:      -5.7     19.070     20.714
REMARK  Name = 
REMARK  3 active torsions:
REMARK  status: ('A' for Active; 'I' for Inactive)
REMARK    1  A    between atoms: C_6  and  C_7
REMARK    2  A    between atoms: N_8  and  C_9
REMARK    3  A    between atoms: C_12  and  N_13
REMARK                            x       y       z     vdW  Elec       q    Type
REMARK                         _______ _______ _______ _____ _____    ______ ____
ROOT
ATOM      1  C   UNL     1      26.770  24.198  23.549  0.00  0.00    +0.000 A 
ATOM      2  C   UNL     1      26.304  23.189  24.364  0.00  0.00    +0.000 A 
ATOM      3  C   UNL     1      25.716  23.443  25.586  0.00  0.00    +0.000 A 
ATOM      4  C   UNL     1      25.566  24.748  26.051  0.00  0.00    +0.000 A 
ATOM      5  C   UNL     1      26.034  25.751  25.231  0.00  0.00    +0.000 A 
ATOM      6  C   UNL     1      26.622  25.490  24.009  0.00  0.00    +0.000 A 
ENDROOT
BRANCH   4   7
ATOM      7  N   UNL     1      24.966  25.036  27.300  0.00  0.00    +0.000 N 
ATOM      8  C   UNL     1      25.396  24.660  28.627  0.00  0.00    +0.000 C 
ATOM      9  C   UNL     1      25.037  25.854  29.486  0.00  0.00    +0.000 C 
ATOM     10  C   UNL     1      23.846  26.454  28.814  0.00  0.00    +0.000 C 
ATOM     11  C   UNL     1      23.752  25.802  27.461  0.00  0.00    +0.000 C 
ENDBRANCH   4   7
BRANCH   1  13
ATOM     12  C   UNL     1      28.628  23.777  22.120  0.00  0.00    +0.000 C 
ATOM     13  N   UNL     1      27.382  23.947  22.284  0.00  0.00    +0.000 NA
BRANCH  12  19
ATOM     14  O   UNL     1      31.705  26.239  24.937  0.00  0.00    +0.000 OA
ATOM     15  C   UNL     1      31.017  25.086  24.569  0.00  0.00    +0.000 A 
ATOM     16  C   UNL     1      31.242  23.961  25.341  0.00  0.00    +0.000 A 
ATOM     17  C   UNL     1      30.605  22.773  25.053  0.00  0.00    +0.000 A 
ATOM     18  C   UNL     1      29.753  22.721  23.999  0.00  0.00    +0.000 A 
ATOM     19  C   UNL     1      29.531  23.827  23.238  0.00  0.00    +0.000 A 
ATOM     20  C   UNL     1      30.148  25.052  23.487  0.00  0.00    +0.000 A 
ENDBRANCH  12  19
ENDBRANCH   1  13
TORSDOF 3
ENDMDL
MODEL 9
REMARK VINA RESULT:      -5.4     20.551     22.227
REMARK  Name = 
REMARK  3 active torsions:
REMARK  status: ('A' for Active; 'I' for Inactive)
REMARK    1  A    between atoms: C_6  and  C_7
REMARK    2  A    between atoms: N_8  and  C_9
REMARK    3  A    between atoms: C_12  and  N_13
REMARK                            x       y       z     vdW  Elec       q    Type
REMARK                         _______ _______ _______ _____ _____    ______ ____
ROOT
ATOM      1  C   UNL     1      16.401  -9.452  26.303  0.00  0.00    +0.000 A 
ATOM      2  C   UNL     1      15.206  -8.764  26.293  0.00  0.00    +0.000 A 
ATOM      3  C   UNL     1      14.543  -8.460  25.122  0.00  0.00    +0.000 A 
ATOM      4  C   UNL     1      15.060  -8.841  23.886  0.00  0.00    +0.000 A 
ATOM      5  C   UNL     1      16.254  -9.529  23.904  0.00  0.00    +0.000 A 
ATOM      6  C   UNL     1      16.913  -9.830  25.078  0.00  0.00    +0.000 A 
ENDROOT
BRANCH   4   7
ATOM      7  N   UNL     1      14.399  -8.543  22.670  0.00  0.00    +0.000 N 
ATOM      8  C   UNL     1      14.897  -8.630  21.317  0.00  0.00    +0.000 C 
ATOM      9  C   UNL     1      13.700  -9.091  20.511  0.00  0.00    +0.000 C 
ATOM     10  C   UNL     1      12.520  -8.543  21.246  0.00  0.00    +0.000 C 
ATOM     11  C   UNL     1      13.036  -8.073  22.579  0.00  0.00    +0.000 C 
ENDBRANCH   4   7
BRANCH   1  13
ATOM     12  C   UNL     1      18.060  -9.087  27.972  0.00  0.00    +0.000 C 
ATOM     13  N   UNL     1      17.097  -9.770  27.507  0.00  0.00    +0.000 NA
BRANCH  12  19
ATOM     14  O   UNL     1      21.253  -6.885  25.070  0.00  0.00    +0.000 OA
ATOM     15  C   UNL     1      20.114  -6.900  25.871  0.00  0.00    +0.000 A 
ATOM     16  C   UNL     1      19.427  -5.706  25.987  0.00  0.00    +0.000 A 
ATOM     17  C   UNL     1      18.287  -5.624  26.758  0.00  0.00    +0.000 A 
ATOM     18  C   UNL     1      17.847  -6.732  27.403  0.00  0.00    +0.000 A 
ATOM     19  C   UNL     1      18.523  -7.909  27.290  0.00  0.00    +0.000 A 
ATOM     20  C   UNL     1      19.679  -8.045  26.523  0.00  0.00    +0.000 A 
ENDBRANCH  12  19
ENDBRANCH   1  13
TORSDOF 3
ENDMDL
MODEL 10
REMARK VINA RESULT:      -5.4     18.188     20.352
REMARK  Name = 
REMARK  3 active torsions:
REMARK  status: ('A' for Active; 'I' for Inactive)
REMARK    1  A    between atoms: C_6  and  C_7
REMARK    2  A    between atoms: N_8  and  C_9
REMARK    3  A    between atoms: C_12  and  N_13
REMARK                            x       y       z     vdW  Elec       q    Type
REMARK                         _______ _______ _______ _____ _____    ______ ____
ROOT
ATOM      1  C   UNL     1      26.449  23.048  25.889  0.00  0.00    +0.000 A 
ATOM      2  C   UNL     1      26.137  23.839  26.973  0.00  0.00    +0.000 A 
ATOM      3  C   UNL     1      26.934  23.894  28.097  0.00  0.00    +0.000 A 
ATOM      4  C   UNL     1      28.103  23.142  28.183  0.00  0.00    +0.000 A 
ATOM      5  C   UNL     1      28.410  22.354  27.096  0.00  0.00    +0.000 A 
ATOM      6  C   UNL     1      27.608  22.303  25.974  0.00  0.00    +0.000 A 
ENDROOT
BRANCH   4   7
ATOM      7  N   UNL     1      28.940  23.181  29.325  0.00  0.00    +0.000 N 
ATOM      8  C   UNL     1      28.575  23.171  30.723  0.00  0.00    +0.000 C 
ATOM      9  C   UNL     1      29.663  22.351  31.384  0.00  0.00    +0.000 C 
ATOM     10  C   UNL     1      30.871  22.577  30.535  0.00  0.00    +0.000 C 
ATOM     11  C   UNL     1      30.382  23.239  29.275  0.00  0.00    +0.000 C 
ENDBRANCH   4   7
BRANCH   1  13
ATOM     12  C   UNL     1      25.937  23.511  23.609  0.00  0.00    +0.000 C 
ATOM     13  N   UNL     1      25.631  22.981  24.721  0.00  0.00    +0.000 NA
BRANCH  12  19
ATOM     14  O   UNL     1      28.525  27.575  24.113  0.00  0.00    +0.000 OA
ATOM     15  C   UNL     1      28.371  26.245  23.728  0.00  0.00    +0.000 A 
ATOM     16  C   UNL     1      29.480  25.633  23.175  0.00  0.00    +0.000 A 
ATOM     17  C   UNL     1      29.423  24.318  22.764  0.00  0.00    +0.000 A 
ATOM     18  C   UNL     1      28.262  23.632  22.909  0.00  0.00    +0.000 A 
ATOM     19  C   UNL     1      27.169  24.234  23.454  0.00  0.00    +0.000 A 
ATOM     20  C   UNL     1      27.174  25.560  23.885  0.00  0.00    +0.000 A 
ENDBRANCH  12  19
ENDBRANCH   1  13
TORSDOF 3
ENDMDL
