MODEL 1
REMARK VINA RESULT:      -6.0      0.000      0.000
REMARK  Name = 
REMARK  3 active torsions:
REMARK  status: ('A' for Active; 'I' for Inactive)
REMARK    1  A    between atoms: C_2  and  N_3
REMARK    2  A    between atoms: C_12  and  C_13
REMARK    3  A    between atoms: C_15  and  C_16
REMARK                            x       y       z     vdW  Elec       q    Type
REMARK                         _______ _______ _______ _____ _____    ______ ____
ROOT
ATOM      1  N   UNL     1      31.433  23.698  25.357  0.00  0.00    +0.000 N 
ATOM      2  N   UNL     1      30.927  23.186  26.478  0.00  0.00    +0.000 NA
ATOM      3  C   UNL     1      29.612  22.894  26.253  0.00  0.00    +0.000 A 
ATOM      4  C   UNL     1      28.690  22.299  27.271  0.00  0.00    +0.000 C 
ATOM      5  C   UNL     1      29.355  23.252  24.955  0.00  0.00    +0.000 A 
ATOM      6  C   UNL     1      30.452  23.735  24.424  0.00  0.00    +0.000 A 
ATOM      7  O   UNL     1      30.454  24.165  23.125  0.00  0.00    +0.000 OA
ATOM      8  C   UNL     1      29.328  24.112  22.340  0.00  0.00    +0.000 C 
ATOM      9  N   UNL     1      29.394  24.575  20.999  0.00  0.00    +0.000 NA
ATOM     10  C   UNL     1      28.239  23.666  22.770  0.00  0.00    +0.000 C 
ATOM     11  C   UNL     1      27.968  23.106  24.231  0.00  0.00    +0.000 C 
ENDROOT
BRANCH  11  12
ATOM     12  C   UNL     1      27.289  24.438  24.812  0.00  0.00    +0.000 A 
ATOM     13  C   UNL     1      27.883  25.620  24.748  0.00  0.00    +0.000 A 
ATOM     14  C   UNL     1      27.313  26.771  25.244  0.00  0.00    +0.000 A 
ATOM     15  C   UNL     1      26.075  26.641  25.825  0.00  0.00    +0.000 A 
ATOM     16  C   UNL     1      25.457  25.411  25.891  0.00  0.00    +0.000 A 
ATOM     17  C   UNL     1      26.048  24.266  25.385  0.00  0.00    +0.000 A 
ENDBRANCH  11  12
BRANCH   1  19
ATOM     18  C   UNL     1      32.933  25.636  25.137  0.00  0.00    +0.000 C 
ATOM     19  C   UNL     1      32.807  24.125  25.226  0.00  0.00    +0.000 C 
ENDBRANCH   1  19
BRANCH  10  20
ATOM     20  C   UNL     1      27.001  23.583  21.978  0.00  0.00    +0.000 C 
ATOM     21  N   UNL     1      26.034  23.499  21.350  0.00  0.00    +0.000 NA
ENDBRANCH  10  20
TORSDOF 3
ENDMDL
MODEL 2
REMARK VINA RESULT:      -5.7      2.233      4.917
REMARK  Name = 
REMARK  3 active torsions:
REMARK  status: ('A' for Active; 'I' for Inactive)
REMARK    1  A    between atoms: C_2  and  N_3
REMARK    2  A    between atoms: C_12  and  C_13
REMARK    3  A    between atoms: C_15  and  C_16
REMARK                            x       y       z     vdW  Elec       q    Type
REMARK                         _______ _______ _______ _____ _____    ______ ____
ROOT
ATOM      1  N   UNL     1      25.938  25.432  26.344  0.00  0.00    +0.000 N 
ATOM      2  N   UNL     1      26.715  26.272  27.027  0.00  0.00    +0.000 NA
ATOM      3  C   UNL     1      27.817  26.540  26.268  0.00  0.00    +0.000 A 
ATOM      4  C   UNL     1      28.933  27.447  26.685  0.00  0.00    +0.000 C 
ATOM      5  C   UNL     1      27.666  25.828  25.105  0.00  0.00    +0.000 A 
ATOM      6  C   UNL     1      26.537  25.165  25.159  0.00  0.00    +0.000 A 
ATOM      7  O   UNL     1      26.156  24.373  24.110  0.00  0.00    +0.000 OA
ATOM      8  C   UNL     1      26.928  24.243  22.980  0.00  0.00    +0.000 C 
ATOM      9  N   UNL     1      26.477  23.404  21.926  0.00  0.00    +0.000 NA
ATOM     10  C   UNL     1      28.020  24.841  22.849  0.00  0.00    +0.000 C 
ATOM     11  C   UNL     1      28.687  25.815  23.910  0.00  0.00    +0.000 C 
ENDROOT
BRANCH  11  12
ATOM     12  C   UNL     1      29.710  24.742  24.523  0.00  0.00    +0.000 A 
ATOM     13  C   UNL     1      29.306  23.578  25.011  0.00  0.00    +0.000 A 
ATOM     14  C   UNL     1      30.172  22.650  25.541  0.00  0.00    +0.000 A 
ATOM     15  C   UNL     1      31.504  22.986  25.548  0.00  0.00    +0.000 A 
ATOM     16  C   UNL     1      31.924  24.196  25.041  0.00  0.00    +0.000 A 
ATOM     17  C   UNL     1      31.036  25.117  24.511  0.00  0.00    +0.000 A 
ENDBRANCH  11  12
BRANCH   1  19
ATOM     18  C   UNL     1      23.637  26.021  26.984  0.00  0.00    +0.000 C 
ATOM     19  C   UNL     1      24.680  24.927  26.842  0.00  0.00    +0.000 C 
ENDBRANCH   1  19
BRANCH  10  20
ATOM     20  C   UNL     1      28.888  24.741  21.666  0.00  0.00    +0.000 C 
ATOM     21  N   UNL     1      29.555  24.652  20.725  0.00  0.00    +0.000 NA
ENDBRANCH  10  20
TORSDOF 3
ENDMDL
MODEL 3
REMARK VINA RESULT:      -5.5      2.063      2.645
REMARK  Name = 
REMARK  3 active torsions:
REMARK  status: ('A' for Active; 'I' for Inactive)
REMARK    1  A    between atoms: C_2  and  N_3
REMARK    2  A    between atoms: C_12  and  C_13
REMARK    3  A    between atoms: C_15  and  C_16
REMARK                            x       y       z     vdW  Elec       q    Type
REMARK                         _______ _______ _______ _____ _____    ______ ____
ROOT
ATOM      1  N   UNL     1      30.252  22.858  28.243  0.00  0.00    +0.000 N 
ATOM      2  N   UNL     1      29.365  22.645  29.214  0.00  0.00    +0.000 NA
ATOM      3  C   UNL     1      28.123  22.601  28.650  0.00  0.00    +0.000 A 
ATOM      4  C   UNL     1      26.853  22.378  29.412  0.00  0.00    +0.000 C 
ATOM      5  C   UNL     1      28.304  22.794  27.305  0.00  0.00    +0.000 A 
ATOM      6  C   UNL     1      29.585  22.949  27.068  0.00  0.00    +0.000 A 
ATOM      7  O   UNL     1      30.025  23.158  25.790  0.00  0.00    +0.000 OA
ATOM      8  C   UNL     1      29.161  23.215  24.723  0.00  0.00    +0.000 C 
ATOM      9  N   UNL     1      29.681  23.437  23.420  0.00  0.00    +0.000 NA
ATOM     10  C   UNL     1      27.924  23.078  24.862  0.00  0.00    +0.000 C 
ATOM     11  C   UNL     1      27.158  22.825  26.230  0.00  0.00    +0.000 C 
ENDROOT
BRANCH  11  12
ATOM     12  C   UNL     1      26.697  24.344  26.462  0.00  0.00    +0.000 A 
ATOM     13  C   UNL     1      27.543  25.360  26.384  0.00  0.00    +0.000 A 
ATOM     14  C   UNL     1      27.161  26.667  26.584  0.00  0.00    +0.000 A 
ATOM     15  C   UNL     1      25.836  26.882  26.876  0.00  0.00    +0.000 A 
ATOM     16  C   UNL     1      24.956  25.825  26.957  0.00  0.00    +0.000 A 
ATOM     17  C   UNL     1      25.361  24.517  26.752  0.00  0.00    +0.000 A 
ENDBRANCH  11  12
BRANCH   1  19
ATOM     18  C   UNL     1      32.258  21.696  29.066  0.00  0.00    +0.000 C 
ATOM     19  C   UNL     1      31.674  22.965  28.471  0.00  0.00    +0.000 C 
ENDBRANCH   1  19
BRANCH  10  20
ATOM     20  C   UNL     1      26.950  23.129  23.760  0.00  0.00    +0.000 C 
ATOM     21  N   UNL     1      26.180  23.149  22.897  0.00  0.00    +0.000 NA
ENDBRANCH  10  20
TORSDOF 3
ENDMDL
MODEL 4
REMARK VINA RESULT:      -5.3      2.307      4.925
REMARK  Name = 
REMARK  3 active torsions:
REMARK  status: ('A' for Active; 'I' for Inactive)
REMARK    1  A    between atoms: C_2  and  N_3
REMARK    2  A    between atoms: C_12  and  C_13
REMARK    3  A    between atoms: C_15  and  C_16
REMARK                            x       y       z     vdW  Elec       q    Type
REMARK                         _______ _______ _______ _____ _____    ______ ____
ROOT
ATOM      1  N   UNL     1      26.082  24.710  26.463  0.00  0.00    +0.000 N 
ATOM      2  N   UNL     1      25.336  24.290  25.443  0.00  0.00    +0.000 NA
ATOM      3  C   UNL     1      26.169  23.758  24.501  0.00  0.00    +0.000 A 
ATOM      4  C   UNL     1      25.714  23.174  23.200  0.00  0.00    +0.000 C 
ATOM      5  C   UNL     1      27.440  23.876  25.001  0.00  0.00    +0.000 A 
ATOM      6  C   UNL     1      27.380  24.450  26.179  0.00  0.00    +0.000 A 
ATOM      7  O   UNL     1      28.527  24.681  26.888  0.00  0.00    +0.000 OA
ATOM      8  C   UNL     1      29.764  24.329  26.404  0.00  0.00    +0.000 C 
ATOM      9  N   UNL     1      30.918  24.597  27.190  0.00  0.00    +0.000 NA
ATOM     10  C   UNL     1      29.910  23.779  25.289  0.00  0.00    +0.000 C 
ATOM     11  C   UNL     1      28.749  23.401  24.273  0.00  0.00    +0.000 C 
ENDROOT
BRANCH  11  12
ATOM     12  C   UNL     1      28.927  24.674  23.314  0.00  0.00    +0.000 A 
ATOM     13  C   UNL     1      28.943  25.914  23.780  0.00  0.00    +0.000 A 
ATOM     14  C   UNL     1      29.092  27.015  22.967  0.00  0.00    +0.000 A 
ATOM     15  C   UNL     1      29.226  26.772  21.622  0.00  0.00    +0.000 A 
ATOM     16  C   UNL     1      29.210  25.482  21.138  0.00  0.00    +0.000 A 
ATOM     17  C   UNL     1      29.059  24.388  21.972  0.00  0.00    +0.000 A 
ENDBRANCH  11  12
BRANCH   1  19
ATOM     18  C   UNL     1      25.697  24.462  28.880  0.00  0.00    +0.000 C 
ATOM     19  C   UNL     1      25.536  25.333  27.647  0.00  0.00    +0.000 C 
ENDBRANCH   1  19
BRANCH  10  20
ATOM     20  C   UNL     1      31.206  23.380  24.719  0.00  0.00    +0.000 C 
ATOM     21  N   UNL     1      32.218  23.048  24.267  0.00  0.00    +0.000 NA
ENDBRANCH  10  20
TORSDOF 3
ENDMDL
MODEL 5
REMARK VINA RESULT:      -5.2     33.522     35.129
REMARK  Name = 
REMARK  3 active torsions:
REMARK  status: ('A' for Active; 'I' for Inactive)
REMARK    1  A    between atoms: C_2  and  N_3
REMARK    2  A    between atoms: C_12  and  C_13
REMARK    3  A    between atoms: C_15  and  C_16
REMARK                            x       y       z     vdW  Elec       q    Type
REMARK                         _______ _______ _______ _____ _____    ______ ____
ROOT
ATOM      1  N   UNL     1      20.299 -11.479  27.190  0.00  0.00    +0.000 N 
ATOM      2  N   UNL     1      20.345 -10.977  28.423  0.00  0.00    +0.000 NA
ATOM      3  C   UNL     1      19.326 -10.077  28.551  0.00  0.00    +0.000 A 
ATOM      4  C   UNL     1      19.038  -9.294  29.794  0.00  0.00    +0.000 C 
ATOM      5  C   UNL     1      18.671 -10.063  27.346  0.00  0.00    +0.000 A 
ATOM      6  C   UNL     1      19.261 -10.907  26.534  0.00  0.00    +0.000 A 
ATOM      7  O   UNL     1      18.790 -11.076  25.261  0.00  0.00    +0.000 OA
ATOM      8  C   UNL     1      17.702 -10.382  24.790  0.00  0.00    +0.000 C 
ATOM      9  N   UNL     1      17.263 -10.602  23.457  0.00  0.00    +0.000 NA
ATOM     10  C   UNL     1      17.082  -9.557  25.500  0.00  0.00    +0.000 C 
ATOM     11  C   UNL     1      17.420  -9.176  27.004  0.00  0.00    +0.000 C 
ENDROOT
BRANCH  11  12
ATOM     12  C   UNL     1      18.211  -7.820  26.674  0.00  0.00    +0.000 A 
ATOM     13  C   UNL     1      19.323  -7.807  25.955  0.00  0.00    +0.000 A 
ATOM     14  C   UNL     1      20.012  -6.651  25.667  0.00  0.00    +0.000 A 
ATOM     15  C   UNL     1      19.490  -5.483  26.168  0.00  0.00    +0.000 A 
ATOM     16  C   UNL     1      18.333  -5.497  26.916  0.00  0.00    +0.000 A 
ATOM     17  C   UNL     1      17.654  -6.672  27.194  0.00  0.00    +0.000 A 
ENDBRANCH  11  12
BRANCH   1  19
ATOM     18  C   UNL     1      22.601 -11.876  26.418  0.00  0.00    +0.000 C 
ATOM     19  C   UNL     1      21.230 -12.467  26.696  0.00  0.00    +0.000 C 
ENDBRANCH   1  19
BRANCH  10  20
ATOM     20  C   UNL     1      15.913  -8.785  25.052  0.00  0.00    +0.000 C 
ATOM     21  N   UNL     1      14.981  -8.194  24.705  0.00  0.00    +0.000 NA
ENDBRANCH  10  20
TORSDOF 3
ENDMDL
MODEL 6
REMARK VINA RESULT:      -5.2      2.833      5.037
REMARK  Name = 
REMARK  3 active torsions:
REMARK  status: ('A' for Active; 'I' for Inactive)
REMARK    1  A    between atoms: C_2  and  N_3
REMARK    2  A    between atoms: C_12  and  C_13
REMARK    3  A    between atoms: C_15  and  C_16
REMARK                            x       y       z     vdW  Elec       q    Type
REMARK                         _______ _______ _______ _____ _____    ______ ____
ROOT
ATOM      1  N   UNL     1      26.463  28.125  21.779  0.00  0.00    +0.000 N 
ATOM      2  N   UNL     1      26.036  28.601  22.947  0.00  0.00    +0.000 NA
ATOM      3  C   UNL     1      26.692  27.933  23.941  0.00  0.00    +0.000 A 
ATOM      4  C   UNL     1      26.490  28.180  25.404  0.00  0.00    +0.000 C 
ATOM      5  C   UNL     1      27.527  27.041  23.319  0.00  0.00    +0.000 A 
ATOM      6  C   UNL     1      27.384  27.161  22.021  0.00  0.00    +0.000 A 
ATOM      7  O   UNL     1      28.115  26.374  21.175  0.00  0.00    +0.000 OA
ATOM      8  C   UNL     1      29.011  25.442  21.641  0.00  0.00    +0.000 C 
ATOM      9  N   UNL     1      29.739  24.654  20.710  0.00  0.00    +0.000 NA
ATOM     10  C   UNL     1      29.208  25.263  22.865  0.00  0.00    +0.000 C 
ATOM     11  C   UNL     1      28.494  26.041  24.051  0.00  0.00    +0.000 C 
ENDROOT
BRANCH  11  12
ATOM     12  C   UNL     1      27.407  24.908  24.382  0.00  0.00    +0.000 A 
ATOM     13  C   UNL     1      26.657  24.351  23.443  0.00  0.00    +0.000 A 
ATOM     14  C   UNL     1      25.720  23.380  23.714  0.00  0.00    +0.000 A 
ATOM     15  C   UNL     1      25.589  23.003  25.029  0.00  0.00    +0.000 A 
ATOM     16  C   UNL     1      26.370  23.582  26.005  0.00  0.00    +0.000 A 
ATOM     17  C   UNL     1      27.307  24.558  25.711  0.00  0.00    +0.000 A 
ENDBRANCH  11  12
BRANCH   1  19
ATOM     18  C   UNL     1      27.002  29.476  19.795  0.00  0.00    +0.000 C 
ATOM     19  C   UNL     1      25.984  28.599  20.501  0.00  0.00    +0.000 C 
ENDBRANCH   1  19
BRANCH  10  20
ATOM     20  C   UNL     1      30.152  24.283  23.423  0.00  0.00    +0.000 C 
ATOM     21  N   UNL     1      30.878  23.498  23.866  0.00  0.00    +0.000 NA
ENDBRANCH  10  20
TORSDOF 3
ENDMDL
MODEL 7
REMARK VINA RESULT:      -5.1      3.516      6.466
REMARK  Name = 
REMARK  3 active torsions:
REMARK  status: ('A' for Active; 'I' for Inactive)
REMARK    1  A    between atoms: C_2  and  N_3
REMARK    2  A    between atoms: C_12  and  C_13
REMARK    3  A    between atoms: C_15  and  C_16
REMARK                            x       y       z     vdW  Elec       q    Type
REMARK                         _______ _______ _______ _____ _____    ______ ____
ROOT
ATOM      1  N   UNL     1      25.271  26.244  25.910  0.00  0.00    +0.000 N 
ATOM      2  N   UNL     1      25.598  25.586  24.799  0.00  0.00    +0.000 NA
ATOM      3  C   UNL     1      26.056  24.351  25.159  0.00  0.00    +0.000 A 
ATOM      4  C   UNL     1      26.523  23.306  24.194  0.00  0.00    +0.000 C 
ATOM      5  C   UNL     1      25.988  24.299  26.528  0.00  0.00    +0.000 A 
ATOM      6  C   UNL     1      25.516  25.439  26.972  0.00  0.00    +0.000 A 
ATOM      7  O   UNL     1      25.352  25.637  28.315  0.00  0.00    +0.000 OA
ATOM      8  C   UNL     1      25.670  24.668  29.237  0.00  0.00    +0.000 C 
ATOM      9  N   UNL     1      25.478  24.936  30.619  0.00  0.00    +0.000 NA
ATOM     10  C   UNL     1      26.126  23.553  28.897  0.00  0.00    +0.000 C 
ATOM     11  C   UNL     1      26.409  23.070  27.411  0.00  0.00    +0.000 C 
ENDROOT
BRANCH  11  12
ATOM     12  C   UNL     1      27.988  23.357  27.426  0.00  0.00    +0.000 A 
ATOM     13  C   UNL     1      28.490  24.530  27.781  0.00  0.00    +0.000 A 
ATOM     14  C   UNL     1      29.842  24.790  27.796  0.00  0.00    +0.000 A 
ATOM     15  C   UNL     1      30.669  23.761  27.416  0.00  0.00    +0.000 A 
ATOM     16  C   UNL     1      30.146  22.541  27.047  0.00  0.00    +0.000 A 
ATOM     17  C   UNL     1      28.783  22.300  27.040  0.00  0.00    +0.000 A 
ENDBRANCH  11  12
BRANCH   1  19
ATOM     18  C   UNL     1      23.443  27.702  25.145  0.00  0.00    +0.000 C 
ATOM     19  C   UNL     1      24.747  27.590  25.915  0.00  0.00    +0.000 C 
ENDBRANCH   1  19
BRANCH  10  20
ATOM     20  C   UNL     1      26.484  22.477  29.836  0.00  0.00    +0.000 C 
ATOM     21  N   UNL     1      26.767  21.619  30.557  0.00  0.00    +0.000 NA
ENDBRANCH  10  20
TORSDOF 3
ENDMDL
MODEL 8
REMARK VINA RESULT:      -5.0      2.874      5.626
REMARK  Name = 
REMARK  3 active torsions:
REMARK  status: ('A' for Active; 'I' for Inactive)
REMARK    1  A    between atoms: C_2  and  N_3
REMARK    2  A    between atoms: C_12  and  C_13
REMARK    3  A    between atoms: C_15  and  C_16
REMARK                            x       y       z     vdW  Elec       q    Type
REMARK                         _______ _______ _______ _____ _____    ______ ____
ROOT
ATOM      1  N   UNL     1      27.564  23.563  24.195  0.00  0.00    +0.000 N 
ATOM      2  N   UNL     1      28.731  23.203  23.661  0.00  0.00    +0.000 NA
ATOM      3  C   UNL     1      29.549  22.793  24.674  0.00  0.00    +0.000 A 
ATOM      4  C   UNL     1      30.953  22.308  24.485  0.00  0.00    +0.000 C 
ATOM      5  C   UNL     1      28.825  22.921  25.831  0.00  0.00    +0.000 A 
ATOM      6  C   UNL     1      27.634  23.385  25.536  0.00  0.00    +0.000 A 
ATOM      7  O   UNL     1      26.717  23.601  26.527  0.00  0.00    +0.000 OA
ATOM      8  C   UNL     1      27.001  23.348  27.848  0.00  0.00    +0.000 C 
ATOM      9  N   UNL     1      26.005  23.594  28.831  0.00  0.00    +0.000 NA
ATOM     10  C   UNL     1      28.113  22.905  28.215  0.00  0.00    +0.000 C 
ATOM     11  C   UNL     1      29.345  22.569  27.271  0.00  0.00    +0.000 C 
ENDROOT
BRANCH  11  12
ATOM     12  C   UNL     1      30.153  23.929  27.538  0.00  0.00    +0.000 A 
ATOM     13  C   UNL     1      29.589  25.122  27.420  0.00  0.00    +0.000 A 
ATOM     14  C   UNL     1      30.271  26.296  27.644  0.00  0.00    +0.000 A 
ATOM     15  C   UNL     1      31.592  26.180  28.001  0.00  0.00    +0.000 A 
ATOM     16  C   UNL     1      32.179  24.939  28.124  0.00  0.00    +0.000 A 
ATOM     17  C   UNL     1      31.475  23.770  27.894  0.00  0.00    +0.000 A 
ENDBRANCH  11  12
BRANCH   1  19
ATOM     18  C   UNL     1      25.305  23.058  23.362  0.00  0.00    +0.000 C 
ATOM     19  C   UNL     1      26.450  24.054  23.417  0.00  0.00    +0.000 C 
ENDBRANCH   1  19
BRANCH  10  20
ATOM     20  C   UNL     1      28.475  22.615  29.611  0.00  0.00    +0.000 C 
ATOM     21  N   UNL     1      28.762  22.408  30.713  0.00  0.00    +0.000 NA
ENDBRANCH  10  20
TORSDOF 3
ENDMDL
MODEL 9
REMARK VINA RESULT:      -4.9     23.185     24.981
REMARK  Name = 
REMARK  3 active torsions:
REMARK  status: ('A' for Active; 'I' for Inactive)
REMARK    1  A    between atoms: C_2  and  N_3
REMARK    2  A    between atoms: C_12  and  C_13
REMARK    3  A    between atoms: C_15  and  C_16
REMARK                            x       y       z     vdW  Elec       q    Type
REMARK                         _______ _______ _______ _____ _____    ______ ____
ROOT
ATOM      1  N   UNL     1      23.341  -0.317  14.373  0.00  0.00    +0.000 N 
ATOM      2  N   UNL     1      24.242  -0.865  15.188  0.00  0.00    +0.000 NA
ATOM      3  C   UNL     1      24.024  -0.378  16.445  0.00  0.00    +0.000 A 
ATOM      4  C   UNL     1      24.830  -0.753  17.650  0.00  0.00    +0.000 C 
ATOM      5  C   UNL     1      22.959   0.479  16.347  0.00  0.00    +0.000 A 
ATOM      6  C   UNL     1      22.555   0.511  15.100  0.00  0.00    +0.000 A 
ATOM      7  O   UNL     1      21.496   1.300  14.742  0.00  0.00    +0.000 OA
ATOM      8  C   UNL     1      20.826   2.076  15.657  0.00  0.00    +0.000 C 
ATOM      9  N   UNL     1      19.734   2.874  15.222  0.00  0.00    +0.000 NA
ATOM     10  C   UNL     1      21.148   2.104  16.867  0.00  0.00    +0.000 C 
ATOM     11  C   UNL     1      22.332   1.288  17.540  0.00  0.00    +0.000 C 
ENDROOT
BRANCH  11  12
ATOM     12  C   UNL     1      23.394   2.490  17.556  0.00  0.00    +0.000 A 
ATOM     13  C   UNL     1      23.630   3.239  16.489  0.00  0.00    +0.000 A 
ATOM     14  C   UNL     1      24.540   4.272  16.489  0.00  0.00    +0.000 A 
ATOM     15  C   UNL     1      25.211   4.500  17.665  0.00  0.00    +0.000 A 
ATOM     16  C   UNL     1      24.966   3.720  18.774  0.00  0.00    +0.000 A 
ATOM     17  C   UNL     1      24.045   2.686  18.754  0.00  0.00    +0.000 A 
ENDBRANCH  11  12
BRANCH   1  19
ATOM     18  C   UNL     1      23.996   0.439  12.125  0.00  0.00    +0.000 C 
ATOM     19  C   UNL     1      23.270  -0.602  12.958  0.00  0.00    +0.000 C 
ENDBRANCH   1  19
BRANCH  10  20
ATOM     20  C   UNL     1      20.470   2.914  17.892  0.00  0.00    +0.000 C 
ATOM     21  N   UNL     1      19.939   3.568  18.685  0.00  0.00    +0.000 NA
ENDBRANCH  10  20
TORSDOF 3
ENDMDL
MODEL 10
REMARK VINA RESULT:      -4.8     20.800     22.422
REMARK  Name = 
REMARK  3 active torsions:
REMARK  status: ('A' for Active; 'I' for Inactive)
REMARK    1  A    between atoms: C_2  and  N_3
REMARK    2  A    between atoms: C_12  and  C_13
REMARK    3  A    between atoms: C_15  and  C_16
REMARK                            x       y       z     vdW  Elec       q    Type
REMARK                         _______ _______ _______ _____ _____    ______ ____
ROOT
ATOM      1  N   UNL     1      25.438   1.232  17.248  0.00  0.00    +0.000 N 
ATOM      2  N   UNL     1      24.556   1.782  18.082  0.00  0.00    +0.000 NA
ATOM      3  C   UNL     1      24.369   3.080  17.702  0.00  0.00    +0.000 A 
ATOM      4  C   UNL     1      23.449   4.040  18.390  0.00  0.00    +0.000 C 
ATOM      5  C   UNL     1      25.173   3.281  16.610  0.00  0.00    +0.000 A 
ATOM      6  C   UNL     1      25.812   2.168  16.343  0.00  0.00    +0.000 A 
ATOM      7  O   UNL     1      26.682   2.112  15.289  0.00  0.00    +0.000 OA
ATOM      8  C   UNL     1      26.918   3.199  14.482  0.00  0.00    +0.000 C 
ATOM      9  N   UNL     1      27.834   3.077  13.404  0.00  0.00    +0.000 NA
ATOM     10  C   UNL     1      26.350   4.300  14.668  0.00  0.00    +0.000 C 
ATOM     11  C   UNL     1      25.301   4.630  15.814  0.00  0.00    +0.000 C 
ENDROOT
BRANCH  11  12
ATOM     12  C   UNL     1      26.335   5.356  16.802  0.00  0.00    +0.000 A 
ATOM     13  C   UNL     1      27.460   4.779  17.197  0.00  0.00    +0.000 A 
ATOM     14  C   UNL     1      28.355   5.390  18.046  0.00  0.00    +0.000 A 
ATOM     15  C   UNL     1      28.027   6.651  18.480  0.00  0.00    +0.000 A 
ATOM     16  C   UNL     1      26.857   7.251  18.069  0.00  0.00    +0.000 A 
ATOM     17  C   UNL     1      25.970   6.620  17.214  0.00  0.00    +0.000 A 
ENDBRANCH  11  12
BRANCH   1  19
ATOM     18  C   UNL     1      25.227  -1.031  16.306  0.00  0.00    +0.000 C 
ATOM     19  C   UNL     1      25.880  -0.140  17.347  0.00  0.00    +0.000 C 
ENDBRANCH   1  19
BRANCH  10  20
ATOM     20  C   UNL     1      26.561   5.497  13.840  0.00  0.00    +0.000 C 
ATOM     21  N   UNL     1      26.747   6.441  13.198  0.00  0.00    +0.000 NA
ENDBRANCH  10  20
TORSDOF 3
ENDMDL
