MODEL 1
REMARK VINA RESULT:      -6.1      0.000      0.000
REMARK  Name = 
REMARK  2 active torsions:
REMARK  status: ('A' for Active; 'I' for Inactive)
REMARK    1  A    between atoms: C_10  and  C_11
REMARK    2  A    between atoms: N_13  and  C_14
REMARK                            x       y       z     vdW  Elec       q    Type
REMARK                         _______ _______ _______ _____ _____    ______ ____
ROOT
ATOM      1  C   UNL     1      33.822  21.749  30.209  0.00  0.00    +0.000 C 
ATOM      2  C   UNL     1      32.348  21.556  29.459  0.00  0.00    +0.000 C 
ATOM      3  C   UNL     1      32.529  22.979  28.609  0.00  0.00    +0.000 C 
ATOM      4  C   UNL     1      31.318  23.078  27.774  0.00  0.00    +0.000 C 
ATOM      5  C   UNL     1      30.085  22.959  28.669  0.00  0.00    +0.000 A 
ATOM      6  C   UNL     1      30.242  22.618  29.974  0.00  0.00    +0.000 A 
ATOM      7  S   UNL     1      28.655  22.604  30.575  0.00  0.00    +0.000 S 
ATOM      8  C   UNL     1      27.818  23.031  29.157  0.00  0.00    +0.000 A 
ATOM      9  N   UNL     1      26.383  23.198  28.983  0.00  0.00    +0.000 NA
ATOM     10  C   UNL     1      28.809  23.179  28.226  0.00  0.00    +0.000 A 
ATOM     11  C   UNL     1      31.545  22.339  30.658  0.00  0.00    +0.000 C 
ENDROOT
BRANCH  10  12
ATOM     12  C   UNL     1      28.441  23.560  26.832  0.00  0.00    +0.000 C 
ATOM     13  O   UNL     1      28.315  24.763  26.558  0.00  0.00    +0.000 OA
ATOM     14  N   UNL     1      28.238  22.574  25.834  0.00  0.00    +0.000 NA
BRANCH  14  15
ATOM     15  C   UNL     1      27.890  23.030  24.536  0.00  0.00    +0.000 A 
ATOM     16  C   UNL     1      26.571  23.227  24.217  0.00  0.00    +0.000 A 
ATOM     17  C   UNL     1      26.235  23.667  22.965  0.00  0.00    +0.000 A 
ATOM     18  C   UNL     1      27.192  23.916  22.020  0.00  0.00    +0.000 A 
ATOM     19  C   UNL     1      28.527  23.728  22.308  0.00  0.00    +0.000 A 
ATOM     20  C   UNL     1      28.845  23.285  23.575  0.00  0.00    +0.000 A 
ENDBRANCH  14  15
ENDBRANCH  10  12
TORSDOF 2
ENDMDL
MODEL 2
REMARK VINA RESULT:      -6.0     27.314     29.050
REMARK  Name = 
REMARK  2 active torsions:
REMARK  status: ('A' for Active; 'I' for Inactive)
REMARK    1  A    between atoms: C_10  and  C_11
REMARK    2  A    between atoms: N_13  and  C_14
REMARK                            x       y       z     vdW  Elec       q    Type
REMARK                         _______ _______ _______ _____ _____    ______ ____
ROOT
ATOM      1  C   UNL     1      33.925   0.379  35.607  0.00  0.00    +0.000 C 
ATOM      2  C   UNL     1      34.627  -0.971  34.931  0.00  0.00    +0.000 C 
ATOM      3  C   UNL     1      33.189  -1.437  34.227  0.00  0.00    +0.000 C 
ATOM      4  C   UNL     1      33.513  -2.667  33.482  0.00  0.00    +0.000 C 
ATOM      5  C   UNL     1      34.174  -3.665  34.432  0.00  0.00    +0.000 A 
ATOM      6  C   UNL     1      34.520  -3.263  35.681  0.00  0.00    +0.000 A 
ATOM      7  S   UNL     1      35.202  -4.655  36.373  0.00  0.00    +0.000 S 
ATOM      8  C   UNL     1      35.036  -5.725  35.061  0.00  0.00    +0.000 A 
ATOM      9  N   UNL     1      35.434  -7.123  34.993  0.00  0.00    +0.000 NA
ATOM     10  C   UNL     1      34.441  -4.964  34.092  0.00  0.00    +0.000 A 
ATOM     11  C   UNL     1      34.314  -1.894  36.252  0.00  0.00    +0.000 C 
ENDROOT
BRANCH  10  12
ATOM     12  C   UNL     1      34.134  -5.584  32.771  0.00  0.00    +0.000 C 
ATOM     13  O   UNL     1      33.040  -6.146  32.619  0.00  0.00    +0.000 OA
ATOM     14  N   UNL     1      35.068  -5.535  31.707  0.00  0.00    +0.000 NA
BRANCH  14  15
ATOM     15  C   UNL     1      34.689  -6.152  30.486  0.00  0.00    +0.000 A 
ATOM     16  C   UNL     1      33.952  -5.446  29.569  0.00  0.00    +0.000 A 
ATOM     17  C   UNL     1      33.586  -6.040  28.391  0.00  0.00    +0.000 A 
ATOM     18  C   UNL     1      33.942  -7.330  28.108  0.00  0.00    +0.000 A 
ATOM     19  C   UNL     1      34.682  -8.068  29.008  0.00  0.00    +0.000 A 
ATOM     20  C   UNL     1      35.040  -7.451  30.188  0.00  0.00    +0.000 A 
ENDBRANCH  14  15
ENDBRANCH  10  12
TORSDOF 2
ENDMDL
MODEL 3
REMARK VINA RESULT:      -5.8     14.840     18.153
REMARK  Name = 
REMARK  2 active torsions:
REMARK  status: ('A' for Active; 'I' for Inactive)
REMARK    1  A    between atoms: C_10  and  C_11
REMARK    2  A    between atoms: N_13  and  C_14
REMARK                            x       y       z     vdW  Elec       q    Type
REMARK                         _______ _______ _______ _____ _____    ______ ____
ROOT
ATOM      1  C   UNL     1      32.783  20.229   4.599  0.00  0.00    +0.000 C 
ATOM      2  C   UNL     1      32.117  20.058   6.116  0.00  0.00    +0.000 C 
ATOM      3  C   UNL     1      31.792  21.691   6.220  0.00  0.00    +0.000 C 
ATOM      4  C   UNL     1      31.127  21.862   7.524  0.00  0.00    +0.000 C 
ATOM      5  C   UNL     1      32.011  21.262   8.616  0.00  0.00    +0.000 A 
ATOM      6  C   UNL     1      33.108  20.544   8.262  0.00  0.00    +0.000 A 
ATOM      7  S   UNL     1      33.778  20.081   9.752  0.00  0.00    +0.000 S 
ATOM      8  C   UNL     1      32.652  20.808  10.799  0.00  0.00    +0.000 A 
ATOM      9  N   UNL     1      32.646  20.792  12.254  0.00  0.00    +0.000 NA
ATOM     10  C   UNL     1      31.760  21.408   9.954  0.00  0.00    +0.000 A 
ATOM     11  C   UNL     1      33.563  20.268   6.863  0.00  0.00    +0.000 C 
ENDROOT
BRANCH  10  12
ATOM     12  C   UNL     1      30.608  22.159  10.531  0.00  0.00    +0.000 C 
ATOM     13  O   UNL     1      30.502  23.369  10.280  0.00  0.00    +0.000 OA
ATOM     14  N   UNL     1      29.649  21.511  11.348  0.00  0.00    +0.000 NA
BRANCH  14  15
ATOM     15  C   UNL     1      28.587  22.306  11.853  0.00  0.00    +0.000 A 
ATOM     16  C   UNL     1      28.780  23.057  12.985  0.00  0.00    +0.000 A 
ATOM     17  C   UNL     1      27.756  23.824  13.473  0.00  0.00    +0.000 A 
ATOM     18  C   UNL     1      26.539  23.858  12.851  0.00  0.00    +0.000 A 
ATOM     19  C   UNL     1      26.311  23.116  11.712  0.00  0.00    +0.000 A 
ATOM     20  C   UNL     1      27.356  22.350  11.237  0.00  0.00    +0.000 A 
ENDBRANCH  14  15
ENDBRANCH  10  12
TORSDOF 2
ENDMDL
MODEL 4
REMARK VINA RESULT:      -5.8      3.223      4.371
REMARK  Name = 
REMARK  2 active torsions:
REMARK  status: ('A' for Active; 'I' for Inactive)
REMARK    1  A    between atoms: C_10  and  C_11
REMARK    2  A    between atoms: N_13  and  C_14
REMARK                            x       y       z     vdW  Elec       q    Type
REMARK                         _______ _______ _______ _____ _____    ______ ____
ROOT
ATOM      1  C   UNL     1      31.724  22.535  29.746  0.00  0.00    +0.000 C 
ATOM      2  C   UNL     1      30.875  23.349  28.567  0.00  0.00    +0.000 C 
ATOM      3  C   UNL     1      29.432  22.674  29.058  0.00  0.00    +0.000 C 
ATOM      4  C   UNL     1      28.415  23.262  28.167  0.00  0.00    +0.000 C 
ATOM      5  C   UNL     1      28.830  23.028  26.716  0.00  0.00    +0.000 A 
ATOM      6  C   UNL     1      30.061  22.521  26.450  0.00  0.00    +0.000 A 
ATOM      7  S   UNL     1      30.096  22.426  24.756  0.00  0.00    +0.000 S 
ATOM      8  C   UNL     1      28.544  23.033  24.413  0.00  0.00    +0.000 A 
ATOM      9  N   UNL     1      27.925  23.219  23.109  0.00  0.00    +0.000 NA
ATOM     10  C   UNL     1      28.019  23.302  25.647  0.00  0.00    +0.000 A 
ATOM     11  C   UNL     1      31.096  22.150  27.467  0.00  0.00    +0.000 C 
ENDROOT
BRANCH  10  12
ATOM     12  C   UNL     1      26.640  23.861  25.741  0.00  0.00    +0.000 C 
ATOM     13  O   UNL     1      25.678  23.110  25.518  0.00  0.00    +0.000 OA
ATOM     14  N   UNL     1      26.423  25.220  26.079  0.00  0.00    +0.000 NA
BRANCH  14  15
ATOM     15  C   UNL     1      25.076  25.662  26.145  0.00  0.00    +0.000 A 
ATOM     16  C   UNL     1      24.389  25.573  27.329  0.00  0.00    +0.000 A 
ATOM     17  C   UNL     1      23.090  25.999  27.393  0.00  0.00    +0.000 A 
ATOM     18  C   UNL     1      22.459  26.515  26.295  0.00  0.00    +0.000 A 
ATOM     19  C   UNL     1      23.119  26.619  25.090  0.00  0.00    +0.000 A 
ATOM     20  C   UNL     1      24.428  26.183  25.046  0.00  0.00    +0.000 A 
ENDBRANCH  14  15
ENDBRANCH  10  12
TORSDOF 2
ENDMDL
MODEL 5
REMARK VINA RESULT:      -5.3      3.252      4.663
REMARK  Name = 
REMARK  2 active torsions:
REMARK  status: ('A' for Active; 'I' for Inactive)
REMARK    1  A    between atoms: C_10  and  C_11
REMARK    2  A    between atoms: N_13  and  C_14
REMARK                            x       y       z     vdW  Elec       q    Type
REMARK                         _______ _______ _______ _____ _____    ______ ____
ROOT
ATOM      1  C   UNL     1      26.332  23.053  30.050  0.00  0.00    +0.000 C 
ATOM      2  C   UNL     1      27.350  23.738  28.925  0.00  0.00    +0.000 C 
ATOM      3  C   UNL     1      26.272  23.444  27.686  0.00  0.00    +0.000 C 
ATOM      4  C   UNL     1      26.917  24.002  26.484  0.00  0.00    +0.000 C 
ATOM      5  C   UNL     1      28.314  23.400  26.343  0.00  0.00    +0.000 A 
ATOM      6  C   UNL     1      28.815  22.642  27.350  0.00  0.00    +0.000 A 
ATOM      7  S   UNL     1      30.350  22.190  26.784  0.00  0.00    +0.000 S 
ATOM      8  C   UNL     1      30.329  22.975  25.275  0.00  0.00    +0.000 A 
ATOM      9  N   UNL     1      31.373  22.989  24.261  0.00  0.00    +0.000 NA
ATOM     10  C   UNL     1      29.105  23.583  25.240  0.00  0.00    +0.000 A 
ATOM     11  C   UNL     1      28.118  22.316  28.635  0.00  0.00    +0.000 C 
ENDROOT
BRANCH  10  12
ATOM     12  C   UNL     1      28.727  24.382  24.039  0.00  0.00    +0.000 C 
ATOM     13  O   UNL     1      28.097  23.823  23.128  0.00  0.00    +0.000 OA
ATOM     14  N   UNL     1      29.075  25.751  23.932  0.00  0.00    +0.000 NA
BRANCH  14  15
ATOM     15  C   UNL     1      28.673  26.430  22.752  0.00  0.00    +0.000 A 
ATOM     16  C   UNL     1      29.499  26.435  21.657  0.00  0.00    +0.000 A 
ATOM     17  C   UNL     1      29.112  27.090  20.519  0.00  0.00    +0.000 A 
ATOM     18  C   UNL     1      27.912  27.743  20.451  0.00  0.00    +0.000 A 
ATOM     19  C   UNL     1      27.059  27.758  21.533  0.00  0.00    +0.000 A 
ATOM     20  C   UNL     1      27.467  27.092  22.670  0.00  0.00    +0.000 A 
ENDBRANCH  14  15
ENDBRANCH  10  12
TORSDOF 2
ENDMDL
MODEL 6
REMARK VINA RESULT:      -5.3      2.743      7.084
REMARK  Name = 
REMARK  2 active torsions:
REMARK  status: ('A' for Active; 'I' for Inactive)
REMARK    1  A    between atoms: C_10  and  C_11
REMARK    2  A    between atoms: N_13  and  C_14
REMARK                            x       y       z     vdW  Elec       q    Type
REMARK                         _______ _______ _______ _____ _____    ______ ____
ROOT
ATOM      1  C   UNL     1      24.623  25.774  25.219  0.00  0.00    +0.000 C 
ATOM      2  C   UNL     1      25.782  24.579  25.224  0.00  0.00    +0.000 C 
ATOM      3  C   UNL     1      26.449  25.151  26.642  0.00  0.00    +0.000 C 
ATOM      4  C   UNL     1      27.552  24.222  26.944  0.00  0.00    +0.000 C 
ATOM      5  C   UNL     1      28.476  24.134  25.731  0.00  0.00    +0.000 A 
ATOM      6  C   UNL     1      28.101  24.722  24.566  0.00  0.00    +0.000 A 
ATOM      7  S   UNL     1      29.392  24.387  23.517  0.00  0.00    +0.000 S 
ATOM      8  C   UNL     1      30.388  23.505  24.577  0.00  0.00    +0.000 A 
ATOM      9  N   UNL     1      31.686  22.911  24.296  0.00  0.00    +0.000 NA
ATOM     10  C   UNL     1      29.683  23.488  25.749  0.00  0.00    +0.000 A 
ATOM     11  C   UNL     1      26.829  25.477  24.334  0.00  0.00    +0.000 C 
ENDROOT
BRANCH  10  12
ATOM     12  C   UNL     1      30.262  22.788  26.931  0.00  0.00    +0.000 C 
ATOM     13  O   UNL     1      30.084  21.566  27.043  0.00  0.00    +0.000 OA
ATOM     14  N   UNL     1      31.000  23.496  27.911  0.00  0.00    +0.000 NA
BRANCH  14  15
ATOM     15  C   UNL     1      31.512  22.746  29.002  0.00  0.00    +0.000 A 
ATOM     16  C   UNL     1      32.783  22.233  28.935  0.00  0.00    +0.000 A 
ATOM     17  C   UNL     1      33.277  21.509  29.987  0.00  0.00    +0.000 A 
ATOM     18  C   UNL     1      32.527  21.286  31.109  0.00  0.00    +0.000 A 
ATOM     19  C   UNL     1      31.247  21.788  31.209  0.00  0.00    +0.000 A 
ATOM     20  C   UNL     1      30.768  22.515  30.138  0.00  0.00    +0.000 A 
ENDBRANCH  14  15
ENDBRANCH  10  12
TORSDOF 2
ENDMDL
MODEL 7
REMARK VINA RESULT:      -5.2      2.749      4.379
REMARK  Name = 
REMARK  2 active torsions:
REMARK  status: ('A' for Active; 'I' for Inactive)
REMARK    1  A    between atoms: C_10  and  C_11
REMARK    2  A    between atoms: N_13  and  C_14
REMARK                            x       y       z     vdW  Elec       q    Type
REMARK                         _______ _______ _______ _____ _____    ______ ____
ROOT
ATOM      1  C   UNL     1      24.676  26.062  31.168  0.00  0.00    +0.000 C 
ATOM      2  C   UNL     1      25.950  25.838  30.120  0.00  0.00    +0.000 C 
ATOM      3  C   UNL     1      24.930  25.363  28.889  0.00  0.00    +0.000 C 
ATOM      4  C   UNL     1      25.817  25.110  27.739  0.00  0.00    +0.000 C 
ATOM      5  C   UNL     1      26.904  24.121  28.156  0.00  0.00    +0.000 A 
ATOM      6  C   UNL     1      27.020  23.776  29.464  0.00  0.00    +0.000 A 
ATOM      7  S   UNL     1      28.320  22.684  29.473  0.00  0.00    +0.000 S 
ATOM      8  C   UNL     1      28.693  22.685  27.814  0.00  0.00    +0.000 A 
ATOM      9  N   UNL     1      29.739  21.936  27.133  0.00  0.00    +0.000 NA
ATOM     10  C   UNL     1      27.782  23.551  27.275  0.00  0.00    +0.000 A 
ATOM     11  C   UNL     1      26.164  24.278  30.585  0.00  0.00    +0.000 C 
ENDROOT
BRANCH  10  12
ATOM     12  C   UNL     1      27.807  23.807  25.806  0.00  0.00    +0.000 C 
ATOM     13  O   UNL     1      27.133  23.078  25.064  0.00  0.00    +0.000 OA
ATOM     14  N   UNL     1      28.583  24.860  25.261  0.00  0.00    +0.000 NA
BRANCH  14  15
ATOM     15  C   UNL     1      28.546  25.029  23.852  0.00  0.00    +0.000 A 
ATOM     16  C   UNL     1      27.589  25.835  23.291  0.00  0.00    +0.000 A 
ATOM     17  C   UNL     1      27.551  25.998  21.932  0.00  0.00    +0.000 A 
ATOM     18  C   UNL     1      28.454  25.370  21.118  0.00  0.00    +0.000 A 
ATOM     19  C   UNL     1      29.428  24.553  21.650  0.00  0.00    +0.000 A 
ATOM     20  C   UNL     1      29.448  24.402  23.021  0.00  0.00    +0.000 A 
ENDBRANCH  14  15
ENDBRANCH  10  12
TORSDOF 2
ENDMDL
MODEL 8
REMARK VINA RESULT:      -5.2      3.363      5.450
REMARK  Name = 
REMARK  2 active torsions:
REMARK  status: ('A' for Active; 'I' for Inactive)
REMARK    1  A    between atoms: C_10  and  C_11
REMARK    2  A    between atoms: N_13  and  C_14
REMARK                            x       y       z     vdW  Elec       q    Type
REMARK                         _______ _______ _______ _____ _____    ______ ____
ROOT
ATOM      1  C   UNL     1      22.919  28.037  30.608  0.00  0.00    +0.000 C 
ATOM      2  C   UNL     1      24.307  27.455  29.896  0.00  0.00    +0.000 C 
ATOM      3  C   UNL     1      23.436  26.626  28.741  0.00  0.00    +0.000 C 
ATOM      4  C   UNL     1      24.453  25.990  27.884  0.00  0.00    +0.000 C 
ATOM      5  C   UNL     1      25.399  25.170  28.758  0.00  0.00    +0.000 A 
ATOM      6  C   UNL     1      25.310  25.269  30.109  0.00  0.00    +0.000 A 
ATOM      7  S   UNL     1      26.515  24.213  30.667  0.00  0.00    +0.000 S 
ATOM      8  C   UNL     1      27.113  23.662  29.173  0.00  0.00    +0.000 A 
ATOM      9  N   UNL     1      28.188  22.709  28.938  0.00  0.00    +0.000 NA
ATOM     10  C   UNL     1      26.349  24.323  28.252  0.00  0.00    +0.000 A 
ATOM     11  C   UNL     1      24.344  26.130  30.864  0.00  0.00    +0.000 C 
ENDROOT
BRANCH  10  12
ATOM     12  C   UNL     1      26.595  24.083  26.801  0.00  0.00    +0.000 C 
ATOM     13  O   UNL     1      25.841  23.311  26.190  0.00  0.00    +0.000 OA
ATOM     14  N   UNL     1      27.665  24.722  26.126  0.00  0.00    +0.000 NA
BRANCH  14  15
ATOM     15  C   UNL     1      27.822  24.433  24.745  0.00  0.00    +0.000 A 
ATOM     16  C   UNL     1      28.673  23.430  24.354  0.00  0.00    +0.000 A 
ATOM     17  C   UNL     1      28.825  23.152  23.022  0.00  0.00    +0.000 A 
ATOM     18  C   UNL     1      28.143  23.855  22.069  0.00  0.00    +0.000 A 
ATOM     19  C   UNL     1      27.279  24.868  22.427  0.00  0.00    +0.000 A 
ATOM     20  C   UNL     1      27.140  25.134  23.774  0.00  0.00    +0.000 A 
ENDBRANCH  14  15
ENDBRANCH  10  12
TORSDOF 2
ENDMDL
MODEL 9
REMARK VINA RESULT:      -5.2      3.854      6.238
REMARK  Name = 
REMARK  2 active torsions:
REMARK  status: ('A' for Active; 'I' for Inactive)
REMARK    1  A    between atoms: C_10  and  C_11
REMARK    2  A    between atoms: N_13  and  C_14
REMARK                            x       y       z     vdW  Elec       q    Type
REMARK                         _______ _______ _______ _____ _____    ______ ____
ROOT
ATOM      1  C   UNL     1      21.677  27.951  27.895  0.00  0.00    +0.000 C 
ATOM      2  C   UNL     1      23.290  27.577  28.073  0.00  0.00    +0.000 C 
ATOM      3  C   UNL     1      23.096  26.113  27.299  0.00  0.00    +0.000 C 
ATOM      4  C   UNL     1      24.444  25.519  27.269  0.00  0.00    +0.000 C 
ATOM      5  C   UNL     1      25.003  25.480  28.690  0.00  0.00    +0.000 A 
ATOM      6  C   UNL     1      24.330  26.111  29.685  0.00  0.00    +0.000 A 
ATOM      7  S   UNL     1      25.282  25.817  31.059  0.00  0.00    +0.000 S 
ATOM      8  C   UNL     1      26.521  24.896  30.345  0.00  0.00    +0.000 A 
ATOM      9  N   UNL     1      27.687  24.313  30.992  0.00  0.00    +0.000 NA
ATOM     10  C   UNL     1      26.163  24.834  29.026  0.00  0.00    +0.000 A 
ATOM     11  C   UNL     1      23.047  26.870  29.535  0.00  0.00    +0.000 C 
ENDROOT
BRANCH  10  12
ATOM     12  C   UNL     1      27.034  24.089  28.073  0.00  0.00    +0.000 C 
ATOM     13  O   UNL     1      26.815  22.883  27.887  0.00  0.00    +0.000 OA
ATOM     14  N   UNL     1      28.092  24.738  27.390  0.00  0.00    +0.000 NA
BRANCH  14  15
ATOM     15  C   UNL     1      28.869  23.948  26.502  0.00  0.00    +0.000 A 
ATOM     16  C   UNL     1      28.491  23.835  25.188  0.00  0.00    +0.000 A 
ATOM     17  C   UNL     1      29.239  23.073  24.331  0.00  0.00    +0.000 A 
ATOM     18  C   UNL     1      30.362  22.420  24.760  0.00  0.00    +0.000 A 
ATOM     19  C   UNL     1      30.769  22.513  26.074  0.00  0.00    +0.000 A 
ATOM     20  C   UNL     1      30.001  23.285  26.921  0.00  0.00    +0.000 A 
ENDBRANCH  14  15
ENDBRANCH  10  12
TORSDOF 2
ENDMDL
MODEL 10
REMARK VINA RESULT:      -5.1     39.564     40.722
REMARK  Name = 
REMARK  2 active torsions:
REMARK  status: ('A' for Active; 'I' for Inactive)
REMARK    1  A    between atoms: C_10  and  C_11
REMARK    2  A    between atoms: N_13  and  C_14
REMARK                            x       y       z     vdW  Elec       q    Type
REMARK                         _______ _______ _______ _____ _____    ______ ____
ROOT
ATOM      1  C   UNL     1       6.579 -10.641  41.689  0.00  0.00    +0.000 C 
ATOM      2  C   UNL     1       7.335 -11.419  40.426  0.00  0.00    +0.000 C 
ATOM      3  C   UNL     1       7.901  -9.980  39.803  0.00  0.00    +0.000 C 
ATOM      4  C   UNL     1       8.688 -10.364  38.617  0.00  0.00    +0.000 C 
ATOM      5  C   UNL     1       7.817 -11.221  37.698  0.00  0.00    +0.000 A 
ATOM      6  C   UNL     1       6.603 -11.640  38.136  0.00  0.00    +0.000 A 
ATOM      7  S   UNL     1       5.996 -12.537  36.829  0.00  0.00    +0.000 S 
ATOM      8  C   UNL     1       7.298 -12.363  35.747  0.00  0.00    +0.000 A 
ATOM      9  N   UNL     1       7.420 -12.906  34.402  0.00  0.00    +0.000 NA
ATOM     10  C   UNL     1       8.196 -11.596  36.437  0.00  0.00    +0.000 A 
ATOM     11  C   UNL     1       6.000 -11.341  39.474  0.00  0.00    +0.000 C 
ENDROOT
BRANCH  10  12
ATOM     12  C   UNL     1       9.488 -11.232  35.787  0.00  0.00    +0.000 C 
ATOM     13  O   UNL     1      10.394 -12.078  35.753  0.00  0.00    +0.000 OA
ATOM     14  N   UNL     1       9.683  -9.950  35.218  0.00  0.00    +0.000 NA
BRANCH  14  15
ATOM     15  C   UNL     1      10.945  -9.693  34.622  0.00  0.00    +0.000 A 
ATOM     16  C   UNL     1      11.090  -9.813  33.263  0.00  0.00    +0.000 A 
ATOM     17  C   UNL     1      12.307  -9.566  32.686  0.00  0.00    +0.000 A 
ATOM     18  C   UNL     1      13.387  -9.200  33.441  0.00  0.00    +0.000 A 
ATOM     19  C   UNL     1      13.276  -9.071  34.809  0.00  0.00    +0.000 A 
ATOM     20  C   UNL     1      12.042  -9.324  35.370  0.00  0.00    +0.000 A 
ENDBRANCH  14  15
ENDBRANCH  10  12
TORSDOF 2
ENDMDL
