MODEL 1
REMARK VINA RESULT:      -7.9      0.000      0.000
REMARK  Name = 
REMARK  7 active torsions:
REMARK  status: ('A' for Active; 'I' for Inactive)
REMARK    1  A    between atoms: O_2  and  C_3
REMARK    2  A    between atoms: C_6  and  C_7
REMARK    3  A    between atoms: C_7  and  C_8
REMARK    4  A    between atoms: C_8  and  N_9
REMARK    5  A    between atoms: C_10  and  C_12
REMARK    6  A    between atoms: C_14  and  C_15
REMARK    7  A    between atoms: C_29  and  O_30
REMARK                            x       y       z     vdW  Elec       q    Type
REMARK                         _______ _______ _______ _____ _____    ______ ____
ROOT
ATOM      1  C   UNL     1      37.345   3.461  16.160  0.00  0.00    +0.000 A 
ATOM      2  C   UNL     1      38.016   4.212  17.121  0.00  0.00    +0.000 A 
ATOM      3  C   UNL     1      39.138   4.986  16.806  0.00  0.00    +0.000 A 
ATOM      4  N   UNL     1      39.561   4.988  15.531  0.00  0.00    +0.000 NA
ATOM      5  C   UNL     1      38.950   4.286  14.571  0.00  0.00    +0.000 A 
ATOM      6  C   UNL     1      39.415   4.341  13.295  0.00  0.00    +0.000 A 
ATOM      7  C   UNL     1      38.756   3.614  12.308  0.00  0.00    +0.000 A 
ATOM      8  C   UNL     1      37.657   2.857  12.611  0.00  0.00    +0.000 A 
ATOM      9  C   UNL     1      37.182   2.794  13.889  0.00  0.00    +0.000 A 
ATOM     10  C   UNL     1      37.841   3.517  14.874  0.00  0.00    +0.000 A 
ENDROOT
BRANCH   3  11
ATOM     11  C   UNL     1      39.852   5.728  17.832  0.00  0.00    +0.000 A 
ATOM     12  C   UNL     1      41.134   6.226  17.578  0.00  0.00    +0.000 A 
ATOM     13  C   UNL     1      41.781   6.959  18.547  0.00  0.00    +0.000 A 
ATOM     14  C   UNL     1      41.231   7.238  19.780  0.00  0.00    +0.000 A 
ATOM     15  C   UNL     1      39.957   6.740  20.030  0.00  0.00    +0.000 A 
ATOM     16  C   UNL     1      39.311   6.006  19.058  0.00  0.00    +0.000 A 
ENDBRANCH   3  11
BRANCH   1  18
ATOM     17  N   UNL     1      36.523   1.455  17.302  0.00  0.00    +0.000 NA
ATOM     18  C   UNL     1      36.225   2.641  16.579  0.00  0.00    +0.000 C 
ATOM     19  O   UNL     1      35.019   2.911  16.352  0.00  0.00    +0.000 OA
BRANCH  17  20
ATOM     20  C   UNL     1      35.528   0.532  17.784  0.00  0.00    +0.000 C 
BRANCH  20  21
ATOM     21  C   UNL     1      35.278  -0.488  16.681  0.00  0.00    +0.000 C 
BRANCH  21  25
ATOM     22  C   UNL     1      38.908  -2.250  15.213  0.00  0.00    +0.000 A 
ATOM     23  C   UNL     1      38.192  -1.411  14.406  0.00  0.00    +0.000 A 
ATOM     24  C   UNL     1      37.015  -0.824  14.866  0.00  0.00    +0.000 A 
ATOM     25  C   UNL     1      36.533  -1.060  16.134  0.00  0.00    +0.000 A 
ATOM     26  C   UNL     1      37.276  -1.906  16.917  0.00  0.00    +0.000 A 
ATOM     27  C   UNL     1      38.460  -2.509  16.481  0.00  0.00    +0.000 A 
BRANCH  22  29
ATOM     28  C   UNL     1      41.324  -2.212  14.658  0.00  0.00    +0.000 C 
ATOM     29  O   UNL     1      40.092  -2.859  14.801  0.00  0.00    +0.000 OA
ENDBRANCH  22  29
BRANCH  27  30
ATOM     30  O   UNL     1      39.157  -3.360  17.336  0.00  0.00    +0.000 OA
ATOM     31  C   UNL     1      38.545  -4.540  17.782  0.00  0.00    +0.000 C 
ENDBRANCH  27  30
ENDBRANCH  21  25
ENDBRANCH  20  21
ENDBRANCH  17  20
ENDBRANCH   1  18
TORSDOF 7
ENDMDL
MODEL 2
REMARK VINA RESULT:      -7.9      2.775      8.875
REMARK  Name = 
REMARK  7 active torsions:
REMARK  status: ('A' for Active; 'I' for Inactive)
REMARK    1  A    between atoms: O_2  and  C_3
REMARK    2  A    between atoms: C_6  and  C_7
REMARK    3  A    between atoms: C_7  and  C_8
REMARK    4  A    between atoms: C_8  and  N_9
REMARK    5  A    between atoms: C_10  and  C_12
REMARK    6  A    between atoms: C_14  and  C_15
REMARK    7  A    between atoms: C_29  and  O_30
REMARK                            x       y       z     vdW  Elec       q    Type
REMARK                         _______ _______ _______ _____ _____    ______ ____
ROOT
ATOM      1  C   UNL     1      37.408   1.085  15.370  0.00  0.00    +0.000 A 
ATOM      2  C   UNL     1      38.477   0.433  14.761  0.00  0.00    +0.000 A 
ATOM      3  C   UNL     1      38.598  -0.961  14.770  0.00  0.00    +0.000 A 
ATOM      4  N   UNL     1      37.641  -1.669  15.392  0.00  0.00    +0.000 NA
ATOM      5  C   UNL     1      36.593  -1.091  15.990  0.00  0.00    +0.000 A 
ATOM      6  C   UNL     1      35.648  -1.863  16.589  0.00  0.00    +0.000 A 
ATOM      7  C   UNL     1      34.558  -1.241  17.193  0.00  0.00    +0.000 A 
ATOM      8  C   UNL     1      34.435   0.122  17.185  0.00  0.00    +0.000 A 
ATOM      9  C   UNL     1      35.379   0.906  16.587  0.00  0.00    +0.000 A 
ATOM     10  C   UNL     1      36.467   0.287  15.986  0.00  0.00    +0.000 A 
ENDROOT
BRANCH   3  11
ATOM     11  C   UNL     1      39.744  -1.620  14.166  0.00  0.00    +0.000 A 
ATOM     12  C   UNL     1      39.573  -2.446  13.050  0.00  0.00    +0.000 A 
ATOM     13  C   UNL     1      40.674  -3.033  12.467  0.00  0.00    +0.000 A 
ATOM     14  C   UNL     1      41.961  -2.854  12.927  0.00  0.00    +0.000 A 
ATOM     15  C   UNL     1      42.127  -2.034  14.037  0.00  0.00    +0.000 A 
ATOM     16  C   UNL     1      41.023  -1.447  14.619  0.00  0.00    +0.000 A 
ENDBRANCH   3  11
BRANCH   1  18
ATOM     17  N   UNL     1      37.859   3.196  16.530  0.00  0.00    +0.000 NA
ATOM     18  C   UNL     1      37.386   2.534  15.364  0.00  0.00    +0.000 C 
ATOM     19  O   UNL     1      36.985   3.238  14.403  0.00  0.00    +0.000 OA
BRANCH  17  20
ATOM     20  C   UNL     1      37.899   4.627  16.684  0.00  0.00    +0.000 C 
BRANCH  20  21
ATOM     21  C   UNL     1      39.159   4.968  17.468  0.00  0.00    +0.000 C 
BRANCH  21  25
ATOM     22  C   UNL     1      38.454   8.287  20.101  0.00  0.00    +0.000 A 
ATOM     23  C   UNL     1      39.460   7.406  20.382  0.00  0.00    +0.000 A 
ATOM     24  C   UNL     1      39.709   6.327  19.537  0.00  0.00    +0.000 A 
ATOM     25  C   UNL     1      38.965   6.107  18.400  0.00  0.00    +0.000 A 
ATOM     26  C   UNL     1      37.963   7.010  18.148  0.00  0.00    +0.000 A 
ATOM     27  C   UNL     1      37.691   8.101  18.979  0.00  0.00    +0.000 A 
BRANCH  22  29
ATOM     28  C   UNL     1      38.929  10.554  20.984  0.00  0.00    +0.000 C 
ATOM     29  O   UNL     1      38.167   9.383  20.912  0.00  0.00    +0.000 OA
ENDBRANCH  22  29
BRANCH  27  30
ATOM     30  O   UNL     1      36.653   8.973  18.656  0.00  0.00    +0.000 OA
ATOM     31  C   UNL     1      36.781   9.811  17.540  0.00  0.00    +0.000 C 
ENDBRANCH  27  30
ENDBRANCH  21  25
ENDBRANCH  20  21
ENDBRANCH  17  20
ENDBRANCH   1  18
TORSDOF 7
ENDMDL
MODEL 3
REMARK VINA RESULT:      -7.8      2.043      4.045
REMARK  Name = 
REMARK  7 active torsions:
REMARK  status: ('A' for Active; 'I' for Inactive)
REMARK    1  A    between atoms: O_2  and  C_3
REMARK    2  A    between atoms: C_6  and  C_7
REMARK    3  A    between atoms: C_7  and  C_8
REMARK    4  A    between atoms: C_8  and  N_9
REMARK    5  A    between atoms: C_10  and  C_12
REMARK    6  A    between atoms: C_14  and  C_15
REMARK    7  A    between atoms: C_29  and  O_30
REMARK                            x       y       z     vdW  Elec       q    Type
REMARK                         _______ _______ _______ _____ _____    ______ ____
ROOT
ATOM      1  C   UNL     1      37.932   1.641  14.967  0.00  0.00    +0.000 A 
ATOM      2  C   UNL     1      38.355   2.888  15.421  0.00  0.00    +0.000 A 
ATOM      3  C   UNL     1      37.751   3.523  16.512  0.00  0.00    +0.000 A 
ATOM      4  N   UNL     1      36.735   2.891  17.122  0.00  0.00    +0.000 NA
ATOM      5  C   UNL     1      36.293   1.692  16.726  0.00  0.00    +0.000 A 
ATOM      6  C   UNL     1      35.271   1.096  17.394  0.00  0.00    +0.000 A 
ATOM      7  C   UNL     1      34.836  -0.159  16.973  0.00  0.00    +0.000 A 
ATOM      8  C   UNL     1      35.425  -0.784  15.908  0.00  0.00    +0.000 A 
ATOM      9  C   UNL     1      36.452  -0.194  15.230  0.00  0.00    +0.000 A 
ATOM     10  C   UNL     1      36.884   1.058  15.647  0.00  0.00    +0.000 A 
ENDROOT
BRANCH   3  11
ATOM     11  C   UNL     1      38.178   4.844  16.944  0.00  0.00    +0.000 A 
ATOM     12  C   UNL     1      38.746   5.020  18.210  0.00  0.00    +0.000 A 
ATOM     13  C   UNL     1      39.179   6.271  18.590  0.00  0.00    +0.000 A 
ATOM     14  C   UNL     1      39.086   7.383  17.781  0.00  0.00    +0.000 A 
ATOM     15  C   UNL     1      38.520   7.204  16.524  0.00  0.00    +0.000 A 
ATOM     16  C   UNL     1      38.086   5.951  16.146  0.00  0.00    +0.000 A 
ENDBRANCH   3  11
BRANCH   1  18
ATOM     17  N   UNL     1      39.769   0.336  14.003  0.00  0.00    +0.000 NA
ATOM     18  C   UNL     1      38.574   1.077  13.796  0.00  0.00    +0.000 C 
ATOM     19  O   UNL     1      38.144   1.195  12.621  0.00  0.00    +0.000 OA
BRANCH  17  20
ATOM     20  C   UNL     1      40.528  -0.282  12.946  0.00  0.00    +0.000 C 
BRANCH  20  21
ATOM     21  C   UNL     1      40.917  -1.676  13.419  0.00  0.00    +0.000 C 
BRANCH  21  25
ATOM     22  C   UNL     1      37.693  -3.776  15.325  0.00  0.00    +0.000 A 
ATOM     23  C   UNL     1      37.582  -3.423  14.009  0.00  0.00    +0.000 A 
ATOM     24  C   UNL     1      38.620  -2.748  13.371  0.00  0.00    +0.000 A 
ATOM     25  C   UNL     1      39.783  -2.413  14.028  0.00  0.00    +0.000 A 
ATOM     26  C   UNL     1      39.860  -2.782  15.347  0.00  0.00    +0.000 A 
ATOM     27  C   UNL     1      38.834  -3.460  16.013  0.00  0.00    +0.000 A 
BRANCH  22  29
ATOM     28  C   UNL     1      35.328  -4.440  15.664  0.00  0.00    +0.000 C 
ATOM     29  O   UNL     1      36.685  -4.454  16.007  0.00  0.00    +0.000 OA
ENDBRANCH  22  29
BRANCH  27  30
ATOM     30  O   UNL     1      38.987  -3.797  17.356  0.00  0.00    +0.000 OA
ATOM     31  C   UNL     1      38.654  -2.859  18.343  0.00  0.00    +0.000 C 
ENDBRANCH  27  30
ENDBRANCH  21  25
ENDBRANCH  20  21
ENDBRANCH  17  20
ENDBRANCH   1  18
TORSDOF 7
ENDMDL
MODEL 4
REMARK VINA RESULT:      -7.7      3.011      8.625
REMARK  Name = 
REMARK  7 active torsions:
REMARK  status: ('A' for Active; 'I' for Inactive)
REMARK    1  A    between atoms: O_2  and  C_3
REMARK    2  A    between atoms: C_6  and  C_7
REMARK    3  A    between atoms: C_7  and  C_8
REMARK    4  A    between atoms: C_8  and  N_9
REMARK    5  A    between atoms: C_10  and  C_12
REMARK    6  A    between atoms: C_14  and  C_15
REMARK    7  A    between atoms: C_29  and  O_30
REMARK                            x       y       z     vdW  Elec       q    Type
REMARK                         _______ _______ _______ _____ _____    ______ ____
ROOT
ATOM      1  C   UNL     1      39.043   0.462  14.524  0.00  0.00    +0.000 A 
ATOM      2  C   UNL     1      37.864  -0.224  14.807  0.00  0.00    +0.000 A 
ATOM      3  C   UNL     1      37.841  -1.609  14.997  0.00  0.00    +0.000 A 
ATOM      4  N   UNL     1      39.002  -2.276  14.898  0.00  0.00    +0.000 NA
ATOM      5  C   UNL     1      40.161  -1.664  14.630  0.00  0.00    +0.000 A 
ATOM      6  C   UNL     1      41.307  -2.391  14.557  0.00  0.00    +0.000 A 
ATOM      7  C   UNL     1      42.505  -1.732  14.291  0.00  0.00    +0.000 A 
ATOM      8  C   UNL     1      42.532  -0.376  14.106  0.00  0.00    +0.000 A 
ATOM      9  C   UNL     1      41.387   0.363  14.176  0.00  0.00    +0.000 A 
ATOM     10  C   UNL     1      40.193  -0.294  14.439  0.00  0.00    +0.000 A 
ENDROOT
BRANCH   3  11
ATOM     11  C   UNL     1      36.594  -2.313  15.249  0.00  0.00    +0.000 A 
ATOM     12  C   UNL     1      35.701  -1.837  16.216  0.00  0.00    +0.000 A 
ATOM     13  C   UNL     1      34.507  -2.493  16.417  0.00  0.00    +0.000 A 
ATOM     14  C   UNL     1      34.131  -3.615  15.709  0.00  0.00    +0.000 A 
ATOM     15  C   UNL     1      35.020  -4.085  14.751  0.00  0.00    +0.000 A 
ATOM     16  C   UNL     1      36.215  -3.426  14.551  0.00  0.00    +0.000 A 
ENDBRANCH   3  11
BRANCH   1  18
ATOM     17  N   UNL     1      38.895   2.736  15.425  0.00  0.00    +0.000 NA
ATOM     18  C   UNL     1      38.972   1.890  14.286  0.00  0.00    +0.000 C 
ATOM     19  O   UNL     1      38.980   2.425  13.148  0.00  0.00    +0.000 OA
BRANCH  17  20
ATOM     20  C   UNL     1      38.814   4.173  15.358  0.00  0.00    +0.000 C 
BRANCH  20  21
ATOM     21  C   UNL     1      38.271   4.662  16.694  0.00  0.00    +0.000 C 
BRANCH  21  25
ATOM     22  C   UNL     1      41.022   7.022  18.999  0.00  0.00    +0.000 A 
ATOM     23  C   UNL     1      41.415   6.515  17.792  0.00  0.00    +0.000 A 
ATOM     24  C   UNL     1      40.535   5.754  17.026  0.00  0.00    +0.000 A 
ATOM     25  C   UNL     1      39.253   5.484  17.446  0.00  0.00    +0.000 A 
ATOM     26  C   UNL     1      38.891   6.007  18.662  0.00  0.00    +0.000 A 
ATOM     27  C   UNL     1      39.753   6.775  19.451  0.00  0.00    +0.000 A 
BRANCH  22  29
ATOM     28  C   UNL     1      42.994   7.316  20.471  0.00  0.00    +0.000 C 
ATOM     29  O   UNL     1      41.862   7.792  19.800  0.00  0.00    +0.000 OA
ENDBRANCH  22  29
BRANCH  27  30
ATOM     30  O   UNL     1      39.311   7.268  20.676  0.00  0.00    +0.000 OA
ATOM     31  C   UNL     1      38.505   8.415  20.706  0.00  0.00    +0.000 C 
ENDBRANCH  27  30
ENDBRANCH  21  25
ENDBRANCH  20  21
ENDBRANCH  17  20
ENDBRANCH   1  18
TORSDOF 7
ENDMDL
MODEL 5
REMARK VINA RESULT:      -7.6      2.907      8.305
REMARK  Name = 
REMARK  7 active torsions:
REMARK  status: ('A' for Active; 'I' for Inactive)
REMARK    1  A    between atoms: O_2  and  C_3
REMARK    2  A    between atoms: C_6  and  C_7
REMARK    3  A    between atoms: C_7  and  C_8
REMARK    4  A    between atoms: C_8  and  N_9
REMARK    5  A    between atoms: C_10  and  C_12
REMARK    6  A    between atoms: C_14  and  C_15
REMARK    7  A    between atoms: C_29  and  O_30
REMARK                            x       y       z     vdW  Elec       q    Type
REMARK                         _______ _______ _______ _____ _____    ______ ____
ROOT
ATOM      1  C   UNL     1      37.853   1.446  15.024  0.00  0.00    +0.000 A 
ATOM      2  C   UNL     1      38.855   0.673  14.444  0.00  0.00    +0.000 A 
ATOM      3  C   UNL     1      38.861  -0.723  14.534  0.00  0.00    +0.000 A 
ATOM      4  N   UNL     1      37.858  -1.313  15.206  0.00  0.00    +0.000 NA
ATOM      5  C   UNL     1      36.871  -0.615  15.780  0.00  0.00    +0.000 A 
ATOM      6  C   UNL     1      35.875  -1.269  16.433  0.00  0.00    +0.000 A 
ATOM      7  C   UNL     1      34.849  -0.525  17.011  0.00  0.00    +0.000 A 
ATOM      8  C   UNL     1      34.839   0.840  16.923  0.00  0.00    +0.000 A 
ATOM      9  C   UNL     1      35.835   1.507  16.269  0.00  0.00    +0.000 A 
ATOM     10  C   UNL     1      36.859   0.766  15.696  0.00  0.00    +0.000 A 
ENDROOT
BRANCH   3  11
ATOM     11  C   UNL     1      39.940  -1.510  13.959  0.00  0.00    +0.000 A 
ATOM     12  C   UNL     1      41.234  -1.416  14.481  0.00  0.00    +0.000 A 
ATOM     13  C   UNL     1      42.237  -2.195  13.948  0.00  0.00    +0.000 A 
ATOM     14  C   UNL     1      42.039  -3.080  12.910  0.00  0.00    +0.000 A 
ATOM     15  C   UNL     1      40.752  -3.169  12.393  0.00  0.00    +0.000 A 
ATOM     16  C   UNL     1      39.749  -2.388  12.928  0.00  0.00    +0.000 A 
ENDBRANCH   3  11
BRANCH   1  18
ATOM     17  N   UNL     1      38.593   3.566  16.004  0.00  0.00    +0.000 NA
ATOM     18  C   UNL     1      37.950   2.889  14.932  0.00  0.00    +0.000 C 
ATOM     19  O   UNL     1      37.513   3.575  13.974  0.00  0.00    +0.000 OA
BRANCH  17  20
ATOM     20  C   UNL     1      38.766   4.994  16.067  0.00  0.00    +0.000 C 
BRANCH  20  21
ATOM     21  C   UNL     1      38.328   5.447  17.454  0.00  0.00    +0.000 C 
BRANCH  21  25
ATOM     22  C   UNL     1      41.667   6.982  19.676  0.00  0.00    +0.000 A 
ATOM     23  C   UNL     1      40.427   6.960  20.252  0.00  0.00    +0.000 A 
ATOM     24  C   UNL     1      39.333   6.459  19.550  0.00  0.00    +0.000 A 
ATOM     25  C   UNL     1      39.452   5.973  18.268  0.00  0.00    +0.000 A 
ATOM     26  C   UNL     1      40.709   6.011  17.720  0.00  0.00    +0.000 A 
ATOM     27  C   UNL     1      41.825   6.508  18.401  0.00  0.00    +0.000 A 
BRANCH  22  29
ATOM     28  C   UNL     1      43.529   6.769  21.298  0.00  0.00    +0.000 C 
ATOM     29  O   UNL     1      42.792   7.469  20.336  0.00  0.00    +0.000 OA
ENDBRANCH  22  29
BRANCH  27  30
ATOM     30  O   UNL     1      43.069   6.516  17.774  0.00  0.00    +0.000 OA
ATOM     31  C   UNL     1      43.159   6.890  16.426  0.00  0.00    +0.000 C 
ENDBRANCH  27  30
ENDBRANCH  21  25
ENDBRANCH  20  21
ENDBRANCH  17  20
ENDBRANCH   1  18
TORSDOF 7
ENDMDL
MODEL 6
REMARK VINA RESULT:      -7.5      2.972      8.641
REMARK  Name = 
REMARK  7 active torsions:
REMARK  status: ('A' for Active; 'I' for Inactive)
REMARK    1  A    between atoms: O_2  and  C_3
REMARK    2  A    between atoms: C_6  and  C_7
REMARK    3  A    between atoms: C_7  and  C_8
REMARK    4  A    between atoms: C_8  and  N_9
REMARK    5  A    between atoms: C_10  and  C_12
REMARK    6  A    between atoms: C_14  and  C_15
REMARK    7  A    between atoms: C_29  and  O_30
REMARK                            x       y       z     vdW  Elec       q    Type
REMARK                         _______ _______ _______ _____ _____    ______ ____
ROOT
ATOM      1  C   UNL     1      36.429   0.651  15.110  0.00  0.00    +0.000 A 
ATOM      2  C   UNL     1      37.313   0.380  14.069  0.00  0.00    +0.000 A 
ATOM      3  C   UNL     1      37.601  -0.927  13.662  0.00  0.00    +0.000 A 
ATOM      4  N   UNL     1      36.994  -1.934  14.310  0.00  0.00    +0.000 NA
ATOM      5  C   UNL     1      36.136  -1.727  15.314  0.00  0.00    +0.000 A 
ATOM      6  C   UNL     1      35.540  -2.788  15.921  0.00  0.00    +0.000 A 
ATOM      7  C   UNL     1      34.639  -2.550  16.956  0.00  0.00    +0.000 A 
ATOM      8  C   UNL     1      34.353  -1.273  17.356  0.00  0.00    +0.000 A 
ATOM      9  C   UNL     1      34.945  -0.201  16.754  0.00  0.00    +0.000 A 
ATOM     10  C   UNL     1      35.846  -0.438  15.724  0.00  0.00    +0.000 A 
ENDROOT
BRANCH   3  11
ATOM     11  C   UNL     1      38.561  -1.189  12.601  0.00  0.00    +0.000 A 
ATOM     12  C   UNL     1      39.113  -2.466  12.452  0.00  0.00    +0.000 A 
ATOM     13  C   UNL     1      39.991  -2.708  11.420  0.00  0.00    +0.000 A 
ATOM     14  C   UNL     1      40.369  -1.748  10.506  0.00  0.00    +0.000 A 
ATOM     15  C   UNL     1      39.820  -0.480  10.658  0.00  0.00    +0.000 A 
ATOM     16  C   UNL     1      38.940  -0.240  11.692  0.00  0.00    +0.000 A 
ENDBRANCH   3  11
BRANCH   1  18
ATOM     17  N   UNL     1      37.227   2.622  16.327  0.00  0.00    +0.000 NA
ATOM     18  C   UNL     1      36.228   2.029  15.508  0.00  0.00    +0.000 C 
ATOM     19  O   UNL     1      35.240   2.732  15.175  0.00  0.00    +0.000 OA
BRANCH  17  20
ATOM     20  C   UNL     1      37.174   3.977  16.811  0.00  0.00    +0.000 C 
BRANCH  20  21
ATOM     21  C   UNL     1      38.605   4.495  16.878  0.00  0.00    +0.000 C 
BRANCH  21  25
ATOM     22  C   UNL     1      39.225   7.636  19.740  0.00  0.00    +0.000 A 
ATOM     23  C   UNL     1      38.235   7.761  18.807  0.00  0.00    +0.000 A 
ATOM     24  C   UNL     1      38.013   6.750  17.874  0.00  0.00    +0.000 A 
ATOM     25  C   UNL     1      38.770   5.600  17.854  0.00  0.00    +0.000 A 
ATOM     26  C   UNL     1      39.755   5.508  18.805  0.00  0.00    +0.000 A 
ATOM     27  C   UNL     1      40.000   6.506  19.752  0.00  0.00    +0.000 A 
BRANCH  22  29
ATOM     28  C   UNL     1      39.982   9.895  20.423  0.00  0.00    +0.000 C 
ATOM     29  O   UNL     1      39.484   8.616  20.696  0.00  0.00    +0.000 OA
ENDBRANCH  22  29
BRANCH  27  30
ATOM     30  O   UNL     1      41.022   6.339  20.684  0.00  0.00    +0.000 OA
ATOM     31  C   UNL     1      42.351   6.561  20.295  0.00  0.00    +0.000 C 
ENDBRANCH  27  30
ENDBRANCH  21  25
ENDBRANCH  20  21
ENDBRANCH  17  20
ENDBRANCH   1  18
TORSDOF 7
ENDMDL
MODEL 7
REMARK VINA RESULT:      -7.5     25.200     28.294
REMARK  Name = 
REMARK  7 active torsions:
REMARK  status: ('A' for Active; 'I' for Inactive)
REMARK    1  A    between atoms: O_2  and  C_3
REMARK    2  A    between atoms: C_6  and  C_7
REMARK    3  A    between atoms: C_7  and  C_8
REMARK    4  A    between atoms: C_8  and  N_9
REMARK    5  A    between atoms: C_10  and  C_12
REMARK    6  A    between atoms: C_14  and  C_15
REMARK    7  A    between atoms: C_29  and  O_30
REMARK                            x       y       z     vdW  Elec       q    Type
REMARK                         _______ _______ _______ _____ _____    ______ ____
ROOT
ATOM      1  C   UNL     1      25.214  17.321  35.543  0.00  0.00    +0.000 A 
ATOM      2  C   UNL     1      24.673  18.555  35.188  0.00  0.00    +0.000 A 
ATOM      3  C   UNL     1      24.265  18.836  33.880  0.00  0.00    +0.000 A 
ATOM      4  N   UNL     1      24.411  17.873  32.956  0.00  0.00    +0.000 NA
ATOM      5  C   UNL     1      24.923  16.672  33.246  0.00  0.00    +0.000 A 
ATOM      6  C   UNL     1      25.030  15.731  32.271  0.00  0.00    +0.000 A 
ATOM      7  C   UNL     1      25.553  14.482  32.598  0.00  0.00    +0.000 A 
ATOM      8  C   UNL     1      25.951  14.201  33.876  0.00  0.00    +0.000 A 
ATOM      9  C   UNL     1      25.848  15.139  34.863  0.00  0.00    +0.000 A 
ATOM     10  C   UNL     1      25.330  16.385  34.537  0.00  0.00    +0.000 A 
ENDROOT
BRANCH   3  11
ATOM     11  C   UNL     1      23.743  20.145  33.521  0.00  0.00    +0.000 A 
ATOM     12  C   UNL     1      23.891  21.226  34.397  0.00  0.00    +0.000 A 
ATOM     13  C   UNL     1      23.423  22.467  34.026  0.00  0.00    +0.000 A 
ATOM     14  C   UNL     1      22.805  22.714  32.819  0.00  0.00    +0.000 A 
ATOM     15  C   UNL     1      22.658  21.637  31.952  0.00  0.00    +0.000 A 
ATOM     16  C   UNL     1      23.127  20.395  32.326  0.00  0.00    +0.000 A 
ENDBRANCH   3  11
BRANCH   1  18
ATOM     17  N   UNL     1      24.750  16.527  37.814  0.00  0.00    +0.000 NA
ATOM     18  C   UNL     1      25.664  17.129  36.907  0.00  0.00    +0.000 C 
ATOM     19  O   UNL     1      26.800  17.452  37.336  0.00  0.00    +0.000 OA
BRANCH  17  20
ATOM     20  C   UNL     1      25.041  16.272  39.201  0.00  0.00    +0.000 C 
BRANCH  20  21
ATOM     21  C   UNL     1      24.972  14.765  39.413  0.00  0.00    +0.000 C 
BRANCH  21  25
ATOM     22  C   UNL     1      28.668  12.946  40.626  0.00  0.00    +0.000 A 
ATOM     23  C   UNL     1      28.692  14.132  39.947  0.00  0.00    +0.000 A 
ATOM     24  C   UNL     1      27.504  14.741  39.552  0.00  0.00    +0.000 A 
ATOM     25  C   UNL     1      26.275  14.184  39.824  0.00  0.00    +0.000 A 
ATOM     26  C   UNL     1      26.288  12.994  40.506  0.00  0.00    +0.000 A 
ATOM     27  C   UNL     1      27.464  12.359  40.915  0.00  0.00    +0.000 A 
BRANCH  22  29
ATOM     28  C   UNL     1      30.667  11.534  40.226  0.00  0.00    +0.000 C 
ATOM     29  O   UNL     1      29.828  12.298  41.046  0.00  0.00    +0.000 OA
ENDBRANCH  22  29
BRANCH  27  30
ATOM     30  O   UNL     1      27.394  11.149  41.601  0.00  0.00    +0.000 OA
ATOM     31  C   UNL     1      27.202   9.961  40.883  0.00  0.00    +0.000 C 
ENDBRANCH  27  30
ENDBRANCH  21  25
ENDBRANCH  20  21
ENDBRANCH  17  20
ENDBRANCH   1  18
TORSDOF 7
ENDMDL
MODEL 8
REMARK VINA RESULT:      -7.3     25.364     28.938
REMARK  Name = 
REMARK  7 active torsions:
REMARK  status: ('A' for Active; 'I' for Inactive)
REMARK    1  A    between atoms: O_2  and  C_3
REMARK    2  A    between atoms: C_6  and  C_7
REMARK    3  A    between atoms: C_7  and  C_8
REMARK    4  A    between atoms: C_8  and  N_9
REMARK    5  A    between atoms: C_10  and  C_12
REMARK    6  A    between atoms: C_14  and  C_15
REMARK    7  A    between atoms: C_29  and  O_30
REMARK                            x       y       z     vdW  Elec       q    Type
REMARK                         _______ _______ _______ _____ _____    ______ ____
ROOT
ATOM      1  C   UNL     1      25.349  17.543  35.466  0.00  0.00    +0.000 A 
ATOM      2  C   UNL     1      24.739  18.719  35.036  0.00  0.00    +0.000 A 
ATOM      3  C   UNL     1      24.220  18.855  33.744  0.00  0.00    +0.000 A 
ATOM      4  N   UNL     1      24.325  17.806  32.912  0.00  0.00    +0.000 NA
ATOM      5  C   UNL     1      24.900  16.655  33.277  0.00  0.00    +0.000 A 
ATOM      6  C   UNL     1      24.963  15.623  32.395  0.00  0.00    +0.000 A 
ATOM      7  C   UNL     1      25.553  14.428  32.800  0.00  0.00    +0.000 A 
ATOM      8  C   UNL     1      26.060  14.290  34.063  0.00  0.00    +0.000 A 
ATOM      9  C   UNL     1      26.003  15.320  34.957  0.00  0.00    +0.000 A 
ATOM     10  C   UNL     1      25.418  16.512  34.552  0.00  0.00    +0.000 A 
ENDROOT
BRANCH   3  11
ATOM     11  C   UNL     1      23.625  20.105  33.300  0.00  0.00    +0.000 A 
ATOM     12  C   UNL     1      23.748  21.259  34.083  0.00  0.00    +0.000 A 
ATOM     13  C   UNL     1      23.211  22.443  33.630  0.00  0.00    +0.000 A 
ATOM     14  C   UNL     1      22.545  22.564  32.430  0.00  0.00    +0.000 A 
ATOM     15  C   UNL     1      22.424  21.416  31.656  0.00  0.00    +0.000 A 
ATOM     16  C   UNL     1      22.963  20.231  32.111  0.00  0.00    +0.000 A 
ENDBRANCH   3  11
BRANCH   1  18
ATOM     17  N   UNL     1      25.240  16.704  37.765  0.00  0.00    +0.000 NA
ATOM     18  C   UNL     1      25.912  17.503  36.801  0.00  0.00    +0.000 C 
ATOM     19  O   UNL     1      26.948  18.119  37.157  0.00  0.00    +0.000 OA
BRANCH  17  20
ATOM     20  C   UNL     1      25.667  16.563  39.134  0.00  0.00    +0.000 C 
BRANCH  20  21
ATOM     21  C   UNL     1      26.519  15.304  39.219  0.00  0.00    +0.000 C 
BRANCH  21  25
ATOM     22  C   UNL     1      25.506  12.655  42.443  0.00  0.00    +0.000 A 
ATOM     23  C   UNL     1      25.147  13.972  42.515  0.00  0.00    +0.000 A 
ATOM     24  C   UNL     1      25.460  14.845  41.476  0.00  0.00    +0.000 A 
ATOM     25  C   UNL     1      26.133  14.426  40.352  0.00  0.00    +0.000 A 
ATOM     26  C   UNL     1      26.478  13.098  40.312  0.00  0.00    +0.000 A 
ATOM     27  C   UNL     1      26.177  12.199  41.339  0.00  0.00    +0.000 A 
BRANCH  22  29
ATOM     28  C   UNL     1      23.980  11.104  43.632  0.00  0.00    +0.000 C 
ATOM     29  O   UNL     1      25.213  11.741  43.453  0.00  0.00    +0.000 OA
ENDBRANCH  22  29
BRANCH  27  30
ATOM     30  O   UNL     1      26.565  10.866  41.227  0.00  0.00    +0.000 OA
ATOM     31  C   UNL     1      27.851  10.561  40.759  0.00  0.00    +0.000 C 
ENDBRANCH  27  30
ENDBRANCH  21  25
ENDBRANCH  20  21
ENDBRANCH  17  20
ENDBRANCH   1  18
TORSDOF 7
ENDMDL
MODEL 9
REMARK VINA RESULT:      -7.2      3.102      8.807
REMARK  Name = 
REMARK  7 active torsions:
REMARK  status: ('A' for Active; 'I' for Inactive)
REMARK    1  A    between atoms: O_2  and  C_3
REMARK    2  A    between atoms: C_6  and  C_7
REMARK    3  A    between atoms: C_7  and  C_8
REMARK    4  A    between atoms: C_8  and  N_9
REMARK    5  A    between atoms: C_10  and  C_12
REMARK    6  A    between atoms: C_14  and  C_15
REMARK    7  A    between atoms: C_29  and  O_30
REMARK                            x       y       z     vdW  Elec       q    Type
REMARK                         _______ _______ _______ _____ _____    ______ ____
ROOT
ATOM      1  C   UNL     1      36.172  -0.282  16.590  0.00  0.00    +0.000 A 
ATOM      2  C   UNL     1      34.900  -0.794  16.830  0.00  0.00    +0.000 A 
ATOM      3  C   UNL     1      34.566  -2.120  16.533  0.00  0.00    +0.000 A 
ATOM      4  N   UNL     1      35.519  -2.903  16.002  0.00  0.00    +0.000 NA
ATOM      5  C   UNL     1      36.756  -2.459  15.754  0.00  0.00    +0.000 A 
ATOM      6  C   UNL     1      37.683  -3.305  15.229  0.00  0.00    +0.000 A 
ATOM      7  C   UNL     1      38.969  -2.827  14.992  0.00  0.00    +0.000 A 
ATOM      8  C   UNL     1      39.300  -1.531  15.283  0.00  0.00    +0.000 A 
ATOM      9  C   UNL     1      38.378  -0.674  15.809  0.00  0.00    +0.000 A 
ATOM     10  C   UNL     1      37.094  -1.149  16.043  0.00  0.00    +0.000 A 
ENDROOT
BRANCH   3  11
ATOM     11  C   UNL     1      33.219  -2.623  16.751  0.00  0.00    +0.000 A 
ATOM     12  C   UNL     1      32.344  -1.943  17.606  0.00  0.00    +0.000 A 
ATOM     13  C   UNL     1      31.061  -2.412  17.772  0.00  0.00    +0.000 A 
ATOM     14  C   UNL     1      30.575  -3.534  17.136  0.00  0.00    +0.000 A 
ATOM     15  C   UNL     1      31.447  -4.207  16.289  0.00  0.00    +0.000 A 
ATOM     16  C   UNL     1      32.733  -3.736  16.124  0.00  0.00    +0.000 A 
ENDBRANCH   3  11
BRANCH   1  18
ATOM     17  N   UNL     1      36.319   2.028  15.786  0.00  0.00    +0.000 NA
ATOM     18  C   UNL     1      36.420   1.117  16.873  0.00  0.00    +0.000 C 
ATOM     19  O   UNL     1      36.712   1.576  18.006  0.00  0.00    +0.000 OA
BRANCH  17  20
ATOM     20  C   UNL     1      36.540   3.447  15.900  0.00  0.00    +0.000 C 
BRANCH  20  21
ATOM     21  C   UNL     1      37.976   3.722  15.472  0.00  0.00    +0.000 C 
BRANCH  21  25
ATOM     22  C   UNL     1      40.203   6.164  18.214  0.00  0.00    +0.000 A 
ATOM     23  C   UNL     1      39.147   5.427  18.672  0.00  0.00    +0.000 A 
ATOM     24  C   UNL     1      38.416   4.623  17.800  0.00  0.00    +0.000 A 
ATOM     25  C   UNL     1      38.723   4.538  16.461  0.00  0.00    +0.000 A 
ATOM     26  C   UNL     1      39.788   5.290  16.035  0.00  0.00    +0.000 A 
ATOM     27  C   UNL     1      40.539   6.105  16.887  0.00  0.00    +0.000 A 
BRANCH  22  29
ATOM     28  C   UNL     1      41.875   6.525  20.008  0.00  0.00    +0.000 C 
ATOM     29  O   UNL     1      40.966   6.980  19.046  0.00  0.00    +0.000 OA
ENDBRANCH  22  29
BRANCH  27  30
ATOM     30  O   UNL     1      41.605   6.842  16.377  0.00  0.00    +0.000 OA
ATOM     31  C   UNL     1      41.354   8.067  15.743  0.00  0.00    +0.000 C 
ENDBRANCH  27  30
ENDBRANCH  21  25
ENDBRANCH  20  21
ENDBRANCH  17  20
ENDBRANCH   1  18
TORSDOF 7
ENDMDL
MODEL 10
REMARK VINA RESULT:      -7.2      4.704      8.079
REMARK  Name = 
REMARK  7 active torsions:
REMARK  status: ('A' for Active; 'I' for Inactive)
REMARK    1  A    between atoms: O_2  and  C_3
REMARK    2  A    between atoms: C_6  and  C_7
REMARK    3  A    between atoms: C_7  and  C_8
REMARK    4  A    between atoms: C_8  and  N_9
REMARK    5  A    between atoms: C_10  and  C_12
REMARK    6  A    between atoms: C_14  and  C_15
REMARK    7  A    between atoms: C_29  and  O_30
REMARK                            x       y       z     vdW  Elec       q    Type
REMARK                         _______ _______ _______ _____ _____    ______ ____
ROOT
ATOM      1  C   UNL     1      37.294   5.080  14.779  0.00  0.00    +0.000 A 
ATOM      2  C   UNL     1      38.283   5.590  15.617  0.00  0.00    +0.000 A 
ATOM      3  C   UNL     1      38.573   5.013  16.857  0.00  0.00    +0.000 A 
ATOM      4  N   UNL     1      37.864   3.935  17.230  0.00  0.00    +0.000 NA
ATOM      5  C   UNL     1      36.906   3.406  16.461  0.00  0.00    +0.000 A 
ATOM      6  C   UNL     1      36.232   2.304  16.885  0.00  0.00    +0.000 A 
ATOM      7  C   UNL     1      35.248   1.761  16.063  0.00  0.00    +0.000 A 
ATOM      8  C   UNL     1      34.962   2.321  14.848  0.00  0.00    +0.000 A 
ATOM      9  C   UNL     1      35.632   3.428  14.412  0.00  0.00    +0.000 A 
ATOM     10  C   UNL     1      36.611   3.972  15.233  0.00  0.00    +0.000 A 
ENDROOT
BRANCH   3  11
ATOM     11  C   UNL     1      39.579   5.586  17.736  0.00  0.00    +0.000 A 
ATOM     12  C   UNL     1      40.807   6.011  17.217  0.00  0.00    +0.000 A 
ATOM     13  C   UNL     1      41.735   6.586  18.057  0.00  0.00    +0.000 A 
ATOM     14  C   UNL     1      41.523   6.772  19.406  0.00  0.00    +0.000 A 
ATOM     15  C   UNL     1      40.304   6.347  19.919  0.00  0.00    +0.000 A 
ATOM     16  C   UNL     1      39.376   5.771  19.076  0.00  0.00    +0.000 A 
ENDBRANCH   3  11
BRANCH   1  18
ATOM     17  N   UNL     1      37.823   5.437  12.413  0.00  0.00    +0.000 NA
ATOM     18  C   UNL     1      37.017   5.771  13.535  0.00  0.00    +0.000 C 
ATOM     19  O   UNL     1      36.115   6.633  13.384  0.00  0.00    +0.000 OA
BRANCH  17  20
ATOM     20  C   UNL     1      37.679   6.035  11.111  0.00  0.00    +0.000 C 
BRANCH  20  21
ATOM     21  C   UNL     1      36.933   5.040  10.231  0.00  0.00    +0.000 C 
BRANCH  21  25
ATOM     22  C   UNL     1      33.859   6.766   7.778  0.00  0.00    +0.000 A 
ATOM     23  C   UNL     1      34.062   7.246   9.042  0.00  0.00    +0.000 A 
ATOM     24  C   UNL     1      35.059   6.705   9.850  0.00  0.00    +0.000 A 
ATOM     25  C   UNL     1      35.869   5.679   9.417  0.00  0.00    +0.000 A 
ATOM     26  C   UNL     1      35.637   5.221   8.145  0.00  0.00    +0.000 A 
ATOM     27  C   UNL     1      34.645   5.745   7.312  0.00  0.00    +0.000 A 
BRANCH  22  29
ATOM     28  C   UNL     1      33.053   8.345   6.046  0.00  0.00    +0.000 C 
ATOM     29  O   UNL     1      32.878   7.275   6.930  0.00  0.00    +0.000 OA
ENDBRANCH  22  29
BRANCH  27  30
ATOM     30  O   UNL     1      34.470   5.223   6.033  0.00  0.00    +0.000 OA
ATOM     31  C   UNL     1      35.191   4.083   5.650  0.00  0.00    +0.000 C 
ENDBRANCH  27  30
ENDBRANCH  21  25
ENDBRANCH  20  21
ENDBRANCH  17  20
ENDBRANCH   1  18
TORSDOF 7
ENDMDL
