MODEL 1
REMARK VINA RESULT:      -8.2      0.000      0.000
REMARK  Name = 
REMARK  5 active torsions:
REMARK  status: ('A' for Active; 'I' for Inactive)
REMARK    1  A    between atoms: C_18  and  C_19
REMARK    2  A    between atoms: C_22  and  O_23
REMARK    3  A    between atoms: O_23  and  C_24
REMARK    4  A    between atoms: C_24  and  C_25
REMARK    5  A    between atoms: C_25  and  N_26
REMARK                            x       y       z     vdW  Elec       q    Type
REMARK                         _______ _______ _______ _____ _____    ______ ____
ROOT
ATOM      1  O   UNL     1      39.325  -3.806  18.610  0.00  0.00    +0.000 OA
ATOM      2  C   UNL     1      38.539  -2.915  17.893  0.00  0.00    +0.000 A 
ATOM      3  C   UNL     1      37.402  -2.456  18.533  0.00  0.00    +0.000 A 
ATOM      4  C   UNL     1      36.549  -1.584  17.951  0.00  0.00    +0.000 A 
ATOM      5  C   UNL     1      36.851  -1.149  16.655  0.00  0.00    +0.000 A 
ATOM      6  C   UNL     1      37.997  -1.616  16.016  0.00  0.00    +0.000 A 
ATOM      7  C   UNL     1      38.844  -2.490  16.613  0.00  0.00    +0.000 A 
ATOM      8  C   UNL     1      38.225  -1.138  14.659  0.00  0.00    +0.000 A 
ATOM      9  S   UNL     1      39.547  -1.483  13.595  0.00  0.00    +0.000 S 
ATOM     10  C   UNL     1      39.030  -0.505  12.257  0.00  0.00    +0.000 A 
ATOM     11  C   UNL     1      39.575  -0.261  11.007  0.00  0.00    +0.000 A 
ATOM     12  C   UNL     1      38.936   0.579  10.116  0.00  0.00    +0.000 A 
ATOM     13  O   UNL     1      39.443   0.853   8.860  0.00  0.00    +0.000 OA
ATOM     14  C   UNL     1      37.754   1.137  10.550  0.00  0.00    +0.000 A 
ATOM     15  C   UNL     1      37.227   0.883  11.792  0.00  0.00    +0.000 A 
ATOM     16  C   UNL     1      37.874   0.030  12.700  0.00  0.00    +0.000 A 
ATOM     17  C   UNL     1      37.440  -0.291  13.954  0.00  0.00    +0.000 A 
ATOM     18  C   UNL     1      36.100   0.213  14.640  0.00  0.00    +0.000 C 
ATOM     19  O   UNL     1      36.119  -0.304  15.969  0.00  0.00    +0.000 OA
ENDROOT
BRANCH  18  20
ATOM     20  C   UNL     1      36.437   1.756  14.833  0.00  0.00    +0.000 A 
ATOM     21  C   UNL     1      35.466   2.570  14.293  0.00  0.00    +0.000 A 
ATOM     22  C   UNL     1      35.610   3.973  14.380  0.00  0.00    +0.000 A 
ATOM     23  C   UNL     1      36.717   4.503  15.002  0.00  0.00    +0.000 A 
ATOM     24  C   UNL     1      37.661   3.661  15.526  0.00  0.00    +0.000 A 
ATOM     25  C   UNL     1      37.472   2.301  15.414  0.00  0.00    +0.000 A 
BRANCH  23  26
ATOM     26  O   UNL     1      36.851   5.898  15.081  0.00  0.00    +0.000 OA
BRANCH  26  27
ATOM     27  C   UNL     1      38.074   6.524  15.281  0.00  0.00    +0.000 C 
BRANCH  27  28
ATOM     28  C   UNL     1      38.056   7.543  16.396  0.00  0.00    +0.000 C 
BRANCH  28  29
ATOM     29  N   UNL     1      38.310   6.969  17.677  0.00  0.00    +0.000 NA
ATOM     30  C   UNL     1      37.903   7.796  18.789  0.00  0.00    +0.000 C 
ATOM     31  C   UNL     1      39.072   8.302  19.606  0.00  0.00    +0.000 C 
ATOM     32  C   UNL     1      39.808   7.157  20.267  0.00  0.00    +0.000 C 
ATOM     33  C   UNL     1      39.821   6.012  19.295  0.00  0.00    +0.000 C 
ATOM     34  C   UNL     1      39.647   6.510  17.888  0.00  0.00    +0.000 C 
ENDBRANCH  28  29
ENDBRANCH  27  28
ENDBRANCH  26  27
ENDBRANCH  23  26
ENDBRANCH  18  20
TORSDOF 5
ENDMDL
MODEL 2
REMARK VINA RESULT:      -7.9      4.882      9.233
REMARK  Name = 
REMARK  5 active torsions:
REMARK  status: ('A' for Active; 'I' for Inactive)
REMARK    1  A    between atoms: C_18  and  C_19
REMARK    2  A    between atoms: C_22  and  O_23
REMARK    3  A    between atoms: O_23  and  C_24
REMARK    4  A    between atoms: C_24  and  C_25
REMARK    5  A    between atoms: C_25  and  N_26
REMARK                            x       y       z     vdW  Elec       q    Type
REMARK                         _______ _______ _______ _____ _____    ______ ____
ROOT
ATOM      1  O   UNL     1      36.899   5.144  12.867  0.00  0.00    +0.000 OA
ATOM      2  C   UNL     1      37.446   5.134  14.142  0.00  0.00    +0.000 A 
ATOM      3  C   UNL     1      38.002   3.937  14.556  0.00  0.00    +0.000 A 
ATOM      4  C   UNL     1      38.571   3.789  15.773  0.00  0.00    +0.000 A 
ATOM      5  C   UNL     1      38.582   4.901  16.624  0.00  0.00    +0.000 A 
ATOM      6  C   UNL     1      38.021   6.102  16.201  0.00  0.00    +0.000 A 
ATOM      7  C   UNL     1      37.454   6.237  14.976  0.00  0.00    +0.000 A 
ATOM      8  C   UNL     1      38.047   7.203  17.154  0.00  0.00    +0.000 A 
ATOM      9  S   UNL     1      37.475   8.826  16.955  0.00  0.00    +0.000 S 
ATOM     10  C   UNL     1      37.923   9.424  18.522  0.00  0.00    +0.000 A 
ATOM     11  C   UNL     1      37.788  10.663  19.127  0.00  0.00    +0.000 A 
ATOM     12  C   UNL     1      38.242  10.867  20.416  0.00  0.00    +0.000 A 
ATOM     13  O   UNL     1      38.130  12.085  21.059  0.00  0.00    +0.000 OA
ATOM     14  C   UNL     1      38.820   9.780  21.034  0.00  0.00    +0.000 A 
ATOM     15  C   UNL     1      38.945   8.558  20.419  0.00  0.00    +0.000 A 
ATOM     16  C   UNL     1      38.484   8.348  19.109  0.00  0.00    +0.000 A 
ATOM     17  C   UNL     1      38.557   7.180  18.407  0.00  0.00    +0.000 A 
ATOM     18  C   UNL     1      39.155   5.806  18.933  0.00  0.00    +0.000 C 
ATOM     19  O   UNL     1      39.101   4.905  17.828  0.00  0.00    +0.000 OA
ENDROOT
BRANCH  18  20
ATOM     20  C   UNL     1      40.697   6.182  19.034  0.00  0.00    +0.000 A 
ATOM     21  C   UNL     1      41.169   6.089  20.325  0.00  0.00    +0.000 A 
ATOM     22  C   UNL     1      42.524   6.389  20.592  0.00  0.00    +0.000 A 
ATOM     23  C   UNL     1      43.350   6.769  19.559  0.00  0.00    +0.000 A 
ATOM     24  C   UNL     1      42.843   6.850  18.289  0.00  0.00    +0.000 A 
ATOM     25  C   UNL     1      41.515   6.547  18.084  0.00  0.00    +0.000 A 
BRANCH  23  26
ATOM     26  O   UNL     1      44.693   7.066  19.834  0.00  0.00    +0.000 OA
BRANCH  26  27
ATOM     27  C   UNL     1      45.185   8.364  19.863  0.00  0.00    +0.000 C 
BRANCH  27  28
ATOM     28  C   UNL     1      44.285   9.334  20.591  0.00  0.00    +0.000 C 
BRANCH  28  29
ATOM     29  N   UNL     1      43.805  10.383  19.753  0.00  0.00    +0.000 NA
ATOM     30  C   UNL     1      42.380  10.606  19.836  0.00  0.00    +0.000 C 
ATOM     31  C   UNL     1      41.652  10.254  18.557  0.00  0.00    +0.000 C 
ATOM     32  C   UNL     1      42.085  11.156  17.422  0.00  0.00    +0.000 C 
ATOM     33  C   UNL     1      43.559  11.398  17.579  0.00  0.00    +0.000 C 
ATOM     34  C   UNL     1      44.194  10.297  18.380  0.00  0.00    +0.000 C 
ENDBRANCH  28  29
ENDBRANCH  27  28
ENDBRANCH  26  27
ENDBRANCH  23  26
ENDBRANCH  18  20
TORSDOF 5
ENDMDL
MODEL 3
REMARK VINA RESULT:      -7.6      3.044      4.960
REMARK  Name = 
REMARK  5 active torsions:
REMARK  status: ('A' for Active; 'I' for Inactive)
REMARK    1  A    between atoms: C_18  and  C_19
REMARK    2  A    between atoms: C_22  and  O_23
REMARK    3  A    between atoms: O_23  and  C_24
REMARK    4  A    between atoms: C_24  and  C_25
REMARK    5  A    between atoms: C_25  and  N_26
REMARK                            x       y       z     vdW  Elec       q    Type
REMARK                         _______ _______ _______ _____ _____    ______ ____
ROOT
ATOM      1  O   UNL     1      36.284  -1.553  15.518  0.00  0.00    +0.000 OA
ATOM      2  C   UNL     1      36.355  -0.167  15.545  0.00  0.00    +0.000 A 
ATOM      3  C   UNL     1      35.280   0.486  16.122  0.00  0.00    +0.000 A 
ATOM      4  C   UNL     1      35.221   1.833  16.216  0.00  0.00    +0.000 A 
ATOM      5  C   UNL     1      36.297   2.567  15.703  0.00  0.00    +0.000 A 
ATOM      6  C   UNL     1      37.375   1.904  15.125  0.00  0.00    +0.000 A 
ATOM      7  C   UNL     1      37.422   0.551  15.037  0.00  0.00    +0.000 A 
ATOM      8  C   UNL     1      38.442   2.739  14.590  0.00  0.00    +0.000 A 
ATOM      9  S   UNL     1      39.927   2.257  13.840  0.00  0.00    +0.000 S 
ATOM     10  C   UNL     1      40.570   3.844  13.556  0.00  0.00    +0.000 A 
ATOM     11  C   UNL     1      41.747   4.290  12.977  0.00  0.00    +0.000 A 
ATOM     12  C   UNL     1      42.009   5.642  12.875  0.00  0.00    +0.000 A 
ATOM     13  O   UNL     1      43.171   6.133  12.307  0.00  0.00    +0.000 OA
ATOM     14  C   UNL     1      41.043   6.487  13.375  0.00  0.00    +0.000 A 
ATOM     15  C   UNL     1      39.881   6.028  13.944  0.00  0.00    +0.000 A 
ATOM     16  C   UNL     1      39.612   4.654  14.050  0.00  0.00    +0.000 A 
ATOM     17  C   UNL     1      38.493   4.091  14.594  0.00  0.00    +0.000 A 
ATOM     18  C   UNL     1      37.251   4.873  15.200  0.00  0.00    +0.000 C 
ATOM     19  O   UNL     1      36.378   3.876  15.728  0.00  0.00    +0.000 OA
ENDROOT
BRANCH  18  20
ATOM     20  C   UNL     1      37.916   5.513  16.496  0.00  0.00    +0.000 A 
ATOM     21  C   UNL     1      38.448   4.555  17.331  0.00  0.00    +0.000 A 
ATOM     22  C   UNL     1      39.080   4.954  18.530  0.00  0.00    +0.000 A 
ATOM     23  C   UNL     1      39.154   6.292  18.844  0.00  0.00    +0.000 A 
ATOM     24  C   UNL     1      38.612   7.214  17.988  0.00  0.00    +0.000 A 
ATOM     25  C   UNL     1      38.008   6.771  16.833  0.00  0.00    +0.000 A 
BRANCH  23  26
ATOM     26  O   UNL     1      39.782   6.678  20.038  0.00  0.00    +0.000 OA
BRANCH  26  27
ATOM     27  C   UNL     1      41.151   6.567  20.235  0.00  0.00    +0.000 C 
BRANCH  27  28
ATOM     28  C   UNL     1      41.884   7.884  20.138  0.00  0.00    +0.000 C 
BRANCH  28  29
ATOM     29  N   UNL     1      42.746   7.958  19.004  0.00  0.00    +0.000 NA
ATOM     30  C   UNL     1      42.062   8.171  17.750  0.00  0.00    +0.000 C 
ATOM     31  C   UNL     1      42.156   6.984  16.816  0.00  0.00    +0.000 C 
ATOM     32  C   UNL     1      43.590   6.736  16.399  0.00  0.00    +0.000 C 
ATOM     33  C   UNL     1      44.458   7.011  17.593  0.00  0.00    +0.000 C 
ATOM     34  C   UNL     1      43.669   6.875  18.864  0.00  0.00    +0.000 C 
ENDBRANCH  28  29
ENDBRANCH  27  28
ENDBRANCH  26  27
ENDBRANCH  23  26
ENDBRANCH  18  20
TORSDOF 5
ENDMDL
MODEL 4
REMARK VINA RESULT:      -7.5      3.204      4.460
REMARK  Name = 
REMARK  5 active torsions:
REMARK  status: ('A' for Active; 'I' for Inactive)
REMARK    1  A    between atoms: C_18  and  C_19
REMARK    2  A    between atoms: C_22  and  O_23
REMARK    3  A    between atoms: O_23  and  C_24
REMARK    4  A    between atoms: C_24  and  C_25
REMARK    5  A    between atoms: C_25  and  N_26
REMARK                            x       y       z     vdW  Elec       q    Type
REMARK                         _______ _______ _______ _____ _____    ______ ____
ROOT
ATOM      1  O   UNL     1      35.564  -2.248  16.717  0.00  0.00    +0.000 OA
ATOM      2  C   UNL     1      35.745  -0.889  16.505  0.00  0.00    +0.000 A 
ATOM      3  C   UNL     1      34.748  -0.059  16.987  0.00  0.00    +0.000 A 
ATOM      4  C   UNL     1      34.799   1.284  16.850  0.00  0.00    +0.000 A 
ATOM      5  C   UNL     1      35.910   1.828  16.193  0.00  0.00    +0.000 A 
ATOM      6  C   UNL     1      36.909   0.987  15.710  0.00  0.00    +0.000 A 
ATOM      7  C   UNL     1      36.845  -0.360  15.855  0.00  0.00    +0.000 A 
ATOM      8  C   UNL     1      38.016   1.627  15.013  0.00  0.00    +0.000 A 
ATOM      9  S   UNL     1      39.428   0.901  14.320  0.00  0.00    +0.000 S 
ATOM     10  C   UNL     1      40.183   2.358  13.752  0.00  0.00    +0.000 A 
ATOM     11  C   UNL     1      41.368   2.598  13.077  0.00  0.00    +0.000 A 
ATOM     12  C   UNL     1      41.732   3.887  12.737  0.00  0.00    +0.000 A 
ATOM     13  O   UNL     1      42.906   4.174  12.065  0.00  0.00    +0.000 OA
ATOM     14  C   UNL     1      40.856   4.883  13.109  0.00  0.00    +0.000 A 
ATOM     15  C   UNL     1      39.684   4.626  13.777  0.00  0.00    +0.000 A 
ATOM     16  C   UNL     1      39.312   3.317  14.124  0.00  0.00    +0.000 A 
ATOM     17  C   UNL     1      38.174   2.951  14.784  0.00  0.00    +0.000 A 
ATOM     18  C   UNL     1      37.022   3.926  15.277  0.00  0.00    +0.000 C 
ATOM     19  O   UNL     1      36.094   3.110  15.991  0.00  0.00    +0.000 OA
ENDROOT
BRANCH  18  20
ATOM     20  C   UNL     1      37.786   4.717  16.427  0.00  0.00    +0.000 A 
ATOM     21  C   UNL     1      37.841   6.071  16.175  0.00  0.00    +0.000 A 
ATOM     22  C   UNL     1      38.486   6.922  17.101  0.00  0.00    +0.000 A 
ATOM     23  C   UNL     1      39.047   6.387  18.237  0.00  0.00    +0.000 A 
ATOM     24  C   UNL     1      38.972   5.036  18.452  0.00  0.00    +0.000 A 
ATOM     25  C   UNL     1      38.332   4.251  17.518  0.00  0.00    +0.000 A 
BRANCH  23  26
ATOM     26  O   UNL     1      39.686   7.241  19.149  0.00  0.00    +0.000 OA
BRANCH  26  27
ATOM     27  C   UNL     1      40.755   6.835  19.936  0.00  0.00    +0.000 C 
BRANCH  27  28
ATOM     28  C   UNL     1      41.920   7.795  19.914  0.00  0.00    +0.000 C 
BRANCH  28  29
ATOM     29  N   UNL     1      42.991   7.390  20.765  0.00  0.00    +0.000 NA
ATOM     30  C   UNL     1      44.305   7.721  20.266  0.00  0.00    +0.000 C 
ATOM     31  C   UNL     1      45.121   6.501  19.895  0.00  0.00    +0.000 C 
ATOM     32  C   UNL     1      45.409   5.652  21.115  0.00  0.00    +0.000 C 
ATOM     33  C   UNL     1      44.184   5.684  21.983  0.00  0.00    +0.000 C 
ATOM     34  C   UNL     1      42.967   6.018  21.169  0.00  0.00    +0.000 C 
ENDBRANCH  28  29
ENDBRANCH  27  28
ENDBRANCH  26  27
ENDBRANCH  23  26
ENDBRANCH  18  20
TORSDOF 5
ENDMDL
MODEL 5
REMARK VINA RESULT:      -7.5      5.770      8.822
REMARK  Name = 
REMARK  5 active torsions:
REMARK  status: ('A' for Active; 'I' for Inactive)
REMARK    1  A    between atoms: C_18  and  C_19
REMARK    2  A    between atoms: C_22  and  O_23
REMARK    3  A    between atoms: O_23  and  C_24
REMARK    4  A    between atoms: C_24  and  C_25
REMARK    5  A    between atoms: C_25  and  N_26
REMARK                            x       y       z     vdW  Elec       q    Type
REMARK                         _______ _______ _______ _____ _____    ______ ____
ROOT
ATOM      1  O   UNL     1      47.259   7.685  18.234  0.00  0.00    +0.000 OA
ATOM      2  C   UNL     1      46.007   7.433  18.777  0.00  0.00    +0.000 A 
ATOM      3  C   UNL     1      45.924   7.471  20.158  0.00  0.00    +0.000 A 
ATOM      4  C   UNL     1      44.765   7.247  20.816  0.00  0.00    +0.000 A 
ATOM      5  C   UNL     1      43.627   6.968  20.051  0.00  0.00    +0.000 A 
ATOM      6  C   UNL     1      43.718   6.931  18.662  0.00  0.00    +0.000 A 
ATOM      7  C   UNL     1      44.887   7.159  18.014  0.00  0.00    +0.000 A 
ATOM      8  C   UNL     1      42.496   6.606  17.939  0.00  0.00    +0.000 A 
ATOM      9  S   UNL     1      42.240   6.505  16.229  0.00  0.00    +0.000 S 
ATOM     10  C   UNL     1      40.551   6.110  16.269  0.00  0.00    +0.000 A 
ATOM     11  C   UNL     1      39.620   5.865  15.272  0.00  0.00    +0.000 A 
ATOM     12  C   UNL     1      38.311   5.564  15.595  0.00  0.00    +0.000 A 
ATOM     13  O   UNL     1      37.348   5.314  14.634  0.00  0.00    +0.000 OA
ATOM     14  C   UNL     1      38.010   5.526  16.938  0.00  0.00    +0.000 A 
ATOM     15  C   UNL     1      38.946   5.769  17.914  0.00  0.00    +0.000 A 
ATOM     16  C   UNL     1      40.277   6.076  17.589  0.00  0.00    +0.000 A 
ATOM     17  C   UNL     1      41.284   6.333  18.475  0.00  0.00    +0.000 A 
ATOM     18  C   UNL     1      41.166   6.316  20.058  0.00  0.00    +0.000 C 
ATOM     19  O   UNL     1      42.438   6.734  20.552  0.00  0.00    +0.000 OA
ENDROOT
BRANCH  18  20
ATOM     20  C   UNL     1      40.238   7.587  20.293  0.00  0.00    +0.000 A 
ATOM     21  C   UNL     1      40.943   8.767  20.197  0.00  0.00    +0.000 A 
ATOM     22  C   UNL     1      40.267   9.995  20.378  0.00  0.00    +0.000 A 
ATOM     23  C   UNL     1      38.917   9.992  20.647  0.00  0.00    +0.000 A 
ATOM     24  C   UNL     1      38.252   8.798  20.735  0.00  0.00    +0.000 A 
ATOM     25  C   UNL     1      38.958   7.631  20.550  0.00  0.00    +0.000 A 
BRANCH  23  26
ATOM     26  O   UNL     1      38.256  11.217  20.826  0.00  0.00    +0.000 OA
BRANCH  26  27
ATOM     27  C   UNL     1      38.156  12.170  19.822  0.00  0.00    +0.000 C 
BRANCH  27  28
ATOM     28  C   UNL     1      37.089  11.862  18.800  0.00  0.00    +0.000 C 
BRANCH  28  29
ATOM     29  N   UNL     1      37.625  11.489  17.532  0.00  0.00    +0.000 NA
ATOM     30  C   UNL     1      37.321  10.135  17.132  0.00  0.00    +0.000 C 
ATOM     31  C   UNL     1      38.544   9.246  17.081  0.00  0.00    +0.000 C 
ATOM     32  C   UNL     1      39.513   9.718  16.018  0.00  0.00    +0.000 C 
ATOM     33  C   UNL     1      39.494  11.220  16.031  0.00  0.00    +0.000 C 
ATOM     34  C   UNL     1      39.024  11.733  17.363  0.00  0.00    +0.000 C 
ENDBRANCH  28  29
ENDBRANCH  27  28
ENDBRANCH  26  27
ENDBRANCH  23  26
ENDBRANCH  18  20
TORSDOF 5
ENDMDL
MODEL 6
REMARK VINA RESULT:      -7.4      5.123      9.698
REMARK  Name = 
REMARK  5 active torsions:
REMARK  status: ('A' for Active; 'I' for Inactive)
REMARK    1  A    between atoms: C_18  and  C_19
REMARK    2  A    between atoms: C_22  and  O_23
REMARK    3  A    between atoms: O_23  and  C_24
REMARK    4  A    between atoms: C_24  and  C_25
REMARK    5  A    between atoms: C_25  and  N_26
REMARK                            x       y       z     vdW  Elec       q    Type
REMARK                         _______ _______ _______ _____ _____    ______ ____
ROOT
ATOM      1  O   UNL     1      37.165   4.877  12.646  0.00  0.00    +0.000 OA
ATOM      2  C   UNL     1      37.656   4.901  13.943  0.00  0.00    +0.000 A 
ATOM      3  C   UNL     1      38.214   3.722  14.405  0.00  0.00    +0.000 A 
ATOM      4  C   UNL     1      38.730   3.608  15.648  0.00  0.00    +0.000 A 
ATOM      5  C   UNL     1      38.686   4.737  16.476  0.00  0.00    +0.000 A 
ATOM      6  C   UNL     1      38.122   5.919  16.005  0.00  0.00    +0.000 A 
ATOM      7  C   UNL     1      37.608   6.020  14.755  0.00  0.00    +0.000 A 
ATOM      8  C   UNL     1      38.088   7.039  16.936  0.00  0.00    +0.000 A 
ATOM      9  S   UNL     1      37.497   8.647  16.680  0.00  0.00    +0.000 S 
ATOM     10  C   UNL     1      37.866   9.283  18.252  0.00  0.00    +0.000 A 
ATOM     11  C   UNL     1      37.683  10.531  18.825  0.00  0.00    +0.000 A 
ATOM     12  C   UNL     1      38.077  10.768  20.128  0.00  0.00    +0.000 A 
ATOM     13  O   UNL     1      37.915  11.997  20.741  0.00  0.00    +0.000 OA
ATOM     14  C   UNL     1      38.646   9.704  20.793  0.00  0.00    +0.000 A 
ATOM     15  C   UNL     1      38.818   8.473  20.209  0.00  0.00    +0.000 A 
ATOM     16  C   UNL     1      38.420   8.230  18.885  0.00  0.00    +0.000 A 
ATOM     17  C   UNL     1      38.542   7.049  18.211  0.00  0.00    +0.000 A 
ATOM     18  C   UNL     1      39.140   5.697  18.789  0.00  0.00    +0.000 C 
ATOM     19  O   UNL     1      39.151   4.773  17.702  0.00  0.00    +0.000 OA
ENDROOT
BRANCH  18  20
ATOM     20  C   UNL     1      40.670   6.103  18.950  0.00  0.00    +0.000 A 
ATOM     21  C   UNL     1      41.070   6.104  20.269  0.00  0.00    +0.000 A 
ATOM     22  C   UNL     1      42.404   6.442  20.589  0.00  0.00    +0.000 A 
ATOM     23  C   UNL     1      43.282   6.764  19.580  0.00  0.00    +0.000 A 
ATOM     24  C   UNL     1      42.847   6.752  18.281  0.00  0.00    +0.000 A 
ATOM     25  C   UNL     1      41.536   6.415  18.024  0.00  0.00    +0.000 A 
BRANCH  23  26
ATOM     26  O   UNL     1      44.605   7.099  19.908  0.00  0.00    +0.000 OA
BRANCH  26  27
ATOM     27  C   UNL     1      45.436   6.253  20.630  0.00  0.00    +0.000 C 
BRANCH  27  28
ATOM     28  C   UNL     1      46.610   5.737  19.833  0.00  0.00    +0.000 C 
BRANCH  28  29
ATOM     29  N   UNL     1      47.405   4.800  20.558  0.00  0.00    +0.000 NA
ATOM     30  C   UNL     1      47.505   3.499  19.938  0.00  0.00    +0.000 C 
ATOM     31  C   UNL     1      46.818   2.411  20.734  0.00  0.00    +0.000 C 
ATOM     32  C   UNL     1      47.492   2.215  22.075  0.00  0.00    +0.000 C 
ATOM     33  C   UNL     1      47.899   3.571  22.574  0.00  0.00    +0.000 C 
ATOM     34  C   UNL     1      47.062   4.644  21.938  0.00  0.00    +0.000 C 
ENDBRANCH  28  29
ENDBRANCH  27  28
ENDBRANCH  26  27
ENDBRANCH  23  26
ENDBRANCH  18  20
TORSDOF 5
ENDMDL
MODEL 7
REMARK VINA RESULT:      -7.4      4.975      9.629
REMARK  Name = 
REMARK  5 active torsions:
REMARK  status: ('A' for Active; 'I' for Inactive)
REMARK    1  A    between atoms: C_18  and  C_19
REMARK    2  A    between atoms: C_22  and  O_23
REMARK    3  A    between atoms: O_23  and  C_24
REMARK    4  A    between atoms: C_24  and  C_25
REMARK    5  A    between atoms: C_25  and  N_26
REMARK                            x       y       z     vdW  Elec       q    Type
REMARK                         _______ _______ _______ _____ _____    ______ ____
ROOT
ATOM      1  O   UNL     1      36.925   5.157  12.877  0.00  0.00    +0.000 OA
ATOM      2  C   UNL     1      37.474   5.144  14.151  0.00  0.00    +0.000 A 
ATOM      3  C   UNL     1      38.037   3.948  14.560  0.00  0.00    +0.000 A 
ATOM      4  C   UNL     1      38.608   3.798  15.775  0.00  0.00    +0.000 A 
ATOM      5  C   UNL     1      38.615   4.907  16.630  0.00  0.00    +0.000 A 
ATOM      6  C   UNL     1      38.047   6.107  16.213  0.00  0.00    +0.000 A 
ATOM      7  C   UNL     1      37.477   6.244  14.990  0.00  0.00    +0.000 A 
ATOM      8  C   UNL     1      38.069   7.205  17.170  0.00  0.00    +0.000 A 
ATOM      9  S   UNL     1      37.488   8.825  16.978  0.00  0.00    +0.000 S 
ATOM     10  C   UNL     1      37.935   9.420  18.546  0.00  0.00    +0.000 A 
ATOM     11  C   UNL     1      37.795  10.656  19.156  0.00  0.00    +0.000 A 
ATOM     12  C   UNL     1      38.250  10.857  20.445  0.00  0.00    +0.000 A 
ATOM     13  O   UNL     1      38.133  12.073  21.093  0.00  0.00    +0.000 OA
ATOM     14  C   UNL     1      38.834   9.771  21.059  0.00  0.00    +0.000 A 
ATOM     15  C   UNL     1      38.964   8.552  20.439  0.00  0.00    +0.000 A 
ATOM     16  C   UNL     1      38.503   8.345  19.129  0.00  0.00    +0.000 A 
ATOM     17  C   UNL     1      38.580   7.179  18.423  0.00  0.00    +0.000 A 
ATOM     18  C   UNL     1      39.186   5.807  18.942  0.00  0.00    +0.000 C 
ATOM     19  O   UNL     1      39.135   4.909  17.834  0.00  0.00    +0.000 OA
ENDROOT
BRANCH  18  20
ATOM     20  C   UNL     1      40.727   6.190  19.043  0.00  0.00    +0.000 A 
ATOM     21  C   UNL     1      41.197   6.110  20.335  0.00  0.00    +0.000 A 
ATOM     22  C   UNL     1      42.550   6.417  20.601  0.00  0.00    +0.000 A 
ATOM     23  C   UNL     1      43.376   6.792  19.566  0.00  0.00    +0.000 A 
ATOM     24  C   UNL     1      42.871   6.860  18.295  0.00  0.00    +0.000 A 
ATOM     25  C   UNL     1      41.545   6.550  18.091  0.00  0.00    +0.000 A 
BRANCH  23  26
ATOM     26  O   UNL     1      44.718   7.097  19.842  0.00  0.00    +0.000 OA
BRANCH  26  27
ATOM     27  C   UNL     1      45.589   6.188  20.426  0.00  0.00    +0.000 C 
BRANCH  27  28
ATOM     28  C   UNL     1      46.229   6.695  21.696  0.00  0.00    +0.000 C 
BRANCH  28  29
ATOM     29  N   UNL     1      45.593   7.864  22.209  0.00  0.00    +0.000 NA
ATOM     30  C   UNL     1      46.497   8.952  22.502  0.00  0.00    +0.000 C 
ATOM     31  C   UNL     1      46.595   9.256  23.981  0.00  0.00    +0.000 C 
ATOM     32  C   UNL     1      45.269   9.744  24.523  0.00  0.00    +0.000 C 
ATOM     33  C   UNL     1      44.189   8.957  23.838  0.00  0.00    +0.000 C 
ATOM     34  C   UNL     1      44.727   7.651  23.327  0.00  0.00    +0.000 C 
ENDBRANCH  28  29
ENDBRANCH  27  28
ENDBRANCH  26  27
ENDBRANCH  23  26
ENDBRANCH  18  20
TORSDOF 5
ENDMDL
MODEL 8
REMARK VINA RESULT:      -7.3      2.751      4.286
REMARK  Name = 
REMARK  5 active torsions:
REMARK  status: ('A' for Active; 'I' for Inactive)
REMARK    1  A    between atoms: C_18  and  C_19
REMARK    2  A    between atoms: C_22  and  O_23
REMARK    3  A    between atoms: O_23  and  C_24
REMARK    4  A    between atoms: C_24  and  C_25
REMARK    5  A    between atoms: C_25  and  N_26
REMARK                            x       y       z     vdW  Elec       q    Type
REMARK                         _______ _______ _______ _____ _____    ______ ____
ROOT
ATOM      1  O   UNL     1      35.564  -2.009  16.207  0.00  0.00    +0.000 OA
ATOM      2  C   UNL     1      35.784  -0.641  16.114  0.00  0.00    +0.000 A 
ATOM      3  C   UNL     1      34.818   0.170  16.681  0.00  0.00    +0.000 A 
ATOM      4  C   UNL     1      34.908   1.518  16.663  0.00  0.00    +0.000 A 
ATOM      5  C   UNL     1      36.027   2.086  16.042  0.00  0.00    +0.000 A 
ATOM      6  C   UNL     1      36.995   1.263  15.474  0.00  0.00    +0.000 A 
ATOM      7  C   UNL     1      36.893  -0.089  15.499  0.00  0.00    +0.000 A 
ATOM      8  C   UNL     1      38.114   1.931  14.822  0.00  0.00    +0.000 A 
ATOM      9  S   UNL     1      39.496   1.229  14.049  0.00  0.00    +0.000 S 
ATOM     10  C   UNL     1      40.289   2.707  13.603  0.00  0.00    +0.000 A 
ATOM     11  C   UNL     1      41.474   2.973  12.936  0.00  0.00    +0.000 A 
ATOM     12  C   UNL     1      41.873   4.275  12.708  0.00  0.00    +0.000 A 
ATOM     13  O   UNL     1      43.048   4.587  12.049  0.00  0.00    +0.000 OA
ATOM     14  C   UNL     1      41.031   5.259  13.178  0.00  0.00    +0.000 A 
ATOM     15  C   UNL     1      39.859   4.978  13.837  0.00  0.00    +0.000 A 
ATOM     16  C   UNL     1      39.451   3.655  14.070  0.00  0.00    +0.000 A 
ATOM     17  C   UNL     1      38.310   3.265  14.710  0.00  0.00    +0.000 A 
ATOM     18  C   UNL     1      37.193   4.225  15.303  0.00  0.00    +0.000 C 
ATOM     19  O   UNL     1      36.248   3.376  15.953  0.00  0.00    +0.000 OA
ENDROOT
BRANCH  18  20
ATOM     20  C   UNL     1      37.992   4.887  16.509  0.00  0.00    +0.000 A 
ATOM     21  C   UNL     1      38.190   6.238  16.318  0.00  0.00    +0.000 A 
ATOM     22  C   UNL     1      38.884   6.981  17.299  0.00  0.00    +0.000 A 
ATOM     23  C   UNL     1      39.351   6.346  18.427  0.00  0.00    +0.000 A 
ATOM     24  C   UNL     1      39.135   5.002  18.579  0.00  0.00    +0.000 A 
ATOM     25  C   UNL     1      38.453   4.325  17.593  0.00  0.00    +0.000 A 
BRANCH  23  26
ATOM     26  O   UNL     1      40.040   7.094  19.394  0.00  0.00    +0.000 OA
BRANCH  26  27
ATOM     27  C   UNL     1      40.602   8.334  19.124  0.00  0.00    +0.000 C 
BRANCH  27  28
ATOM     28  C   UNL     1      40.194   9.408  20.105  0.00  0.00    +0.000 C 
BRANCH  28  29
ATOM     29  N   UNL     1      38.971  10.049  19.750  0.00  0.00    +0.000 NA
ATOM     30  C   UNL     1      37.796   9.464  20.353  0.00  0.00    +0.000 C 
ATOM     31  C   UNL     1      36.882   8.803  19.344  0.00  0.00    +0.000 C 
ATOM     32  C   UNL     1      36.314   9.822  18.380  0.00  0.00    +0.000 C 
ATOM     33  C   UNL     1      37.399  10.819  18.091  0.00  0.00    +0.000 C 
ATOM     34  C   UNL     1      38.752  10.219  18.347  0.00  0.00    +0.000 C 
ENDBRANCH  28  29
ENDBRANCH  27  28
ENDBRANCH  26  27
ENDBRANCH  23  26
ENDBRANCH  18  20
TORSDOF 5
ENDMDL
MODEL 9
REMARK VINA RESULT:      -7.2      4.824      7.765
REMARK  Name = 
REMARK  5 active torsions:
REMARK  status: ('A' for Active; 'I' for Inactive)
REMARK    1  A    between atoms: C_18  and  C_19
REMARK    2  A    between atoms: C_22  and  O_23
REMARK    3  A    between atoms: O_23  and  C_24
REMARK    4  A    between atoms: C_24  and  C_25
REMARK    5  A    between atoms: C_25  and  N_26
REMARK                            x       y       z     vdW  Elec       q    Type
REMARK                         _______ _______ _______ _____ _____    ______ ____
ROOT
ATOM      1  O   UNL     1      48.116   1.512  14.471  0.00  0.00    +0.000 OA
ATOM      2  C   UNL     1      46.965   0.741  14.549  0.00  0.00    +0.000 A 
ATOM      3  C   UNL     1      46.661   0.226  15.797  0.00  0.00    +0.000 A 
ATOM      4  C   UNL     1      45.569  -0.539  16.013  0.00  0.00    +0.000 A 
ATOM      5  C   UNL     1      44.734  -0.805  14.920  0.00  0.00    +0.000 A 
ATOM      6  C   UNL     1      45.047  -0.284  13.668  0.00  0.00    +0.000 A 
ATOM      7  C   UNL     1      46.146   0.484  13.464  0.00  0.00    +0.000 A 
ATOM      8  C   UNL     1      44.146  -0.629  12.577  0.00  0.00    +0.000 A 
ATOM      9  S   UNL     1      44.210  -0.136  10.918  0.00  0.00    +0.000 S 
ATOM     10  C   UNL     1      42.784  -0.963  10.374  0.00  0.00    +0.000 A 
ATOM     11  C   UNL     1      42.165  -1.053   9.138  0.00  0.00    +0.000 A 
ATOM     12  C   UNL     1      41.013  -1.799   8.983  0.00  0.00    +0.000 A 
ATOM     13  O   UNL     1      40.362  -1.917   7.769  0.00  0.00    +0.000 OA
ATOM     14  C   UNL     1      40.541  -2.427  10.115  0.00  0.00    +0.000 A 
ATOM     15  C   UNL     1      41.167  -2.328  11.333  0.00  0.00    +0.000 A 
ATOM     16  C   UNL     1      42.339  -1.569  11.493  0.00  0.00    +0.000 A 
ATOM     17  C   UNL     1      43.040  -1.405  12.652  0.00  0.00    +0.000 A 
ATOM     18  C   UNL     1      42.691  -2.055  14.058  0.00  0.00    +0.000 C 
ATOM     19  O   UNL     1      43.642  -1.527  14.983  0.00  0.00    +0.000 OA
ENDROOT
BRANCH  18  20
ATOM     20  C   UNL     1      41.351  -1.275  14.414  0.00  0.00    +0.000 A 
ATOM     21  C   UNL     1      40.474  -2.056  15.134  0.00  0.00    +0.000 A 
ATOM     22  C   UNL     1      39.231  -1.514  15.534  0.00  0.00    +0.000 A 
ATOM     23  C   UNL     1      38.918  -0.217  15.197  0.00  0.00    +0.000 A 
ATOM     24  C   UNL     1      39.816   0.527  14.480  0.00  0.00    +0.000 A 
ATOM     25  C   UNL     1      41.013  -0.050  14.116  0.00  0.00    +0.000 A 
BRANCH  23  26
ATOM     26  O   UNL     1      37.681   0.311  15.597  0.00  0.00    +0.000 OA
BRANCH  26  27
ATOM     27  C   UNL     1      36.476  -0.090  15.035  0.00  0.00    +0.000 C 
BRANCH  27  28
ATOM     28  C   UNL     1      35.485  -0.618  16.044  0.00  0.00    +0.000 C 
BRANCH  28  29
ATOM     29  N   UNL     1      35.329  -2.035  15.980  0.00  0.00    +0.000 NA
ATOM     30  C   UNL     1      35.690  -2.728  17.194  0.00  0.00    +0.000 C 
ATOM     31  C   UNL     1      36.917  -3.600  17.033  0.00  0.00    +0.000 C 
ATOM     32  C   UNL     1      36.660  -4.721  16.049  0.00  0.00    +0.000 C 
ATOM     33  C   UNL     1      35.804  -4.163  14.948  0.00  0.00    +0.000 C 
ATOM     34  C   UNL     1      35.956  -2.671  14.863  0.00  0.00    +0.000 C 
ENDBRANCH  28  29
ENDBRANCH  27  28
ENDBRANCH  26  27
ENDBRANCH  23  26
ENDBRANCH  18  20
TORSDOF 5
ENDMDL
MODEL 10
REMARK VINA RESULT:      -7.2      1.949      2.727
REMARK  Name = 
REMARK  5 active torsions:
REMARK  status: ('A' for Active; 'I' for Inactive)
REMARK    1  A    between atoms: C_18  and  C_19
REMARK    2  A    between atoms: C_22  and  O_23
REMARK    3  A    between atoms: O_23  and  C_24
REMARK    4  A    between atoms: C_24  and  C_25
REMARK    5  A    between atoms: C_25  and  N_26
REMARK                            x       y       z     vdW  Elec       q    Type
REMARK                         _______ _______ _______ _____ _____    ______ ____
ROOT
ATOM      1  O   UNL     1      36.146  -3.312  17.167  0.00  0.00    +0.000 OA
ATOM      2  C   UNL     1      35.927  -2.018  16.716  0.00  0.00    +0.000 A 
ATOM      3  C   UNL     1      35.005  -1.273  17.430  0.00  0.00    +0.000 A 
ATOM      4  C   UNL     1      34.698   0.001  17.101  0.00  0.00    +0.000 A 
ATOM      5  C   UNL     1      35.350   0.561  15.995  0.00  0.00    +0.000 A 
ATOM      6  C   UNL     1      36.276  -0.194  15.282  0.00  0.00    +0.000 A 
ATOM      7  C   UNL     1      36.575  -1.472  15.623  0.00  0.00    +0.000 A 
ATOM      8  C   UNL     1      36.889   0.450  14.128  0.00  0.00    +0.000 A 
ATOM      9  S   UNL     1      38.090  -0.174  13.047  0.00  0.00    +0.000 S 
ATOM     10  C   UNL     1      38.243   1.229  12.036  0.00  0.00    +0.000 A 
ATOM     11  C   UNL     1      39.026   1.504  10.926  0.00  0.00    +0.000 A 
ATOM     12  C   UNL     1      38.944   2.732  10.299  0.00  0.00    +0.000 A 
ATOM     13  O   UNL     1      39.705   3.052   9.190  0.00  0.00    +0.000 OA
ATOM     14  C   UNL     1      38.054   3.633  10.841  0.00  0.00    +0.000 A 
ATOM     15  C   UNL     1      37.285   3.342  11.942  0.00  0.00    +0.000 A 
ATOM     16  C   UNL     1      37.367   2.095  12.582  0.00  0.00    +0.000 A 
ATOM     17  C   UNL     1      36.651   1.703  13.676  0.00  0.00    +0.000 A 
ATOM     18  C   UNL     1      35.559   2.565  14.440  0.00  0.00    +0.000 C 
ATOM     19  O   UNL     1      35.154   1.784  15.563  0.00  0.00    +0.000 OA
ENDROOT
BRANCH  18  20
ATOM     20  C   UNL     1      36.479   3.694  15.082  0.00  0.00    +0.000 A 
ATOM     21  C   UNL     1      37.173   3.233  16.179  0.00  0.00    +0.000 A 
ATOM     22  C   UNL     1      38.041   4.111  16.868  0.00  0.00    +0.000 A 
ATOM     23  C   UNL     1      38.178   5.409  16.434  0.00  0.00    +0.000 A 
ATOM     24  C   UNL     1      37.470   5.829  15.339  0.00  0.00    +0.000 A 
ATOM     25  C   UNL     1      36.638   4.933  14.703  0.00  0.00    +0.000 A 
BRANCH  23  26
ATOM     26  O   UNL     1      39.040   6.272  17.126  0.00  0.00    +0.000 OA
BRANCH  26  27
ATOM     27  C   UNL     1      39.753   5.878  18.251  0.00  0.00    +0.000 C 
BRANCH  27  28
ATOM     28  C   UNL     1      39.324   6.583  19.515  0.00  0.00    +0.000 C 
BRANCH  28  29
ATOM     29  N   UNL     1      40.425   7.005  20.317  0.00  0.00    +0.000 NA
ATOM     30  C   UNL     1      40.780   8.396  20.155  0.00  0.00    +0.000 C 
ATOM     31  C   UNL     1      42.134   8.588  19.506  0.00  0.00    +0.000 C 
ATOM     32  C   UNL     1      43.238   8.042  20.386  0.00  0.00    +0.000 C 
ATOM     33  C   UNL     1      42.720   6.788  21.029  0.00  0.00    +0.000 C 
ATOM     34  C   UNL     1      41.602   6.199  20.216  0.00  0.00    +0.000 C 
ENDBRANCH  28  29
ENDBRANCH  27  28
ENDBRANCH  26  27
ENDBRANCH  23  26
ENDBRANCH  18  20
TORSDOF 5
ENDMDL
