
     RDKit          3D

 31 35  0  0  0  0  0  0  0  0999 V2000
   -5.2489    4.6986   -1.4095 O   0  0  0  0  0  0  0  0  0  0  0  0
   -4.3879    3.6184   -1.1366 C   0  0  0  0  0  0  0  0  0  0  0  0
   -3.0756    3.8260   -0.7999 C   0  0  0  0  0  0  0  0  0  0  0  0
   -2.2946    2.6984   -0.5455 C   0  0  0  0  0  0  0  0  0  0  0  0
   -2.8251    1.4448   -0.6314 C   0  0  0  0  0  0  0  0  0  0  0  0
   -4.1219    1.2608   -0.9653 C   0  0  0  0  0  0  0  0  0  0  0  0
   -4.9598    2.3525   -1.2326 C   0  0  0  0  0  0  0  0  0  0  0  0
   -4.7412   -0.0731   -1.0719 C   0  0  0  0  0  0  0  0  0  0  0  0
   -3.8875   -1.2236   -0.7999 C   0  0  0  0  0  0  0  0  0  0  0  0
   -2.4497   -0.9362   -0.4271 C   0  0  0  0  0  0  0  0  0  0  0  0
   -1.6224   -2.1177   -0.1015 C   0  0  0  0  0  0  0  0  0  0  0  0
   -1.4271   -3.1414   -1.0037 C   0  0  0  0  0  0  0  0  0  0  0  0
   -0.6930   -4.2625   -0.5883 C   0  0  0  0  0  0  0  0  0  0  0  0
   -0.1724   -4.3575    0.6841 C   0  0  0  0  0  0  0  0  0  0  0  0
   -0.3729   -3.3268    1.5832 C   0  0  0  0  0  0  0  0  0  0  0  0
   -1.0935   -2.2455    1.1474 C   0  0  0  0  0  0  0  0  0  0  0  0
   -1.9705    0.2673   -0.3536 C   0  0  0  0  0  0  0  0  0  0  0  0
   -0.5659    0.5279   -0.0312 C   0  0  0  0  0  0  0  0  0  0  0  0
    0.0161    1.5137   -0.8709 C   0  0  0  0  0  0  0  0  0  0  0  0
    1.3229    1.8951   -0.6918 C   0  0  0  0  0  0  0  0  0  0  0  0
    2.1181    1.3524    0.2893 C   0  0  0  0  0  0  0  0  0  0  0  0
    3.4336    1.7632    0.4384 O   0  0  0  0  0  0  0  0  0  0  0  0
    4.2175    1.1734    1.4661 C   0  0  0  0  0  0  0  0  0  0  0  0
    4.2714   -0.3283    1.1967 C   0  0  0  0  0  0  0  0  0  0  0  0
    4.8754   -0.5629   -0.0995 N   0  0  0  0  0  0  0  0  0  0  0  0
    6.2619   -0.2364   -0.1674 C   0  0  0  0  0  0  0  0  0  0  0  0
    6.9053   -1.4239    0.5388 C   0  0  0  0  0  0  0  0  0  0  0  0
    5.9913   -2.5900    0.2102 C   0  0  0  0  0  0  0  0  0  0  0  0
    4.7617   -1.9684   -0.3943 C   0  0  0  0  0  0  0  0  0  0  0  0
    1.5203    0.3941    1.0917 C   0  0  0  0  0  0  0  0  0  0  0  0
    0.2145    0.0077    0.9191 C   0  0  0  0  0  0  0  0  0  0  0  0
  1  2  1  0
  2  3  2  0
  3  4  1  0
  4  5  2  0
  5  6  1  0
  6  7  2  0
  6  8  1  0
  8  9  1  0
  9 10  1  0
 10 11  1  0
 11 12  2  0
 12 13  1  0
 13 14  2  0
 14 15  1  0
 15 16  2  0
 10 17  2  0
 17 18  1  0
 18 19  2  0
 19 20  1  0
 20 21  2  0
 21 22  1  0
 22 23  1  0
 23 24  1  0
 24 25  1  0
 25 26  1  0
 26 27  1  0
 27 28  1  0
 28 29  1  0
 21 30  1  0
 30 31  2  0
  7  2  1  0
 16 11  1  0
 31 18  1  0
 17  5  1  0
 29 25  1  0
M  END
>  <zinc_id>  (1) 
ZINC000003815477

>  <smiles>  (1) 
Oc1ccc2c(c1)CCC(c1ccccc1)=C2c1ccc(OCCN2CCCC2)cc1

$$$$
