
     RDKit          3D

 35 40  0  0  0  0  0  0  0  0999 V2000
   -5.6254   -2.8574    3.6305 O   0  0  0  0  0  0  0  0  0  0  0  0
   -4.7818   -1.8261    3.1625 C   0  0  0  0  0  0  0  0  0  0  0  0
   -4.1850   -0.9391    4.0214 C   0  0  0  0  0  0  0  0  0  0  0  0
   -3.3775    0.0433    3.5337 C   0  0  0  0  0  0  0  0  0  0  0  0
   -3.1027    0.2200    2.1713 C   0  0  0  0  0  0  0  0  0  0  0  0
   -3.7124   -0.6813    1.3329 C   0  0  0  0  0  0  0  0  0  0  0  0
   -4.5271   -1.6731    1.8181 C   0  0  0  0  0  0  0  0  0  0  0  0
   -3.4190   -0.5186   -0.0917 C   0  0  0  0  0  0  0  0  0  0  0  0
   -4.0360   -1.4154   -0.9499 C   0  0  0  0  0  0  0  0  0  0  0  0
   -3.8546   -1.3720   -2.3096 C   0  0  0  0  0  0  0  0  0  0  0  0
   -3.0249   -0.3937   -2.8242 C   0  0  0  0  0  0  0  0  0  0  0  0
   -2.8230   -0.3297   -4.1957 C   0  0  0  0  0  0  0  0  0  0  0  0
   -2.0119    0.6174   -4.7338 C   0  0  0  0  0  0  0  0  0  0  0  0
   -1.8298    0.6539   -6.1184 O   0  0  0  0  0  0  0  0  0  0  0  0
   -1.3960    1.5109   -3.8867 C   0  0  0  0  0  0  0  0  0  0  0  0
   -1.5906    1.4537   -2.5313 C   0  0  0  0  0  0  0  0  0  0  0  0
   -2.4123    0.4995   -1.9462 C   0  0  0  0  0  0  0  0  0  0  0  0
   -2.6057    0.4409   -0.5868 C   0  0  0  0  0  0  0  0  0  0  0  0
   -1.8741    1.4709    0.3330 C   0  0  2  0  0  0  0  0  0  0  0  0
   -0.4034    0.8350    0.3732 C   0  0  0  0  0  0  0  0  0  0  0  0
    0.0964    0.0749   -0.5732 C   0  0  0  0  0  0  0  0  0  0  0  0
    1.3680   -0.4288   -0.4543 C   0  0  0  0  0  0  0  0  0  0  0  0
    2.1164   -0.1325    0.6633 C   0  0  0  0  0  0  0  0  0  0  0  0
    3.4243   -0.6487    0.7914 O   0  0  0  0  0  0  0  0  0  0  0  0
    4.1504   -0.3322    1.9270 C   0  0  0  0  0  0  0  0  0  0  0  0
    5.5112   -0.8967    2.0297 C   0  0  0  0  0  0  0  0  0  0  0  0
    6.4596   -0.5815    1.0498 N   0  0  0  0  0  0  0  0  0  0  0  0
    6.2824   -1.0771   -0.2671 C   0  0  0  0  0  0  0  0  0  0  0  0
    7.6600   -1.2608   -0.8959 C   0  0  0  0  0  0  0  0  0  0  0  0
    8.3467    0.0675   -0.9278 C   0  0  0  0  0  0  0  0  0  0  0  0
    8.4365    0.7017    0.4190 C   0  0  0  0  0  0  0  0  0  0  0  0
    7.1318    0.6731    1.1780 C   0  0  0  0  0  0  0  0  0  0  0  0
    1.6189    0.6648    1.6773 C   0  0  0  0  0  0  0  0  0  0  0  0
    0.3124    1.1454    1.4893 C   0  0  0  0  0  0  0  0  0  0  0  0
   -2.3219    1.1721    1.6914 O   0  0  0  0  0  0  0  0  0  0  0  0
  1  2  1  0
  2  3  2  0
  3  4  1  0
  4  5  2  0
  5  6  1  0
  6  7  2  0
  6  8  1  0
  8  9  2  0
  9 10  1  0
 10 11  2  0
 11 12  1  0
 12 13  2  0
 13 14  1  0
 13 15  1  0
 15 16  2  0
 16 17  1  0
 17 18  2  0
 18 19  1  0
 19 20  1  1
 20 21  2  0
 21 22  1  0
 22 23  2  0
 23 24  1  0
 24 25  1  0
 25 26  1  0
 26 27  1  0
 27 28  1  0
 28 29  1  0
 29 30  1  0
 30 31  1  0
 31 32  1  0
 23 33  1  0
 33 34  2  0
 19 35  1  0
  7  2  1  0
 18  8  1  0
 34 20  1  0
 35  5  1  0
 17 11  1  0
 32 27  1  0
M  END
>  <zinc_id>  (1) 
ZINC000003815460

>  <smiles>  (1) 
Oc1ccc2c(c1)-c1ccc3cc(O)ccc3c1[C@H](c1ccc(OCCN3CCCCC3)cc1)O2

$$$$
