
     RDKit          3D

 30 33  0  0  0  0  0  0  0  0999 V2000
   -0.3634    3.2999    0.1594 C   0  0  0  0  0  0  0  0  0  0  0  0
   -1.8085    3.2327   -0.1561 C   0  0  0  0  0  0  0  0  0  0  0  0
   -2.5872    4.3683   -0.3658 C   0  0  0  0  0  0  0  0  0  0  0  0
   -3.9267    4.3188   -0.6565 C   0  0  0  0  0  0  0  0  0  0  0  0
   -4.7167    5.4470   -0.8680 O   0  0  0  0  0  0  0  0  0  0  0  0
   -4.5087    3.0487   -0.7397 C   0  0  0  0  0  0  0  0  0  0  0  0
   -3.7341    1.9253   -0.5316 C   0  0  0  0  0  0  0  0  0  0  0  0
   -2.3924    1.9881   -0.2407 C   0  0  0  0  0  0  0  0  0  0  0  0
   -1.5916    0.7686   -0.0165 C   0  0  0  0  0  0  0  0  0  0  0  0
   -2.1736   -0.4777   -0.0543 C   0  0  0  0  0  0  0  0  0  0  0  0
   -1.4381   -1.6184    0.1620 C   0  0  0  0  0  0  0  0  0  0  0  0
   -2.0905   -2.9123    0.1147 C   0  0  0  0  0  0  0  0  0  0  0  0
   -3.1611   -3.0421   -0.7551 C   0  0  0  0  0  0  0  0  0  0  0  0
   -3.8201   -4.2552   -0.8426 C   0  0  0  0  0  0  0  0  0  0  0  0
   -3.3806   -5.2933   -0.0537 C   0  0  0  0  0  0  0  0  0  0  0  0
   -2.3101   -5.1643    0.8160 C   0  0  0  0  0  0  0  0  0  0  0  0
   -1.6528   -3.9549    0.9036 C   0  0  0  0  0  0  0  0  0  0  0  0
   -0.0968   -1.4748    0.4177 C   0  0  0  0  0  0  0  0  0  0  0  0
    0.4795   -0.2369    0.4545 C   0  0  0  0  0  0  0  0  0  0  0  0
    1.8871   -0.0519    0.7274 N   0  0  0  0  0  0  0  0  0  0  0  0
    2.4299    1.2718    0.7134 C   0  0  0  0  0  0  0  0  0  0  0  0
    2.6528   -1.2155    1.0029 C   0  0  0  0  0  0  0  0  0  0  0  0
    3.6425   -1.6019   -0.0086 C   0  0  0  0  0  0  0  0  0  0  0  0
    4.7546   -0.6710   -0.2862 C   0  0  0  0  0  0  0  0  0  0  0  0
    5.6470   -1.0237   -1.3148 C   0  0  0  0  0  0  0  0  0  0  0  0
    6.7000   -0.1898   -1.5746 C   0  0  0  0  0  0  0  0  0  0  0  0
    6.8963    0.9680   -0.8573 C   0  0  0  0  0  0  0  0  0  0  0  0
    5.9798    1.2476    0.1368 C   0  0  0  0  0  0  0  0  0  0  0  0
    4.9599    0.4551    0.3999 N   0  0  0  0  0  0  0  0  0  0  0  0
   -0.2763    0.8438    0.2383 N   0  0  0  0  0  0  0  0  0  0  0  0
  1  2  1  0
  2  3  2  0
  3  4  1  0
  4  5  1  0
  4  6  2  0
  6  7  1  0
  7  8  2  0
  8  9  1  0
  9 10  2  0
 10 11  1  0
 11 12  1  0
 12 13  2  0
 13 14  1  0
 14 15  2  0
 15 16  1  0
 16 17  2  0
 11 18  2  0
 18 19  1  0
 19 20  1  0
 20 21  1  0
 20 22  1  0
 22 23  1  0
 23 24  1  0
 24 25  2  0
 25 26  1  0
 26 27  2  0
 27 28  1  0
 28 29  2  0
 19 30  2  0
  8  2  1  0
 30  9  1  0
 17 12  1  0
 29 24  1  0
M  END
>  <zinc_id>  (1) 
ZINC000003815475

>  <smiles>  (1) 
Cc1cc(O)ccc1-c1cc(-c2ccccc2)cc(N(C)CCc2ccccn2)n1

$$$$
