
     RDKit          3D

 34 38  0  0  0  0  0  0  0  0999 V2000
   -2.5843    6.6100   -0.0184 O   0  0  0  0  0  0  0  0  0  0  0  0
   -2.6437    5.2357    0.0723 C   0  0  0  0  0  0  0  0  0  0  0  0
   -3.8372    4.5988    0.3069 C   0  0  0  0  0  0  0  0  0  0  0  0
   -3.9207    3.2596    0.3994 C   0  0  0  0  0  0  0  0  0  0  0  0
   -2.7825    2.4115    0.2619 C   0  0  0  0  0  0  0  0  0  0  0  0
   -3.0207    0.9772    0.3788 C   0  0  0  0  0  0  0  0  0  0  0  0
   -3.9951    0.5542    1.3174 C   0  0  0  0  0  0  0  0  0  0  0  0
   -4.3532   -0.7697    1.4120 C   0  0  0  0  0  0  0  0  0  0  0  0
   -3.7945   -1.7401    0.6133 C   0  0  0  0  0  0  0  0  0  0  0  0
   -4.1559   -3.0713    0.7046 C   0  0  0  0  0  0  0  0  0  0  0  0
   -3.6018   -4.0482   -0.0947 C   0  0  0  0  0  0  0  0  0  0  0  0
   -3.9722   -5.3821    0.0044 O   0  0  0  0  0  0  0  0  0  0  0  0
   -2.6478   -3.6252   -1.0106 C   0  0  0  0  0  0  0  0  0  0  0  0
   -2.2748   -2.2924   -1.1132 C   0  0  0  0  0  0  0  0  0  0  0  0
   -2.8500   -1.3394   -0.2961 C   0  0  0  0  0  0  0  0  0  0  0  0
   -2.4795    0.0085   -0.3946 C   0  0  0  0  0  0  0  0  0  0  0  0
   -1.3609    0.2822   -1.3229 C   0  0  0  0  0  0  0  0  0  0  0  0
   -0.0744    0.0126   -0.6369 C   0  0  0  0  0  0  0  0  0  0  0  0
    0.4795   -1.2840   -0.6871 C   0  0  0  0  0  0  0  0  0  0  0  0
    1.6714   -1.5078   -0.0431 C   0  0  0  0  0  0  0  0  0  0  0  0
    2.3716   -0.5567    0.6524 C   0  0  0  0  0  0  0  0  0  0  0  0
    3.5750   -0.7661    1.3068 O   0  0  0  0  0  0  0  0  0  0  0  0
    4.2640   -1.9847    1.3521 C   0  0  0  0  0  0  0  0  0  0  0  0
    4.6640   -2.4738   -0.0264 C   0  0  0  0  0  0  0  0  0  0  0  0
    5.4983   -1.5235   -0.6463 N   0  0  0  0  0  0  0  0  0  0  0  0
    4.9626   -0.2862   -1.0232 C   0  0  0  0  0  0  0  0  0  0  0  0
    5.9589    0.8167   -1.2241 C   0  0  0  0  0  0  0  0  0  0  0  0
    7.0402    0.8597   -0.2112 C   0  0  0  0  0  0  0  0  0  0  0  0
    7.6608   -0.4766   -0.0359 C   0  0  0  0  0  0  0  0  0  0  0  0
    6.8872   -1.6447   -0.5071 C   0  0  0  0  0  0  0  0  0  0  0  0
    1.8305    0.7280    0.7071 C   0  0  0  0  0  0  0  0  0  0  0  0
    0.6421    0.9258    0.0578 C   0  0  0  0  0  0  0  0  0  0  0  0
   -1.6354    3.0660    0.0338 C   0  0  0  0  0  0  0  0  0  0  0  0
   -1.5218    4.4259   -0.0659 C   0  0  0  0  0  0  0  0  0  0  0  0
  1  2  1  0
  2  3  2  0
  3  4  1  0
  4  5  2  0
  5  6  1  0
  6  7  2  0
  7  8  1  0
  8  9  2  0
  9 10  1  0
 10 11  2  0
 11 12  1  0
 11 13  1  0
 13 14  2  0
 14 15  1  0
 15 16  2  0
 16 17  1  0
 17 18  1  0
 18 19  2  0
 19 20  1  0
 20 21  2  0
 21 22  1  0
 22 23  1  0
 23 24  1  0
 24 25  1  0
 25 26  1  0
 26 27  1  0
 27 28  1  0
 28 29  1  0
 29 30  1  0
 21 31  1  0
 31 32  2  0
  5 33  1  0
 33 34  2  0
 34  2  1  0
 16  6  1  0
 32 18  1  0
 15  9  1  0
 30 25  1  0
M  END
>  <zinc_id>  (1) 
ZINC000001543842

>  <smiles>  (1) 
Oc1ccc(-c2ccc3cc(O)ccc3c2Cc2ccc(OCCN3CCCCC3)cc2)cc1

$$$$
