
     RDKit          3D

 36 40  0  0  0  0  0  0  0  0999 V2000
   -2.1717    4.1146    1.2661 C   0  0  0  0  0  0  0  0  0  0  0  0
   -3.1295    3.0103    0.9432 C   0  0  0  0  0  0  0  0  0  0  0  0
   -2.7043    1.7849    0.5230 C   0  0  0  0  0  0  0  0  0  0  0  0
   -3.6005    0.7654    0.1826 C   0  0  0  0  0  0  0  0  0  0  0  0
   -3.1230   -0.5606   -0.2020 C   0  0  0  0  0  0  0  0  0  0  0  0
   -3.9900   -1.8037   -0.9456 S   0  0  0  0  0  0  0  0  0  0  0  0
   -2.7710   -3.0249   -0.9808 C   0  0  0  0  0  0  0  0  0  0  0  0
   -2.7156   -4.3471   -1.4310 C   0  0  0  0  0  0  0  0  0  0  0  0
   -1.5499   -5.0844   -1.2948 C   0  0  0  0  0  0  0  0  0  0  0  0
   -1.5030   -6.3945   -1.7425 O   0  0  0  0  0  0  0  0  0  0  0  0
   -0.5080   -4.4410   -0.7129 C   0  0  0  0  0  0  0  0  0  0  0  0
   -0.5421   -3.1651   -0.2706 C   0  0  0  0  0  0  0  0  0  0  0  0
   -1.7114   -2.3850   -0.3911 C   0  0  0  0  0  0  0  0  0  0  0  0
   -1.8798   -1.1171    0.0163 C   0  0  0  0  0  0  0  0  0  0  0  0
   -0.8933   -0.3018    0.7665 C   0  0  0  0  0  0  0  0  0  0  0  0
   -1.0505   -0.2062    2.0411 O   0  0  0  0  0  0  0  0  0  0  0  0
    0.2065    0.3654    0.1275 C   0  0  0  0  0  0  0  0  0  0  0  0
    0.2809    0.6650   -1.2183 C   0  0  0  0  0  0  0  0  0  0  0  0
    1.4158    1.3190   -1.6848 C   0  0  0  0  0  0  0  0  0  0  0  0
    2.4518    1.6682   -0.8518 C   0  0  0  0  0  0  0  0  0  0  0  0
    3.5984    2.3306   -1.3168 O   0  0  0  0  0  0  0  0  0  0  0  0
    4.5859    2.6384   -0.3207 C   0  0  0  0  0  0  0  0  0  0  0  0
    4.9610    1.2977    0.3171 C   0  0  0  0  0  0  0  0  0  0  0  0
    5.4932    0.4474   -0.6939 N   0  0  0  0  0  0  0  0  0  0  0  0
    6.7804    0.8459   -1.2066 C   0  0  0  0  0  0  0  0  0  0  0  0
    7.5781   -0.3997   -1.5778 C   0  0  0  0  0  0  0  0  0  0  0  0
    7.7937   -1.2166   -0.3207 C   0  0  0  0  0  0  0  0  0  0  0  0
    6.4280   -1.6341    0.1942 C   0  0  0  0  0  0  0  0  0  0  0  0
    5.2997   -0.9513   -0.5315 C   0  0  0  0  0  0  0  0  0  0  0  0
    2.3478    1.3523    0.4814 C   0  0  0  0  0  0  0  0  0  0  0  0
    1.2716    0.7223    0.9830 C   0  0  0  0  0  0  0  0  0  0  0  0
   -4.9548    1.0504    0.2914 C   0  0  0  0  0  0  0  0  0  0  0  0
   -5.4062    2.2975    0.7229 C   0  0  0  0  0  0  0  0  0  0  0  0
   -6.8837    2.5801    0.8436 C   0  0  0  0  0  0  0  0  0  0  0  0
   -4.4792    3.2557    1.0394 C   0  0  0  0  0  0  0  0  0  0  0  0
   -4.9254    4.5219    1.4704 O   0  0  0  0  0  0  0  0  0  0  0  0
  1  2  1  0
  2  3  2  0
  3  4  1  0
  4  5  1  0
  5  6  1  0
  6  7  1  0
  7  8  2  0
  8  9  1  0
  9 10  1  0
  9 11  2  0
 11 12  1  0
 12 13  2  0
 13 14  1  0
 14 15  1  0
 15 16  2  0
 15 17  1  0
 17 18  2  0
 18 19  1  0
 19 20  2  0
 20 21  1  0
 21 22  1  0
 22 23  1  0
 23 24  1  0
 24 25  1  0
 25 26  1  0
 26 27  1  0
 27 28  1  0
 28 29  1  0
 20 30  1  0
 30 31  2  0
  4 32  2  0
 32 33  1  0
 33 34  1  0
 33 35  2  0
 35 36  1  0
 35  2  1  0
 14  5  2  0
 31 17  1  0
 13  7  1  0
 29 24  1  0
M  END
>  <zinc_id>  (1) 
ZINC000003815457

>  <smiles>  (1) 
Cc1cc(-c2sc3cc(O)ccc3c2C(=O)c2ccc(OCCN3CCCCC3)cc2)cc(C)c1O

$$$$
