
     RDKit          3D

 34 38  0  0  0  0  0  0  0  0999 V2000
   -3.8837    5.6693    3.2110 C   0  0  0  0  0  0  0  0  0  0  0  0
   -3.6477    5.1693    1.9140 O   0  0  0  0  0  0  0  0  0  0  0  0
   -3.1918    3.8705    1.7376 C   0  0  0  0  0  0  0  0  0  0  0  0
   -2.9712    3.0738    2.8413 C   0  0  0  0  0  0  0  0  0  0  0  0
   -2.5174    1.7720    2.7329 C   0  0  0  0  0  0  0  0  0  0  0  0
   -2.2864    1.2801    1.4722 C   0  0  0  0  0  0  0  0  0  0  0  0
   -2.4861    2.0205    0.3366 C   0  0  0  0  0  0  0  0  0  0  0  0
   -2.9391    3.3120    0.5029 C   0  0  0  0  0  0  0  0  0  0  0  0
   -2.2261    1.4399   -0.9038 O   0  0  0  0  0  0  0  0  0  0  0  0
   -2.5068    0.1143   -1.1551 C   0  0  0  0  0  0  0  0  0  0  0  0
   -1.8383   -0.5704   -2.2291 C   0  0  0  0  0  0  0  0  0  0  0  0
   -4.0050    0.1811   -1.6410 C   0  0  0  0  0  0  0  0  0  0  0  0
   -2.7788   -0.6720    0.1625 C   0  0  1  0  0  0  0  0  0  0  0  0
   -2.2866   -2.0991   -0.1075 C   0  0  0  0  0  0  0  0  0  0  0  0
   -1.8796   -2.6889   -1.2134 C   0  0  0  0  0  0  0  0  0  0  0  0
   -1.4746   -3.9950   -1.2374 C   0  0  0  0  0  0  0  0  0  0  0  0
   -1.4945   -4.7100   -0.0698 C   0  0  0  0  0  0  0  0  0  0  0  0
   -1.9099   -4.1550    1.1291 C   0  0  0  0  0  0  0  0  0  0  0  0
   -2.2997   -2.8217    1.0380 C   0  0  0  0  0  0  0  0  0  0  0  0
   -1.7700   -0.1895    1.3399 C   0  0  1  0  0  0  0  0  0  0  0  0
   -0.3697   -0.0069    0.8080 C   0  0  0  0  0  0  0  0  0  0  0  0
    0.1206    0.2280   -0.3995 C   0  0  0  0  0  0  0  0  0  0  0  0
    1.4370    0.3626   -0.7450 C   0  0  0  0  0  0  0  0  0  0  0  0
    2.3658    0.2448    0.2554 C   0  0  0  0  0  0  0  0  0  0  0  0
    3.7511    0.3699   -0.0046 O   0  0  0  0  0  0  0  0  0  0  0  0
    4.1431    0.6203   -1.3159 C   0  0  0  0  0  0  0  0  0  0  0  0
    5.6521    0.7084   -1.3447 C   0  0  0  0  0  0  0  0  0  0  0  0
    6.2746   -0.5173   -0.8986 N   0  0  0  0  0  0  0  0  0  0  0  0
    6.0642   -1.6055   -1.8247 C   0  0  0  0  0  0  0  0  0  0  0  0
    6.4261   -2.8398   -1.0662 C   0  0  0  0  0  0  0  0  0  0  0  0
    6.2759   -2.4230    0.3934 C   0  0  0  0  0  0  0  0  0  0  0  0
    5.7205   -1.0155    0.3272 C   0  0  0  0  0  0  0  0  0  0  0  0
    1.9417   -0.0003    1.5443 C   0  0  0  0  0  0  0  0  0  0  0  0
    0.5904   -0.1270    1.8315 C   0  0  0  0  0  0  0  0  0  0  0  0
  1  2  1  0
  2  3  1  0
  3  4  2  0
  4  5  1  0
  5  6  2  0
  6  7  1  0
  7  8  2  0
  7  9  1  0
  9 10  1  0
 10 11  1  0
 10 12  1  0
 10 13  1  0
 13 14  1  6
 14 15  2  0
 15 16  1  0
 16 17  2  0
 17 18  1  0
 18 19  2  0
 13 20  1  0
 20 21  1  6
 21 22  2  0
 22 23  1  0
 23 24  2  0
 24 25  1  0
 25 26  1  0
 26 27  1  0
 27 28  1  0
 28 29  1  0
 29 30  1  0
 30 31  1  0
 31 32  1  0
 24 33  1  0
 33 34  2  0
  8  3  1  0
 19 14  1  0
 34 21  1  0
 20  6  1  0
 32 28  1  0
M  END
>  <zinc_id>  (1) 
ZINC000001730387

>  <smiles>  (1) 
COc1ccc2c(c1)OC(C)(C)[C@@H](c1ccccc1)[C@H]2c1ccc(OCCN2CCCC2)cc1

$$$$
