MODEL 1
REMARK VINA RESULT:      -6.0      0.000      0.000
REMARK  Name = 
REMARK  5 active torsions:
REMARK  status: ('A' for Active; 'I' for Inactive)
REMARK    1  A    between atoms: C_2  and  O_3
REMARK    2  A    between atoms: O_3  and  C_4
REMARK    3  A    between atoms: C_7  and  C_8
REMARK    4  A    between atoms: C_8  and  C_9
REMARK    5  A    between atoms: C_12  and  S_13
REMARK                            x       y       z     vdW  Elec       q    Type
REMARK                         _______ _______ _______ _____ _____    ______ ____
ROOT
ATOM      1  C   UNL     1      17.130  10.245  37.183  0.00  0.00    +0.000 C 
ENDROOT
BRANCH   1   2
ATOM      2  C   UNL     1      16.629  10.703  35.863  0.00  0.00    +0.000 A 
ATOM      3  C   UNL     1      17.037  10.164  34.656  0.00  0.00    +0.000 A 
ATOM      4  N   UNL     1      16.552  10.617  33.482  0.00  0.00    +0.000 NA
ATOM      5  C   UNL     1      15.650  11.616  33.491  0.00  0.00    +0.000 A 
ATOM      6  N   UNL     1      15.245  12.148  34.655  0.00  0.00    +0.000 NA
ATOM      7  C   UNL     1      15.703  11.727  35.847  0.00  0.00    +0.000 A 
ATOM      8  N   UNL     1      15.253  12.316  37.078  0.00  0.00    +0.000 NA
BRANCH   5   9
ATOM      9  S   UNL     1      14.983  12.245  31.936  0.00  0.00    +0.000 S 
ATOM     10  C   UNL     1      13.924  13.681  32.276  0.00  0.00    +0.000 C 
ENDBRANCH   5   9
ENDBRANCH   1   2
BRANCH   1  14
ATOM     11  C   UNL     1      21.268  11.150  37.699  0.00  0.00    +0.000 A 
ATOM     12  C   UNL     1      20.915   9.986  37.075  0.00  0.00    +0.000 A 
ATOM     13  C   UNL     1      19.577   9.693  36.907  0.00  0.00    +0.000 A 
ATOM     14  C   UNL     1      18.576  10.530  37.346  0.00  0.00    +0.000 A 
ATOM     15  C   UNL     1      18.949  11.698  37.974  0.00  0.00    +0.000 A 
ATOM     16  C   UNL     1      20.303  12.012  38.153  0.00  0.00    +0.000 A 
BRANCH  11  17
ATOM     17  O   UNL     1      22.612  11.477  37.886  0.00  0.00    +0.000 OA
BRANCH  17  19
ATOM     18  C   UNL     1      24.402  11.123  36.402  0.00  0.00    +0.000 C 
ATOM     19  C   UNL     1      23.623  10.520  37.569  0.00  0.00    +0.000 C 
ENDBRANCH  17  19
ENDBRANCH  11  17
ENDBRANCH   1  14
TORSDOF 5
ENDMDL
MODEL 2
REMARK VINA RESULT:      -5.7      4.182      7.126
REMARK  Name = 
REMARK  5 active torsions:
REMARK  status: ('A' for Active; 'I' for Inactive)
REMARK    1  A    between atoms: C_2  and  O_3
REMARK    2  A    between atoms: O_3  and  C_4
REMARK    3  A    between atoms: C_7  and  C_8
REMARK    4  A    between atoms: C_8  and  C_9
REMARK    5  A    between atoms: C_12  and  S_13
REMARK                            x       y       z     vdW  Elec       q    Type
REMARK                         _______ _______ _______ _____ _____    ______ ____
ROOT
ATOM      1  C   UNL     1      18.951   9.604  37.320  0.00  0.00    +0.000 C 
ENDROOT
BRANCH   1   2
ATOM      2  C   UNL     1      20.349  10.101  37.309  0.00  0.00    +0.000 A 
ATOM      3  C   UNL     1      21.316   9.658  36.425  0.00  0.00    +0.000 A 
ATOM      4  N   UNL     1      22.575  10.141  36.456  0.00  0.00    +0.000 NA
ATOM      5  C   UNL     1      22.893  11.075  37.372  0.00  0.00    +0.000 A 
ATOM      6  N   UNL     1      21.964  11.514  38.236  0.00  0.00    +0.000 NA
ATOM      7  C   UNL     1      20.699  11.060  38.240  0.00  0.00    +0.000 A 
ATOM      8  N   UNL     1      19.726  11.546  39.178  0.00  0.00    +0.000 NA
BRANCH   5   9
ATOM      9  S   UNL     1      24.570  11.740  37.442  0.00  0.00    +0.000 S 
ATOM     10  C   UNL     1      25.746  10.373  37.654  0.00  0.00    +0.000 C 
ENDBRANCH   5   9
ENDBRANCH   1   2
BRANCH   1  14
ATOM     11  C   UNL     1      16.682  11.245  34.100  0.00  0.00    +0.000 A 
ATOM     12  C   UNL     1      16.650  11.863  35.318  0.00  0.00    +0.000 A 
ATOM     13  C   UNL     1      17.383  11.333  36.361  0.00  0.00    +0.000 A 
ATOM     14  C   UNL     1      18.152  10.200  36.222  0.00  0.00    +0.000 A 
ATOM     15  C   UNL     1      18.174   9.589  34.987  0.00  0.00    +0.000 A 
ATOM     16  C   UNL     1      17.434  10.112  33.919  0.00  0.00    +0.000 A 
BRANCH  11  17
ATOM     17  O   UNL     1      15.952  11.753  33.025  0.00  0.00    +0.000 OA
BRANCH  17  19
ATOM     18  C   UNL     1      14.523  10.496  31.643  0.00  0.00    +0.000 C 
ATOM     19  C   UNL     1      15.939  11.048  31.783  0.00  0.00    +0.000 C 
ENDBRANCH  17  19
ENDBRANCH  11  17
ENDBRANCH   1  14
TORSDOF 5
ENDMDL
MODEL 3
REMARK VINA RESULT:      -5.5     16.907     18.619
REMARK  Name = 
REMARK  5 active torsions:
REMARK  status: ('A' for Active; 'I' for Inactive)
REMARK    1  A    between atoms: C_2  and  O_3
REMARK    2  A    between atoms: O_3  and  C_4
REMARK    3  A    between atoms: C_7  and  C_8
REMARK    4  A    between atoms: C_8  and  C_9
REMARK    5  A    between atoms: C_12  and  S_13
REMARK                            x       y       z     vdW  Elec       q    Type
REMARK                         _______ _______ _______ _____ _____    ______ ____
ROOT
ATOM      1  C   UNL     1      27.902  22.274  27.845  0.00  0.00    +0.000 C 
ENDROOT
BRANCH   1   2
ATOM      2  C   UNL     1      27.157  23.270  28.656  0.00  0.00    +0.000 A 
ATOM      3  C   UNL     1      27.080  24.615  28.343  0.00  0.00    +0.000 A 
ATOM      4  N   UNL     1      26.390  25.480  29.114  0.00  0.00    +0.000 NA
ATOM      5  C   UNL     1      25.764  25.019  30.213  0.00  0.00    +0.000 A 
ATOM      6  N   UNL     1      25.831  23.716  30.528  0.00  0.00    +0.000 NA
ATOM      7  C   UNL     1      26.507  22.820  29.789  0.00  0.00    +0.000 A 
ATOM      8  N   UNL     1      26.563  21.431  30.152  0.00  0.00    +0.000 NA
BRANCH   5   9
ATOM      9  S   UNL     1      24.835  26.152  31.267  0.00  0.00    +0.000 S 
ATOM     10  C   UNL     1      25.949  26.860  32.513  0.00  0.00    +0.000 C 
ENDBRANCH   5   9
ENDBRANCH   1   2
BRANCH   1  14
ATOM     11  C   UNL     1      27.783  23.161  23.673  0.00  0.00    +0.000 A 
ATOM     12  C   UNL     1      26.609  23.073  24.367  0.00  0.00    +0.000 A 
ATOM     13  C   UNL     1      26.646  22.786  25.717  0.00  0.00    +0.000 A 
ATOM     14  C   UNL     1      27.826  22.585  26.397  0.00  0.00    +0.000 A 
ATOM     15  C   UNL     1      29.000  22.677  25.682  0.00  0.00    +0.000 A 
ATOM     16  C   UNL     1      28.981  22.966  24.312  0.00  0.00    +0.000 A 
BRANCH  11  17
ATOM     17  O   UNL     1      27.781  23.448  22.308  0.00  0.00    +0.000 OA
BRANCH  17  19
ATOM     18  C   UNL     1      29.242  24.955  21.246  0.00  0.00    +0.000 C 
ATOM     19  C   UNL     1      27.856  24.806  21.870  0.00  0.00    +0.000 C 
ENDBRANCH  17  19
ENDBRANCH  11  17
ENDBRANCH   1  14
TORSDOF 5
ENDMDL
MODEL 4
REMARK VINA RESULT:      -5.5      4.959      7.346
REMARK  Name = 
REMARK  5 active torsions:
REMARK  status: ('A' for Active; 'I' for Inactive)
REMARK    1  A    between atoms: C_2  and  O_3
REMARK    2  A    between atoms: O_3  and  C_4
REMARK    3  A    between atoms: C_7  and  C_8
REMARK    4  A    between atoms: C_8  and  C_9
REMARK    5  A    between atoms: C_12  and  S_13
REMARK                            x       y       z     vdW  Elec       q    Type
REMARK                         _______ _______ _______ _____ _____    ______ ____
ROOT
ATOM      1  C   UNL     1      18.235  10.336  39.205  0.00  0.00    +0.000 C 
ENDROOT
BRANCH   1   2
ATOM      2  C   UNL     1      18.212   9.003  39.858  0.00  0.00    +0.000 A 
ATOM      3  C   UNL     1      19.252   8.093  39.786  0.00  0.00    +0.000 A 
ATOM      4  N   UNL     1      19.182   6.893  40.396  0.00  0.00    +0.000 NA
ATOM      5  C   UNL     1      18.072   6.577  41.090  0.00  0.00    +0.000 A 
ATOM      6  N   UNL     1      17.056   7.450  41.168  0.00  0.00    +0.000 NA
ATOM      7  C   UNL     1      17.084   8.656  40.575  0.00  0.00    +0.000 A 
ATOM      8  N   UNL     1      15.980   9.571  40.673  0.00  0.00    +0.000 NA
BRANCH   5   9
ATOM      9  S   UNL     1      17.947   4.977  41.916  0.00  0.00    +0.000 S 
ATOM     10  C   UNL     1      19.282   3.895  41.329  0.00  0.00    +0.000 C 
ENDBRANCH   5   9
ENDBRANCH   1   2
BRANCH   1  14
ATOM     11  C   UNL     1      16.970  10.161  35.134  0.00  0.00    +0.000 A 
ATOM     12  C   UNL     1      18.095   9.482  35.510  0.00  0.00    +0.000 A 
ATOM     13  C   UNL     1      18.505   9.537  36.827  0.00  0.00    +0.000 A 
ATOM     14  C   UNL     1      17.822  10.254  37.784  0.00  0.00    +0.000 A 
ATOM     15  C   UNL     1      16.690  10.933  37.387  0.00  0.00    +0.000 A 
ATOM     16  C   UNL     1      16.261  10.888  36.055  0.00  0.00    +0.000 A 
BRANCH  11  17
ATOM     17  O   UNL     1      16.528  10.127  33.811  0.00  0.00    +0.000 OA
BRANCH  17  19
ATOM     18  C   UNL     1      14.918  10.351  32.112  0.00  0.00    +0.000 C 
ATOM     19  C   UNL     1      15.448  10.967  33.404  0.00  0.00    +0.000 C 
ENDBRANCH  17  19
ENDBRANCH  11  17
ENDBRANCH   1  14
TORSDOF 5
ENDMDL
MODEL 5
REMARK VINA RESULT:      -5.4     19.405     21.069
REMARK  Name = 
REMARK  5 active torsions:
REMARK  status: ('A' for Active; 'I' for Inactive)
REMARK    1  A    between atoms: C_2  and  O_3
REMARK    2  A    between atoms: O_3  and  C_4
REMARK    3  A    between atoms: C_7  and  C_8
REMARK    4  A    between atoms: C_8  and  C_9
REMARK    5  A    between atoms: C_12  and  S_13
REMARK                            x       y       z     vdW  Elec       q    Type
REMARK                         _______ _______ _______ _____ _____    ______ ____
ROOT
ATOM      1  C   UNL     1      28.657  23.101  23.157  0.00  0.00    +0.000 C 
ENDROOT
BRANCH   1   2
ATOM      2  C   UNL     1      28.195  24.483  22.874  0.00  0.00    +0.000 A 
ATOM      3  C   UNL     1      27.298  25.173  23.669  0.00  0.00    +0.000 A 
ATOM      4  N   UNL     1      26.909  26.429  23.368  0.00  0.00    +0.000 NA
ATOM      5  C   UNL     1      27.408  27.019  22.265  0.00  0.00    +0.000 A 
ATOM      6  N   UNL     1      28.279  26.361  21.485  0.00  0.00    +0.000 NA
ATOM      7  C   UNL     1      28.693  25.110  21.748  0.00  0.00    +0.000 A 
ATOM      8  N   UNL     1      29.626  24.428  20.894  0.00  0.00    +0.000 NA
BRANCH   5   9
ATOM      9  S   UNL     1      26.905  28.698  21.833  0.00  0.00    +0.000 S 
ATOM     10  C   UNL     1      27.405  29.051  20.123  0.00  0.00    +0.000 C 
ENDBRANCH   5   9
ENDBRANCH   1   2
BRANCH   1  14
ATOM     11  C   UNL     1      31.132  22.985  26.631  0.00  0.00    +0.000 A 
ATOM     12  C   UNL     1      29.847  22.527  26.715  0.00  0.00    +0.000 A 
ATOM     13  C   UNL     1      29.045  22.564  25.592  0.00  0.00    +0.000 A 
ATOM     14  C   UNL     1      29.491  23.046  24.382  0.00  0.00    +0.000 A 
ATOM     15  C   UNL     1      30.788  23.505  24.314  0.00  0.00    +0.000 A 
ATOM     16  C   UNL     1      31.615  23.475  25.444  0.00  0.00    +0.000 A 
BRANCH  11  17
ATOM     17  O   UNL     1      31.969  22.963  27.747  0.00  0.00    +0.000 OA
BRANCH  17  19
ATOM     18  C   UNL     1      32.909  21.575  29.396  0.00  0.00    +0.000 C 
ATOM     19  C   UNL     1      31.605  22.186  28.888  0.00  0.00    +0.000 C 
ENDBRANCH  17  19
ENDBRANCH  11  17
ENDBRANCH   1  14
TORSDOF 5
ENDMDL
MODEL 6
REMARK VINA RESULT:      -5.4     19.522     21.127
REMARK  Name = 
REMARK  5 active torsions:
REMARK  status: ('A' for Active; 'I' for Inactive)
REMARK    1  A    between atoms: C_2  and  O_3
REMARK    2  A    between atoms: O_3  and  C_4
REMARK    3  A    between atoms: C_7  and  C_8
REMARK    4  A    between atoms: C_8  and  C_9
REMARK    5  A    between atoms: C_12  and  S_13
REMARK                            x       y       z     vdW  Elec       q    Type
REMARK                         _______ _______ _______ _____ _____    ______ ____
ROOT
ATOM      1  C   UNL     1      27.493  23.470  23.365  0.00  0.00    +0.000 C 
ENDROOT
BRANCH   1   2
ATOM      2  C   UNL     1      28.086  24.502  22.478  0.00  0.00    +0.000 A 
ATOM      3  C   UNL     1      28.960  24.217  21.444  0.00  0.00    +0.000 A 
ATOM      4  N   UNL     1      29.472  25.193  20.666  0.00  0.00    +0.000 NA
ATOM      5  C   UNL     1      29.123  26.471  20.907  0.00  0.00    +0.000 A 
ATOM      6  N   UNL     1      28.277  26.760  21.908  0.00  0.00    +0.000 NA
ATOM      7  C   UNL     1      27.743  25.820  22.706  0.00  0.00    +0.000 A 
ATOM      8  N   UNL     1      26.840  26.159  23.771  0.00  0.00    +0.000 NA
BRANCH   5   9
ATOM      9  S   UNL     1      29.795  27.799  19.885  0.00  0.00    +0.000 S 
ATOM     10  C   UNL     1      30.217  27.138  18.247  0.00  0.00    +0.000 C 
ENDBRANCH   5   9
ENDBRANCH   1   2
BRANCH   1  14
ATOM     11  C   UNL     1      30.158  22.242  26.463  0.00  0.00    +0.000 A 
ATOM     12  C   UNL     1      30.648  22.431  25.201  0.00  0.00    +0.000 A 
ATOM     13  C   UNL     1      29.787  22.828  24.198  0.00  0.00    +0.000 A 
ATOM     14  C   UNL     1      28.445  23.044  24.419  0.00  0.00    +0.000 A 
ATOM     15  C   UNL     1      27.968  22.849  25.697  0.00  0.00    +0.000 A 
ATOM     16  C   UNL     1      28.828  22.446  26.726  0.00  0.00    +0.000 A 
BRANCH  11  17
ATOM     17  O   UNL     1      31.001  21.840  27.500  0.00  0.00    +0.000 OA
BRANCH  17  19
ATOM     18  C   UNL     1      32.586  22.036  29.226  0.00  0.00    +0.000 C 
ATOM     19  C   UNL     1      31.692  22.824  28.271  0.00  0.00    +0.000 C 
ENDBRANCH  17  19
ENDBRANCH  11  17
ENDBRANCH   1  14
TORSDOF 5
ENDMDL
MODEL 7
REMARK VINA RESULT:      -5.4     21.033     22.111
REMARK  Name = 
REMARK  5 active torsions:
REMARK  status: ('A' for Active; 'I' for Inactive)
REMARK    1  A    between atoms: C_2  and  O_3
REMARK    2  A    between atoms: O_3  and  C_4
REMARK    3  A    between atoms: C_7  and  C_8
REMARK    4  A    between atoms: C_8  and  C_9
REMARK    5  A    between atoms: C_12  and  S_13
REMARK                            x       y       z     vdW  Elec       q    Type
REMARK                         _______ _______ _______ _____ _____    ______ ____
ROOT
ATOM      1  C   UNL     1      19.312  -8.141  27.014  0.00  0.00    +0.000 C 
ENDROOT
BRANCH   1   2
ATOM      2  C   UNL     1      18.031  -8.349  26.294  0.00  0.00    +0.000 A 
ATOM      3  C   UNL     1      17.758  -9.457  25.513  0.00  0.00    +0.000 A 
ATOM      4  N   UNL     1      16.576  -9.598  24.877  0.00  0.00    +0.000 NA
ATOM      5  C   UNL     1      15.645  -8.635  25.009  0.00  0.00    +0.000 A 
ATOM      6  N   UNL     1      15.897  -7.554  25.764  0.00  0.00    +0.000 NA
ATOM      7  C   UNL     1      17.060  -7.373  26.414  0.00  0.00    +0.000 A 
ATOM      8  N   UNL     1      17.303  -6.205  27.214  0.00  0.00    +0.000 NA
BRANCH   5   9
ATOM      9  S   UNL     1      14.055  -8.793  24.170  0.00  0.00    +0.000 S 
ATOM     10  C   UNL     1      12.717  -8.548  25.372  0.00  0.00    +0.000 C 
ENDBRANCH   5   9
ENDBRANCH   1   2
BRANCH   1  14
ATOM     11  C   UNL     1      22.509  -7.355  24.299  0.00  0.00    +0.000 A 
ATOM     12  C   UNL     1      22.382  -8.608  24.831  0.00  0.00    +0.000 A 
ATOM     13  C   UNL     1      21.347  -8.863  25.709  0.00  0.00    +0.000 A 
ATOM     14  C   UNL     1      20.433  -7.901  26.073  0.00  0.00    +0.000 A 
ATOM     15  C   UNL     1      20.576  -6.644  25.528  0.00  0.00    +0.000 A 
ATOM     16  C   UNL     1      21.620  -6.367  24.636  0.00  0.00    +0.000 A 
BRANCH  11  17
ATOM     17  O   UNL     1      23.543  -7.062  23.409  0.00  0.00    +0.000 OA
BRANCH  17  19
ATOM     18  C   UNL     1      25.827  -7.624  23.431  0.00  0.00    +0.000 C 
ATOM     19  C   UNL     1      24.799  -6.603  23.911  0.00  0.00    +0.000 C 
ENDBRANCH  17  19
ENDBRANCH  11  17
ENDBRANCH   1  14
TORSDOF 5
ENDMDL
MODEL 8
REMARK VINA RESULT:      -5.3      4.019      5.187
REMARK  Name = 
REMARK  5 active torsions:
REMARK  status: ('A' for Active; 'I' for Inactive)
REMARK    1  A    between atoms: C_2  and  O_3
REMARK    2  A    between atoms: O_3  and  C_4
REMARK    3  A    between atoms: C_7  and  C_8
REMARK    4  A    between atoms: C_8  and  C_9
REMARK    5  A    between atoms: C_12  and  S_13
REMARK                            x       y       z     vdW  Elec       q    Type
REMARK                         _______ _______ _______ _____ _____    ______ ____
ROOT
ATOM      1  C   UNL     1      19.115   9.831  38.080  0.00  0.00    +0.000 C 
ENDROOT
BRANCH   1   2
ATOM      2  C   UNL     1      18.252  10.159  36.918  0.00  0.00    +0.000 A 
ATOM      3  C   UNL     1      17.817   9.225  35.995  0.00  0.00    +0.000 A 
ATOM      4  N   UNL     1      17.033   9.575  34.955  0.00  0.00    +0.000 NA
ATOM      5  C   UNL     1      16.669  10.864  34.816  0.00  0.00    +0.000 A 
ATOM      6  N   UNL     1      17.084  11.780  35.705  0.00  0.00    +0.000 NA
ATOM      7  C   UNL     1      17.866  11.475  36.755  0.00  0.00    +0.000 A 
ATOM      8  N   UNL     1      18.297  12.477  37.690  0.00  0.00    +0.000 NA
BRANCH   5   9
ATOM      9  S   UNL     1      15.623  11.364  33.433  0.00  0.00    +0.000 S 
ATOM     10  C   UNL     1      16.246  10.604  31.906  0.00  0.00    +0.000 C 
ENDBRANCH   5   9
ENDBRANCH   1   2
BRANCH   1  14
ATOM     11  C   UNL     1      17.015   7.661  41.094  0.00  0.00    +0.000 A 
ATOM     12  C   UNL     1      16.574   8.907  40.744  0.00  0.00    +0.000 A 
ATOM     13  C   UNL     1      17.253   9.610  39.768  0.00  0.00    +0.000 A 
ATOM     14  C   UNL     1      18.363   9.103  39.130  0.00  0.00    +0.000 A 
ATOM     15  C   UNL     1      18.794   7.847  39.496  0.00  0.00    +0.000 A 
ATOM     16  C   UNL     1      18.117   7.120  40.484  0.00  0.00    +0.000 A 
BRANCH  11  17
ATOM     17  O   UNL     1      16.353   6.924  42.077  0.00  0.00    +0.000 OA
BRANCH  17  19
ATOM     18  C   UNL     1      17.103   5.251  43.550  0.00  0.00    +0.000 C 
ATOM     19  C   UNL     1      16.954   6.759  43.362  0.00  0.00    +0.000 C 
ENDBRANCH  17  19
ENDBRANCH  11  17
ENDBRANCH   1  14
TORSDOF 5
ENDMDL
MODEL 9
REMARK VINA RESULT:      -5.3     18.544     20.224
REMARK  Name = 
REMARK  5 active torsions:
REMARK  status: ('A' for Active; 'I' for Inactive)
REMARK    1  A    between atoms: C_2  and  O_3
REMARK    2  A    between atoms: O_3  and  C_4
REMARK    3  A    between atoms: C_7  and  C_8
REMARK    4  A    between atoms: C_8  and  C_9
REMARK    5  A    between atoms: C_12  and  S_13
REMARK                            x       y       z     vdW  Elec       q    Type
REMARK                         _______ _______ _______ _____ _____    ______ ____
ROOT
ATOM      1  C   UNL     1      29.004  22.889  23.544  0.00  0.00    +0.000 C 
ENDROOT
BRANCH   1   2
ATOM      2  C   UNL     1      28.839  24.269  23.024  0.00  0.00    +0.000 A 
ATOM      3  C   UNL     1      29.710  25.306  23.305  0.00  0.00    +0.000 A 
ATOM      4  N   UNL     1      29.515  26.545  22.807  0.00  0.00    +0.000 NA
ATOM      5  C   UNL     1      28.445  26.771  22.021  0.00  0.00    +0.000 A 
ATOM      6  N   UNL     1      27.593  25.773  21.741  0.00  0.00    +0.000 NA
ATOM      7  C   UNL     1      27.749  24.526  22.215  0.00  0.00    +0.000 A 
ATOM      8  N   UNL     1      26.819  23.477  21.900  0.00  0.00    +0.000 NA
BRANCH   5   9
ATOM      9  S   UNL     1      28.155  28.418  21.342  0.00  0.00    +0.000 S 
ATOM     10  C   UNL     1      26.455  28.515  20.712  0.00  0.00    +0.000 C 
ENDBRANCH   5   9
ENDBRANCH   1   2
BRANCH   1  14
ATOM     11  C   UNL     1      28.243  22.650  27.736  0.00  0.00    +0.000 A 
ATOM     12  C   UNL     1      27.229  23.017  26.897  0.00  0.00    +0.000 A 
ATOM     13  C   UNL     1      27.474  23.095  25.540  0.00  0.00    +0.000 A 
ATOM     14  C   UNL     1      28.706  22.814  24.995  0.00  0.00    +0.000 A 
ATOM     15  C   UNL     1      29.718  22.446  25.855  0.00  0.00    +0.000 A 
ATOM     16  C   UNL     1      29.486  22.363  27.235  0.00  0.00    +0.000 A 
BRANCH  11  17
ATOM     17  O   UNL     1      28.030  22.563  29.112  0.00  0.00    +0.000 OA
BRANCH  17  19
ATOM     18  C   UNL     1      26.371  21.566  30.449  0.00  0.00    +0.000 C 
ATOM     19  C   UNL     1      26.728  22.813  29.643  0.00  0.00    +0.000 C 
ENDBRANCH  17  19
ENDBRANCH  11  17
ENDBRANCH   1  14
TORSDOF 5
ENDMDL
MODEL 10
REMARK VINA RESULT:      -5.2      2.184      3.390
REMARK  Name = 
REMARK  5 active torsions:
REMARK  status: ('A' for Active; 'I' for Inactive)
REMARK    1  A    between atoms: C_2  and  O_3
REMARK    2  A    between atoms: O_3  and  C_4
REMARK    3  A    between atoms: C_7  and  C_8
REMARK    4  A    between atoms: C_8  and  C_9
REMARK    5  A    between atoms: C_12  and  S_13
REMARK                            x       y       z     vdW  Elec       q    Type
REMARK                         _______ _______ _______ _____ _____    ______ ____
ROOT
ATOM      1  C   UNL     1      16.792   9.686  34.516  0.00  0.00    +0.000 C 
ENDROOT
BRANCH   1   2
ATOM      2  C   UNL     1      15.978  10.876  34.163  0.00  0.00    +0.000 A 
ATOM      3  C   UNL     1      15.338  11.674  35.094  0.00  0.00    +0.000 A 
ATOM      4  N   UNL     1      14.609  12.746  34.722  0.00  0.00    +0.000 NA
ATOM      5  C   UNL     1      14.504  13.041  33.412  0.00  0.00    +0.000 A 
ATOM      6  N   UNL     1      15.121  12.274  32.499  0.00  0.00    +0.000 NA
ATOM      7  C   UNL     1      15.856  11.198  32.826  0.00  0.00    +0.000 A 
ATOM      8  N   UNL     1      16.503  10.395  31.826  0.00  0.00    +0.000 NA
BRANCH   5   9
ATOM      9  S   UNL     1      13.534  14.467  32.882  0.00  0.00    +0.000 S 
ATOM     10  C   UNL     1      12.883  15.325  34.344  0.00  0.00    +0.000 C 
ENDBRANCH   5   9
ENDBRANCH   1   2
BRANCH   1  14
ATOM     11  C   UNL     1      18.963  10.231  38.149  0.00  0.00    +0.000 A 
ATOM     12  C   UNL     1      17.605  10.386  38.157  0.00  0.00    +0.000 A 
ATOM     13  C   UNL     1      16.902  10.210  36.982  0.00  0.00    +0.000 A 
ATOM     14  C   UNL     1      17.516   9.881  35.795  0.00  0.00    +0.000 A 
ATOM     15  C   UNL     1      18.886   9.729  35.804  0.00  0.00    +0.000 A 
ATOM     16  C   UNL     1      19.615   9.905  36.987  0.00  0.00    +0.000 A 
BRANCH  11  17
ATOM     17  O   UNL     1      19.705  10.403  39.318  0.00  0.00    +0.000 OA
BRANCH  17  19
ATOM     18  C   UNL     1      20.251   8.503  40.591  0.00  0.00    +0.000 C 
ATOM     19  C   UNL     1      19.322   9.711  40.507  0.00  0.00    +0.000 C 
ENDBRANCH  17  19
ENDBRANCH  11  17
ENDBRANCH   1  14
TORSDOF 5
ENDMDL
