MODEL 1
REMARK VINA RESULT:      -8.1      0.000      0.000
REMARK  Name = 
REMARK  7 active torsions:
REMARK  status: ('A' for Active; 'I' for Inactive)
REMARK    1  A    between atoms: C_2  and  C_11
REMARK    2  A    between atoms: N_3  and  N_4
REMARK    3  A    between atoms: N_4  and  C_5
REMARK    4  A    between atoms: C_14  and  C_15
REMARK    5  A    between atoms: C_15  and  O_16
REMARK    6  A    between atoms: O_16  and  C_17
REMARK    7  A    between atoms: C_22  and  C_23
REMARK                            x       y       z     vdW  Elec       q    Type
REMARK                         _______ _______ _______ _____ _____    ______ ____
ROOT
ATOM      1  C   UNL     1      15.736   0.069  26.922  0.00  0.00    +0.000 A 
ATOM      2  C   UNL     1      14.973  -0.719  26.116  0.00  0.00    +0.000 A 
ATOM      3  C   UNL     1      13.711  -1.141  26.551  0.00  0.00    +0.000 A 
ATOM      4  C   UNL     1      13.187  -0.794  27.780  0.00  0.00    +0.000 A 
ATOM      5  C   UNL     1      13.992   0.022  28.594  0.00  0.00    +0.000 A 
ATOM      6  C   UNL     1      15.208   0.420  28.161  0.00  0.00    +0.000 A 
ENDROOT
BRANCH   1   8
ATOM      7  O   UNL     1      17.899   0.784  27.510  0.00  0.00    +0.000 OA
ATOM      8  C   UNL     1      17.085   0.549  26.588  0.00  0.00    +0.000 C 
ATOM      9  N   UNL     1      17.482   0.753  25.248  0.00  0.00    +0.000 NA
BRANCH   9  10
ATOM     10  N   UNL     1      18.745   1.216  24.851  0.00  0.00    +0.000 NA
BRANCH  10  11
ATOM     11  C   UNL     1      19.560   0.404  23.996  0.00  0.00    +0.000 C 
ATOM     12  C   UNL     1      19.410  -0.899  23.934  0.00  0.00    +0.000 C 
ATOM     13  C   UNL     1      20.316  -1.648  23.012  0.00  0.00    +0.000 C 
ATOM     14  C   UNL     1      20.391  -1.025  21.654  0.00  0.00    +0.000 C 
ATOM     15  C   UNL     1      20.411   0.493  21.700  0.00  0.00    +0.000 C 
ATOM     16  C   UNL     1      20.625   1.004  23.127  0.00  0.00    +0.000 C 
ENDBRANCH  10  11
ENDBRANCH   9  10
ENDBRANCH   1   8
BRANCH   4  17
ATOM     17  C   UNL     1      11.882  -1.226  28.309  0.00  0.00    +0.000 C 
BRANCH  17  18
ATOM     18  O   UNL     1      10.774  -0.505  27.955  0.00  0.00    +0.000 OA
BRANCH  18  19
ATOM     19  C   UNL     1      10.109  -0.586  26.755  0.00  0.00    +0.000 A 
ATOM     20  C   UNL     1       9.592  -1.742  26.228  0.00  0.00    +0.000 A 
ATOM     21  C   UNL     1       8.934  -1.797  25.021  0.00  0.00    +0.000 A 
ATOM     22  C   UNL     1       8.789  -0.612  24.304  0.00  0.00    +0.000 A 
ATOM     23  C   UNL     1       9.298   0.536  24.820  0.00  0.00    +0.000 A 
ATOM     24  C   UNL     1       9.956   0.614  26.019  0.00  0.00    +0.000 A 
BRANCH  24  25
ATOM     25  C   UNL     1      10.487   1.850  26.570  0.00  0.00    +0.000 A 
ATOM     26  C   UNL     1      11.814   2.168  26.455  0.00  0.00    +0.000 A 
ATOM     27  C   UNL     1      12.270   3.358  26.968  0.00  0.00    +0.000 A 
ATOM     28  C   UNL     1      11.456   4.273  27.609  0.00  0.00    +0.000 A 
ATOM     29  C   UNL     1      10.128   3.912  27.700  0.00  0.00    +0.000 A 
ATOM     30  C   UNL     1       9.638   2.741  27.202  0.00  0.00    +0.000 A 
ENDBRANCH  24  25
ENDBRANCH  18  19
ENDBRANCH  17  18
ENDBRANCH   4  17
TORSDOF 7
ENDMDL
MODEL 2
REMARK VINA RESULT:      -8.0     23.080     25.602
REMARK  Name = 
REMARK  7 active torsions:
REMARK  status: ('A' for Active; 'I' for Inactive)
REMARK    1  A    between atoms: C_2  and  C_11
REMARK    2  A    between atoms: N_3  and  N_4
REMARK    3  A    between atoms: N_4  and  C_5
REMARK    4  A    between atoms: C_14  and  C_15
REMARK    5  A    between atoms: C_15  and  O_16
REMARK    6  A    between atoms: O_16  and  C_17
REMARK    7  A    between atoms: C_22  and  C_23
REMARK                            x       y       z     vdW  Elec       q    Type
REMARK                         _______ _______ _______ _____ _____    ______ ____
ROOT
ATOM      1  C   UNL     1      37.583   2.339  14.588  0.00  0.00    +0.000 A 
ATOM      2  C   UNL     1      36.692   1.854  13.679  0.00  0.00    +0.000 A 
ATOM      3  C   UNL     1      36.597   0.473  13.470  0.00  0.00    +0.000 A 
ATOM      4  C   UNL     1      37.374  -0.444  14.149  0.00  0.00    +0.000 A 
ATOM      5  C   UNL     1      38.285   0.080  15.083  0.00  0.00    +0.000 A 
ATOM      6  C   UNL     1      38.367   1.416  15.274  0.00  0.00    +0.000 A 
ENDROOT
BRANCH   1   8
ATOM      7  O   UNL     1      36.814   4.545  14.867  0.00  0.00    +0.000 OA
ATOM      8  C   UNL     1      37.794   3.766  14.873  0.00  0.00    +0.000 C 
ATOM      9  N   UNL     1      39.081   4.277  15.152  0.00  0.00    +0.000 NA
BRANCH   9  10
ATOM     10  N   UNL     1      39.363   5.624  15.424  0.00  0.00    +0.000 NA
BRANCH  10  11
ATOM     11  C   UNL     1      39.578   6.042  16.778  0.00  0.00    +0.000 C 
ATOM     12  C   UNL     1      38.866   5.561  17.770  0.00  0.00    +0.000 C 
ATOM     13  C   UNL     1      39.172   6.070  19.142  0.00  0.00    +0.000 C 
ATOM     14  C   UNL     1      40.637   6.055  19.442  0.00  0.00    +0.000 C 
ATOM     15  C   UNL     1      41.489   6.464  18.252  0.00  0.00    +0.000 C 
ATOM     16  C   UNL     1      40.631   7.051  17.130  0.00  0.00    +0.000 C 
ENDBRANCH  10  11
ENDBRANCH   9  10
ENDBRANCH   1   8
BRANCH   4  17
ATOM     17  C   UNL     1      37.345  -1.903  13.956  0.00  0.00    +0.000 C 
BRANCH  17  18
ATOM     18  O   UNL     1      36.896  -2.679  14.991  0.00  0.00    +0.000 OA
BRANCH  18  19
ATOM     19  C   UNL     1      35.647  -3.245  15.091  0.00  0.00    +0.000 A 
ATOM     20  C   UNL     1      35.189  -4.269  14.301  0.00  0.00    +0.000 A 
ATOM     21  C   UNL     1      33.932  -4.814  14.420  0.00  0.00    +0.000 A 
ATOM     22  C   UNL     1      33.086  -4.294  15.396  0.00  0.00    +0.000 A 
ATOM     23  C   UNL     1      33.533  -3.281  16.182  0.00  0.00    +0.000 A 
ATOM     24  C   UNL     1      34.781  -2.723  16.083  0.00  0.00    +0.000 A 
BRANCH  24  25
ATOM     25  C   UNL     1      35.255  -1.647  16.937  0.00  0.00    +0.000 A 
ATOM     26  C   UNL     1      36.115  -1.889  17.975  0.00  0.00    +0.000 A 
ATOM     27  C   UNL     1      36.558  -0.840  18.742  0.00  0.00    +0.000 A 
ATOM     28  C   UNL     1      36.181   0.473  18.530  0.00  0.00    +0.000 A 
ATOM     29  C   UNL     1      35.315   0.669  17.474  0.00  0.00    +0.000 A 
ATOM     30  C   UNL     1      34.855  -0.346  16.689  0.00  0.00    +0.000 A 
ENDBRANCH  24  25
ENDBRANCH  18  19
ENDBRANCH  17  18
ENDBRANCH   4  17
TORSDOF 7
ENDMDL
MODEL 3
REMARK VINA RESULT:      -7.8     22.931     26.762
REMARK  Name = 
REMARK  7 active torsions:
REMARK  status: ('A' for Active; 'I' for Inactive)
REMARK    1  A    between atoms: C_2  and  C_11
REMARK    2  A    between atoms: N_3  and  N_4
REMARK    3  A    between atoms: N_4  and  C_5
REMARK    4  A    between atoms: C_14  and  C_15
REMARK    5  A    between atoms: C_15  and  O_16
REMARK    6  A    between atoms: O_16  and  C_17
REMARK    7  A    between atoms: C_22  and  C_23
REMARK                            x       y       z     vdW  Elec       q    Type
REMARK                         _______ _______ _______ _____ _____    ______ ____
ROOT
ATOM      1  C   UNL     1      37.989   3.691  16.252  0.00  0.00    +0.000 A 
ATOM      2  C   UNL     1      38.871   3.383  15.261  0.00  0.00    +0.000 A 
ATOM      3  C   UNL     1      38.509   2.463  14.271  0.00  0.00    +0.000 A 
ATOM      4  C   UNL     1      37.279   1.836  14.242  0.00  0.00    +0.000 A 
ATOM      5  C   UNL     1      36.385   2.171  15.274  0.00  0.00    +0.000 A 
ATOM      6  C   UNL     1      36.748   3.060  16.225  0.00  0.00    +0.000 A 
ENDROOT
BRANCH   1   8
ATOM      7  O   UNL     1      38.589   4.157  18.478  0.00  0.00    +0.000 OA
ATOM      8  C   UNL     1      38.265   4.616  17.360  0.00  0.00    +0.000 C 
ATOM      9  N   UNL     1      38.170   6.015  17.190  0.00  0.00    +0.000 NA
BRANCH   9  10
ATOM     10  N   UNL     1      38.409   6.960  18.198  0.00  0.00    +0.000 NA
BRANCH  10  11
ATOM     11  C   UNL     1      39.743   7.151  18.688  0.00  0.00    +0.000 C 
ATOM     12  C   UNL     1      40.035   7.023  19.961  0.00  0.00    +0.000 C 
ATOM     13  C   UNL     1      41.457   7.248  20.362  0.00  0.00    +0.000 C 
ATOM     14  C   UNL     1      42.421   6.512  19.486  0.00  0.00    +0.000 C 
ATOM     15  C   UNL     1      42.015   6.519  18.023  0.00  0.00    +0.000 C 
ATOM     16  C   UNL     1      40.873   7.505  17.767  0.00  0.00    +0.000 C 
ENDBRANCH  10  11
ENDBRANCH   9  10
ENDBRANCH   1   8
BRANCH   4  17
ATOM     17  C   UNL     1      36.846   0.840  13.248  0.00  0.00    +0.000 C 
BRANCH  17  18
ATOM     18  O   UNL     1      36.960  -0.485  13.575  0.00  0.00    +0.000 OA
BRANCH  18  19
ATOM     19  C   UNL     1      38.078  -1.095  14.091  0.00  0.00    +0.000 A 
ATOM     20  C   UNL     1      39.293  -1.161  13.457  0.00  0.00    +0.000 A 
ATOM     21  C   UNL     1      40.396  -1.782  13.995  0.00  0.00    +0.000 A 
ATOM     22  C   UNL     1      40.265  -2.371  15.250  0.00  0.00    +0.000 A 
ATOM     23  C   UNL     1      39.066  -2.308  15.883  0.00  0.00    +0.000 A 
ATOM     24  C   UNL     1      37.954  -1.695  15.368  0.00  0.00    +0.000 A 
BRANCH  24  25
ATOM     25  C   UNL     1      36.678  -1.622  16.060  0.00  0.00    +0.000 A 
ATOM     26  C   UNL     1      35.658  -2.486  15.763  0.00  0.00    +0.000 A 
ATOM     27  C   UNL     1      34.476  -2.399  16.457  0.00  0.00    +0.000 A 
ATOM     28  C   UNL     1      34.246  -1.472  17.458  0.00  0.00    +0.000 A 
ATOM     29  C   UNL     1      35.301  -0.624  17.722  0.00  0.00    +0.000 A 
ATOM     30  C   UNL     1      36.489  -0.681  17.056  0.00  0.00    +0.000 A 
ENDBRANCH  24  25
ENDBRANCH  18  19
ENDBRANCH  17  18
ENDBRANCH   4  17
TORSDOF 7
ENDMDL
MODEL 4
REMARK VINA RESULT:      -7.8     23.320     27.694
REMARK  Name = 
REMARK  7 active torsions:
REMARK  status: ('A' for Active; 'I' for Inactive)
REMARK    1  A    between atoms: C_2  and  C_11
REMARK    2  A    between atoms: N_3  and  N_4
REMARK    3  A    between atoms: N_4  and  C_5
REMARK    4  A    between atoms: C_14  and  C_15
REMARK    5  A    between atoms: C_15  and  O_16
REMARK    6  A    between atoms: O_16  and  C_17
REMARK    7  A    between atoms: C_22  and  C_23
REMARK                            x       y       z     vdW  Elec       q    Type
REMARK                         _______ _______ _______ _____ _____    ______ ____
ROOT
ATOM      1  C   UNL     1      39.112   5.230  17.383  0.00  0.00    +0.000 A 
ATOM      2  C   UNL     1      40.146   5.759  16.672  0.00  0.00    +0.000 A 
ATOM      3  C   UNL     1      41.163   6.453  17.338  0.00  0.00    +0.000 A 
ATOM      4  C   UNL     1      41.176   6.635  18.706  0.00  0.00    +0.000 A 
ATOM      5  C   UNL     1      40.099   6.079  19.419  0.00  0.00    +0.000 A 
ATOM      6  C   UNL     1      39.123   5.412  18.763  0.00  0.00    +0.000 A 
ENDROOT
BRANCH   1   8
ATOM      7  O   UNL     1      37.445   4.945  15.747  0.00  0.00    +0.000 OA
ATOM      8  C   UNL     1      37.975   4.509  16.795  0.00  0.00    +0.000 C 
ATOM      9  N   UNL     1      37.464   3.333  17.388  0.00  0.00    +0.000 NA
BRANCH   9  10
ATOM     10  N   UNL     1      36.379   2.595  16.892  0.00  0.00    +0.000 NA
BRANCH  10  11
ATOM     11  C   UNL     1      36.249   1.210  17.236  0.00  0.00    +0.000 C 
ATOM     12  C   UNL     1      35.995   0.824  18.465  0.00  0.00    +0.000 C 
ATOM     13  C   UNL     1      35.884  -0.645  18.712  0.00  0.00    +0.000 C 
ATOM     14  C   UNL     1      35.000  -1.326  17.715  0.00  0.00    +0.000 C 
ATOM     15  C   UNL     1      35.171  -0.784  16.306  0.00  0.00    +0.000 C 
ATOM     16  C   UNL     1      36.394   0.129  16.206  0.00  0.00    +0.000 C 
ENDBRANCH  10  11
ENDBRANCH   9  10
ENDBRANCH   1   8
BRANCH   4  17
ATOM     17  C   UNL     1      42.197   7.377  19.464  0.00  0.00    +0.000 C 
BRANCH  17  18
ATOM     18  O   UNL     1      41.784   8.137  20.525  0.00  0.00    +0.000 OA
BRANCH  18  19
ATOM     19  C   UNL     1      42.004   9.484  20.686  0.00  0.00    +0.000 A 
ATOM     20  C   UNL     1      43.181  10.034  21.126  0.00  0.00    +0.000 A 
ATOM     21  C   UNL     1      43.373  11.387  21.283  0.00  0.00    +0.000 A 
ATOM     22  C   UNL     1      42.313  12.235  20.976  0.00  0.00    +0.000 A 
ATOM     23  C   UNL     1      41.146  11.698  20.540  0.00  0.00    +0.000 A 
ATOM     24  C   UNL     1      40.931  10.355  20.375  0.00  0.00    +0.000 A 
BRANCH  24  25
ATOM     25  C   UNL     1      39.681   9.789  19.895  0.00  0.00    +0.000 A 
ATOM     26  C   UNL     1      39.414   9.688  18.555  0.00  0.00    +0.000 A 
ATOM     27  C   UNL     1      38.231   9.125  18.144  0.00  0.00    +0.000 A 
ATOM     28  C   UNL     1      37.272   8.643  19.015  0.00  0.00    +0.000 A 
ATOM     29  C   UNL     1      37.585   8.764  20.353  0.00  0.00    +0.000 A 
ATOM     30  C   UNL     1      38.748   9.316  20.800  0.00  0.00    +0.000 A 
ENDBRANCH  24  25
ENDBRANCH  18  19
ENDBRANCH  17  18
ENDBRANCH   4  17
TORSDOF 7
ENDMDL
MODEL 5
REMARK VINA RESULT:      -7.4     23.539     28.233
REMARK  Name = 
REMARK  7 active torsions:
REMARK  status: ('A' for Active; 'I' for Inactive)
REMARK    1  A    between atoms: C_2  and  C_11
REMARK    2  A    between atoms: N_3  and  N_4
REMARK    3  A    between atoms: N_4  and  C_5
REMARK    4  A    between atoms: C_14  and  C_15
REMARK    5  A    between atoms: C_15  and  O_16
REMARK    6  A    between atoms: O_16  and  C_17
REMARK    7  A    between atoms: C_22  and  C_23
REMARK                            x       y       z     vdW  Elec       q    Type
REMARK                         _______ _______ _______ _____ _____    ______ ____
ROOT
ATOM      1  C   UNL     1      38.792   5.481  17.412  0.00  0.00    +0.000 A 
ATOM      2  C   UNL     1      39.381   5.338  18.631  0.00  0.00    +0.000 A 
ATOM      3  C   UNL     1      39.374   6.407  19.535  0.00  0.00    +0.000 A 
ATOM      4  C   UNL     1      38.792   7.626  19.251  0.00  0.00    +0.000 A 
ATOM      5  C   UNL     1      38.190   7.750  17.987  0.00  0.00    +0.000 A 
ATOM      6  C   UNL     1      38.204   6.710  17.124  0.00  0.00    +0.000 A 
ENDROOT
BRANCH   1   8
ATOM      7  O   UNL     1      39.501   4.557  15.368  0.00  0.00    +0.000 OA
ATOM      8  C   UNL     1      38.760   4.444  16.371  0.00  0.00    +0.000 C 
ATOM      9  N   UNL     1      37.909   3.322  16.478  0.00  0.00    +0.000 NA
BRANCH   9  10
ATOM     10  N   UNL     1      37.816   2.297  15.525  0.00  0.00    +0.000 NA
BRANCH  10  11
ATOM     11  C   UNL     1      36.781   1.312  15.642  0.00  0.00    +0.000 C 
ATOM     12  C   UNL     1      37.046   0.027  15.623  0.00  0.00    +0.000 C 
ATOM     13  C   UNL     1      35.890  -0.912  15.749  0.00  0.00    +0.000 C 
ATOM     14  C   UNL     1      34.975  -0.542  16.873  0.00  0.00    +0.000 C 
ATOM     15  C   UNL     1      34.777   0.958  17.006  0.00  0.00    +0.000 C 
ATOM     16  C   UNL     1      35.341   1.703  15.795  0.00  0.00    +0.000 C 
ENDBRANCH  10  11
ENDBRANCH   9  10
ENDBRANCH   1   8
BRANCH   4  17
ATOM     17  C   UNL     1      38.776   8.798  20.143  0.00  0.00    +0.000 C 
BRANCH  17  18
ATOM     18  O   UNL     1      39.951   9.168  20.738  0.00  0.00    +0.000 OA
BRANCH  18  19
ATOM     19  C   UNL     1      40.625  10.348  20.528  0.00  0.00    +0.000 A 
ATOM     20  C   UNL     1      40.311  11.541  21.128  0.00  0.00    +0.000 A 
ATOM     21  C   UNL     1      40.999  12.709  20.896  0.00  0.00    +0.000 A 
ATOM     22  C   UNL     1      42.069  12.670  20.006  0.00  0.00    +0.000 A 
ATOM     23  C   UNL     1      42.385  11.493  19.410  0.00  0.00    +0.000 A 
ATOM     24  C   UNL     1      41.715  10.317  19.625  0.00  0.00    +0.000 A 
BRANCH  24  25
ATOM     25  C   UNL     1      42.069   9.058  18.991  0.00  0.00    +0.000 A 
ATOM     26  C   UNL     1      42.732   8.077  19.679  0.00  0.00    +0.000 A 
ATOM     27  C   UNL     1      43.026   6.892  19.049  0.00  0.00    +0.000 A 
ATOM     28  C   UNL     1      42.687   6.622  17.736  0.00  0.00    +0.000 A 
ATOM     29  C   UNL     1      42.020   7.637  17.084  0.00  0.00    +0.000 A 
ATOM     30  C   UNL     1      41.710   8.826  17.675  0.00  0.00    +0.000 A 
ENDBRANCH  24  25
ENDBRANCH  18  19
ENDBRANCH  17  18
ENDBRANCH   4  17
TORSDOF 7
ENDMDL
MODEL 6
REMARK VINA RESULT:      -7.3     24.727     27.993
REMARK  Name = 
REMARK  7 active torsions:
REMARK  status: ('A' for Active; 'I' for Inactive)
REMARK    1  A    between atoms: C_2  and  C_11
REMARK    2  A    between atoms: N_3  and  N_4
REMARK    3  A    between atoms: N_4  and  C_5
REMARK    4  A    between atoms: C_14  and  C_15
REMARK    5  A    between atoms: C_15  and  O_16
REMARK    6  A    between atoms: O_16  and  C_17
REMARK    7  A    between atoms: C_22  and  C_23
REMARK                            x       y       z     vdW  Elec       q    Type
REMARK                         _______ _______ _______ _____ _____    ______ ____
ROOT
ATOM      1  C   UNL     1      38.970   5.106  17.204  0.00  0.00    +0.000 A 
ATOM      2  C   UNL     1      40.009   5.602  16.477  0.00  0.00    +0.000 A 
ATOM      3  C   UNL     1      41.058   6.263  17.126  0.00  0.00    +0.000 A 
ATOM      4  C   UNL     1      41.098   6.444  18.494  0.00  0.00    +0.000 A 
ATOM      5  C   UNL     1      40.016   5.923  19.224  0.00  0.00    +0.000 A 
ATOM      6  C   UNL     1      39.009   5.288  18.584  0.00  0.00    +0.000 A 
ENDROOT
BRANCH   1   8
ATOM      7  O   UNL     1      37.324   3.426  17.224  0.00  0.00    +0.000 OA
ATOM      8  C   UNL     1      37.801   4.422  16.634  0.00  0.00    +0.000 C 
ATOM      9  N   UNL     1      37.205   4.862  15.431  0.00  0.00    +0.000 NA
BRANCH   9  10
ATOM     10  N   UNL     1      36.096   4.258  14.822  0.00  0.00    +0.000 NA
BRANCH  10  11
ATOM     11  C   UNL     1      36.251   2.993  14.166  0.00  0.00    +0.000 C 
ATOM     12  C   UNL     1      37.101   2.827  13.179  0.00  0.00    +0.000 C 
ATOM     13  C   UNL     1      37.178   1.467  12.564  0.00  0.00    +0.000 C 
ATOM     14  C   UNL     1      37.285   0.383  13.589  0.00  0.00    +0.000 C 
ATOM     15  C   UNL     1      36.421   0.636  14.812  0.00  0.00    +0.000 C 
ATOM     16  C   UNL     1      35.448   1.793  14.575  0.00  0.00    +0.000 C 
ENDBRANCH  10  11
ENDBRANCH   9  10
ENDBRANCH   1   8
BRANCH   4  17
ATOM     17  C   UNL     1      42.154   7.154  19.235  0.00  0.00    +0.000 C 
BRANCH  17  18
ATOM     18  O   UNL     1      41.808   7.788  20.398  0.00  0.00    +0.000 OA
BRANCH  18  19
ATOM     19  C   UNL     1      42.069   9.101  20.708  0.00  0.00    +0.000 A 
ATOM     20  C   UNL     1      43.262   9.563  21.202  0.00  0.00    +0.000 A 
ATOM     21  C   UNL     1      43.495  10.884  21.508  0.00  0.00    +0.000 A 
ATOM     22  C   UNL     1      42.460  11.792  21.304  0.00  0.00    +0.000 A 
ATOM     23  C   UNL     1      41.277  11.342  20.816  0.00  0.00    +0.000 A 
ATOM     24  C   UNL     1      41.022  10.033  20.502  0.00  0.00    +0.000 A 
BRANCH  24  25
ATOM     25  C   UNL     1      39.755   9.561  19.968  0.00  0.00    +0.000 A 
ATOM     26  C   UNL     1      38.764   9.097  20.791  0.00  0.00    +0.000 A 
ATOM     27  C   UNL     1      37.573   8.684  20.247  0.00  0.00    +0.000 A 
ATOM     28  C   UNL     1      37.306   8.707  18.891  0.00  0.00    +0.000 A 
ATOM     29  C   UNL     1      38.332   9.182  18.101  0.00  0.00    +0.000 A 
ATOM     30  C   UNL     1      39.527   9.602  18.604  0.00  0.00    +0.000 A 
ENDBRANCH  24  25
ENDBRANCH  18  19
ENDBRANCH  17  18
ENDBRANCH   4  17
TORSDOF 7
ENDMDL
MODEL 7
REMARK VINA RESULT:      -7.2     23.740     27.955
REMARK  Name = 
REMARK  7 active torsions:
REMARK  status: ('A' for Active; 'I' for Inactive)
REMARK    1  A    between atoms: C_2  and  C_11
REMARK    2  A    between atoms: N_3  and  N_4
REMARK    3  A    between atoms: N_4  and  C_5
REMARK    4  A    between atoms: C_14  and  C_15
REMARK    5  A    between atoms: C_15  and  O_16
REMARK    6  A    between atoms: O_16  and  C_17
REMARK    7  A    between atoms: C_22  and  C_23
REMARK                            x       y       z     vdW  Elec       q    Type
REMARK                         _______ _______ _______ _____ _____    ______ ____
ROOT
ATOM      1  C   UNL     1      39.846   5.811  18.285  0.00  0.00    +0.000 A 
ATOM      2  C   UNL     1      40.304   5.898  17.006  0.00  0.00    +0.000 A 
ATOM      3  C   UNL     1      39.686   5.153  15.995  0.00  0.00    +0.000 A 
ATOM      4  C   UNL     1      38.613   4.316  16.229  0.00  0.00    +0.000 A 
ATOM      5  C   UNL     1      38.157   4.243  17.557  0.00  0.00    +0.000 A 
ATOM      6  C   UNL     1      38.764   4.968  18.523  0.00  0.00    +0.000 A 
ENDROOT
BRANCH   1   8
ATOM      7  O   UNL     1      39.676   7.120  20.233  0.00  0.00    +0.000 OA
ATOM      8  C   UNL     1      40.429   6.520  19.433  0.00  0.00    +0.000 C 
ATOM      9  N   UNL     1      41.825   6.541  19.651  0.00  0.00    +0.000 NA
BRANCH   9  10
ATOM     10  N   UNL     1      42.456   7.201  20.716  0.00  0.00    +0.000 NA
BRANCH  10  11
ATOM     11  C   UNL     1      43.763   6.785  21.132  0.00  0.00    +0.000 C 
ATOM     12  C   UNL     1      43.942   6.016  22.181  0.00  0.00    +0.000 C 
ATOM     13  C   UNL     1      45.347   5.646  22.527  0.00  0.00    +0.000 C 
ATOM     14  C   UNL     1      46.120   5.166  21.339  0.00  0.00    +0.000 C 
ATOM     15  C   UNL     1      45.810   5.950  20.075  0.00  0.00    +0.000 C 
ATOM     16  C   UNL     1      44.995   7.207  20.386  0.00  0.00    +0.000 C 
ENDBRANCH  10  11
ENDBRANCH   9  10
ENDBRANCH   1   8
BRANCH   4  17
ATOM     17  C   UNL     1      37.937   3.484  15.219  0.00  0.00    +0.000 C 
BRANCH  17  18
ATOM     18  O   UNL     1      37.988   2.124  15.369  0.00  0.00    +0.000 OA
BRANCH  18  19
ATOM     19  C   UNL     1      36.963   1.323  15.812  0.00  0.00    +0.000 A 
ATOM     20  C   UNL     1      35.890   1.764  16.545  0.00  0.00    +0.000 A 
ATOM     21  C   UNL     1      34.879   0.939  16.980  0.00  0.00    +0.000 A 
ATOM     22  C   UNL     1      34.956  -0.412  16.655  0.00  0.00    +0.000 A 
ATOM     23  C   UNL     1      36.014  -0.855  15.929  0.00  0.00    +0.000 A 
ATOM     24  C   UNL     1      37.032  -0.053  15.484  0.00  0.00    +0.000 A 
BRANCH  24  25
ATOM     25  C   UNL     1      38.155  -0.534  14.697  0.00  0.00    +0.000 A 
ATOM     26  C   UNL     1      38.109  -0.552  13.328  0.00  0.00    +0.000 A 
ATOM     27  C   UNL     1      39.201  -0.991  12.622  0.00  0.00    +0.000 A 
ATOM     28  C   UNL     1      40.369  -1.428  13.219  0.00  0.00    +0.000 A 
ATOM     29  C   UNL     1      40.370  -1.392  14.597  0.00  0.00    +0.000 A 
ATOM     30  C   UNL     1      39.307  -0.961  15.332  0.00  0.00    +0.000 A 
ENDBRANCH  24  25
ENDBRANCH  18  19
ENDBRANCH  17  18
ENDBRANCH   4  17
TORSDOF 7
ENDMDL
MODEL 8
REMARK VINA RESULT:      -7.1      2.373      4.406
REMARK  Name = 
REMARK  7 active torsions:
REMARK  status: ('A' for Active; 'I' for Inactive)
REMARK    1  A    between atoms: C_2  and  C_11
REMARK    2  A    between atoms: N_3  and  N_4
REMARK    3  A    between atoms: N_4  and  C_5
REMARK    4  A    between atoms: C_14  and  C_15
REMARK    5  A    between atoms: C_15  and  O_16
REMARK    6  A    between atoms: O_16  and  C_17
REMARK    7  A    between atoms: C_22  and  C_23
REMARK                            x       y       z     vdW  Elec       q    Type
REMARK                         _______ _______ _______ _____ _____    ______ ____
ROOT
ATOM      1  C   UNL     1      16.125  -0.073  26.729  0.00  0.00    +0.000 A 
ATOM      2  C   UNL     1      15.223  -0.727  25.947  0.00  0.00    +0.000 A 
ATOM      3  C   UNL     1      13.897  -0.857  26.378  0.00  0.00    +0.000 A 
ATOM      4  C   UNL     1      13.445  -0.347  27.579  0.00  0.00    +0.000 A 
ATOM      5  C   UNL     1      14.394   0.325  28.368  0.00  0.00    +0.000 A 
ATOM      6  C   UNL     1      15.671   0.442  27.940  0.00  0.00    +0.000 A 
ENDROOT
BRANCH   1   8
ATOM      7  O   UNL     1      18.410  -0.065  27.290  0.00  0.00    +0.000 OA
ATOM      8  C   UNL     1      17.547   0.102  26.398  0.00  0.00    +0.000 C 
ATOM      9  N   UNL     1      17.960   0.456  25.095  0.00  0.00    +0.000 NA
BRANCH   9  10
ATOM     10  N   UNL     1      19.294   0.648  24.705  0.00  0.00    +0.000 NA
BRANCH  10  11
ATOM     11  C   UNL     1      19.903  -0.270  23.788  0.00  0.00    +0.000 C 
ATOM     12  C   UNL     1      19.525  -1.525  23.715  0.00  0.00    +0.000 C 
ATOM     13  C   UNL     1      20.230  -2.396  22.726  0.00  0.00    +0.000 C 
ATOM     14  C   UNL     1      20.332  -1.759  21.376  0.00  0.00    +0.000 C 
ATOM     15  C   UNL     1      20.618  -0.269  21.445  0.00  0.00    +0.000 C 
ATOM     16  C   UNL     1      21.003   0.158  22.862  0.00  0.00    +0.000 C 
ENDBRANCH  10  11
ENDBRANCH   9  10
ENDBRANCH   1   8
BRANCH   4  17
ATOM     17  C   UNL     1      12.075  -0.473  28.103  0.00  0.00    +0.000 C 
BRANCH  17  18
ATOM     18  O   UNL     1      11.464  -1.695  28.017  0.00  0.00    +0.000 OA
BRANCH  18  19
ATOM     19  C   UNL     1      11.872  -2.847  28.647  0.00  0.00    +0.000 A 
ATOM     20  C   UNL     1      12.384  -2.900  29.919  0.00  0.00    +0.000 A 
ATOM     21  C   UNL     1      12.789  -4.066  30.524  0.00  0.00    +0.000 A 
ATOM     22  C   UNL     1      12.670  -5.251  29.802  0.00  0.00    +0.000 A 
ATOM     23  C   UNL     1      12.164  -5.205  28.544  0.00  0.00    +0.000 A 
ATOM     24  C   UNL     1      11.753  -4.057  27.920  0.00  0.00    +0.000 A 
BRANCH  24  25
ATOM     25  C   UNL     1      11.201  -4.020  26.577  0.00  0.00    +0.000 A 
ATOM     26  C   UNL     1      12.010  -3.904  25.478  0.00  0.00    +0.000 A 
ATOM     27  C   UNL     1      11.449  -3.897  24.224  0.00  0.00    +0.000 A 
ATOM     28  C   UNL     1      10.089  -4.001  23.997  0.00  0.00    +0.000 A 
ATOM     29  C   UNL     1       9.314  -4.116  25.132  0.00  0.00    +0.000 A 
ATOM     30  C   UNL     1       9.834  -4.128  26.392  0.00  0.00    +0.000 A 
ENDBRANCH  24  25
ENDBRANCH  18  19
ENDBRANCH  17  18
ENDBRANCH   4  17
TORSDOF 7
ENDMDL
MODEL 9
REMARK VINA RESULT:      -7.1     24.030     26.977
REMARK  Name = 
REMARK  7 active torsions:
REMARK  status: ('A' for Active; 'I' for Inactive)
REMARK    1  A    between atoms: C_2  and  C_11
REMARK    2  A    between atoms: N_3  and  N_4
REMARK    3  A    between atoms: N_4  and  C_5
REMARK    4  A    between atoms: C_14  and  C_15
REMARK    5  A    between atoms: C_15  and  O_16
REMARK    6  A    between atoms: O_16  and  C_17
REMARK    7  A    between atoms: C_22  and  C_23
REMARK                            x       y       z     vdW  Elec       q    Type
REMARK                         _______ _______ _______ _____ _____    ______ ____
ROOT
ATOM      1  C   UNL     1      38.259   3.864  16.312  0.00  0.00    +0.000 A 
ATOM      2  C   UNL     1      38.875   3.453  15.170  0.00  0.00    +0.000 A 
ATOM      3  C   UNL     1      38.252   2.507  14.347  0.00  0.00    +0.000 A 
ATOM      4  C   UNL     1      37.019   1.957  14.637  0.00  0.00    +0.000 A 
ATOM      5  C   UNL     1      36.402   2.397  15.820  0.00  0.00    +0.000 A 
ATOM      6  C   UNL     1      37.016   3.310  16.606  0.00  0.00    +0.000 A 
ENDROOT
BRANCH   1   8
ATOM      7  O   UNL     1      38.889   4.523  18.481  0.00  0.00    +0.000 OA
ATOM      8  C   UNL     1      38.825   4.826  17.268  0.00  0.00    +0.000 C 
ATOM      9  N   UNL     1      39.298   6.089  16.847  0.00  0.00    +0.000 NA
BRANCH   9  10
ATOM     10  N   UNL     1      39.842   7.062  17.698  0.00  0.00    +0.000 NA
BRANCH  10  11
ATOM     11  C   UNL     1      39.007   7.693  18.678  0.00  0.00    +0.000 C 
ATOM     12  C   UNL     1      39.364   7.775  19.938  0.00  0.00    +0.000 C 
ATOM     13  C   UNL     1      38.416   8.450  20.875  0.00  0.00    +0.000 C 
ATOM     14  C   UNL     1      37.924   9.759  20.343  0.00  0.00    +0.000 C 
ATOM     15  C   UNL     1      37.650   9.726  18.850  0.00  0.00    +0.000 C 
ATOM     16  C   UNL     1      37.683   8.295  18.310  0.00  0.00    +0.000 C 
ENDBRANCH  10  11
ENDBRANCH   9  10
ENDBRANCH   1   8
BRANCH   4  17
ATOM     17  C   UNL     1      36.323   0.939  13.832  0.00  0.00    +0.000 C 
BRANCH  17  18
ATOM     18  O   UNL     1      36.653  -0.374  14.032  0.00  0.00    +0.000 OA
BRANCH  18  19
ATOM     19  C   UNL     1      36.593  -1.047  15.229  0.00  0.00    +0.000 A 
ATOM     20  C   UNL     1      35.471  -1.145  16.013  0.00  0.00    +0.000 A 
ATOM     21  C   UNL     1      35.439  -1.821  17.210  0.00  0.00    +0.000 A 
ATOM     22  C   UNL     1      36.611  -2.437  17.642  0.00  0.00    +0.000 A 
ATOM     23  C   UNL     1      37.724  -2.344  16.871  0.00  0.00    +0.000 A 
ATOM     24  C   UNL     1      37.780  -1.677  15.676  0.00  0.00    +0.000 A 
BRANCH  24  25
ATOM     25  C   UNL     1      38.974  -1.594  14.851  0.00  0.00    +0.000 A 
ATOM     26  C   UNL     1      39.839  -0.538  14.956  0.00  0.00    +0.000 A 
ATOM     27  C   UNL     1      40.969  -0.510  14.176  0.00  0.00    +0.000 A 
ATOM     28  C   UNL     1      41.294  -1.503  13.270  0.00  0.00    +0.000 A 
ATOM     29  C   UNL     1      40.394  -2.546  13.198  0.00  0.00    +0.000 A 
ATOM     30  C   UNL     1      39.264  -2.609  13.957  0.00  0.00    +0.000 A 
ENDBRANCH  24  25
ENDBRANCH  18  19
ENDBRANCH  17  18
ENDBRANCH   4  17
TORSDOF 7
ENDMDL
MODEL 10
REMARK VINA RESULT:      -7.0     23.766     26.929
REMARK  Name = 
REMARK  7 active torsions:
REMARK  status: ('A' for Active; 'I' for Inactive)
REMARK    1  A    between atoms: C_2  and  C_11
REMARK    2  A    between atoms: N_3  and  N_4
REMARK    3  A    between atoms: N_4  and  C_5
REMARK    4  A    between atoms: C_14  and  C_15
REMARK    5  A    between atoms: C_15  and  O_16
REMARK    6  A    between atoms: O_16  and  C_17
REMARK    7  A    between atoms: C_22  and  C_23
REMARK                            x       y       z     vdW  Elec       q    Type
REMARK                         _______ _______ _______ _____ _____    ______ ____
ROOT
ATOM      1  C   UNL     1      39.589  -0.381  12.611  0.00  0.00    +0.000 A 
ATOM      2  C   UNL     1      39.216  -1.691  12.614  0.00  0.00    +0.000 A 
ATOM      3  C   UNL     1      39.031  -2.356  13.831  0.00  0.00    +0.000 A 
ATOM      4  C   UNL     1      39.209  -1.744  15.056  0.00  0.00    +0.000 A 
ATOM      5  C   UNL     1      39.592  -0.392  15.027  0.00  0.00    +0.000 A 
ATOM      6  C   UNL     1      39.769   0.238  13.845  0.00  0.00    +0.000 A 
ENDROOT
BRANCH   1   8
ATOM      7  O   UNL     1      40.594   1.412  11.466  0.00  0.00    +0.000 OA
ATOM      8  C   UNL     1      39.841   0.414  11.400  0.00  0.00    +0.000 C 
ATOM      9  N   UNL     1      39.251   0.076  10.162  0.00  0.00    +0.000 NA
BRANCH   9  10
ATOM     10  N   UNL     1      39.437   0.788   8.968  0.00  0.00    +0.000 NA
BRANCH  10  11
ATOM     11  C   UNL     1      38.434   1.715   8.533  0.00  0.00    +0.000 C 
ATOM     12  C   UNL     1      37.494   1.367   7.686  0.00  0.00    +0.000 C 
ATOM     13  C   UNL     1      36.501   2.414   7.297  0.00  0.00    +0.000 C 
ATOM     14  C   UNL     1      35.950   3.145   8.480  0.00  0.00    +0.000 C 
ATOM     15  C   UNL     1      36.997   3.422   9.544  0.00  0.00    +0.000 C 
ATOM     16  C   UNL     1      38.407   3.131   9.027  0.00  0.00    +0.000 C 
ENDBRANCH  10  11
ENDBRANCH   9  10
ENDBRANCH   1   8
BRANCH   4  17
ATOM     17  C   UNL     1      39.059  -2.392  16.370  0.00  0.00    +0.000 C 
BRANCH  17  18
ATOM     18  O   UNL     1      37.801  -2.481  16.903  0.00  0.00    +0.000 OA
BRANCH  18  19
ATOM     19  C   UNL     1      36.779  -3.270  16.431  0.00  0.00    +0.000 A 
ATOM     20  C   UNL     1      36.819  -4.640  16.367  0.00  0.00    +0.000 A 
ATOM     21  C   UNL     1      35.782  -5.406  15.887  0.00  0.00    +0.000 A 
ATOM     22  C   UNL     1      34.638  -4.749  15.444  0.00  0.00    +0.000 A 
ATOM     23  C   UNL     1      34.592  -3.394  15.505  0.00  0.00    +0.000 A 
ATOM     24  C   UNL     1      35.610  -2.610  15.980  0.00  0.00    +0.000 A 
BRANCH  24  25
ATOM     25  C   UNL     1      35.548  -1.160  16.053  0.00  0.00    +0.000 A 
ATOM     26  C   UNL     1      35.030  -0.524  17.150  0.00  0.00    +0.000 A 
ATOM     27  C   UNL     1      35.012   0.848  17.189  0.00  0.00    +0.000 A 
ATOM     28  C   UNL     1      35.493   1.646  16.167  0.00  0.00    +0.000 A 
ATOM     29  C   UNL     1      36.004   0.963  15.084  0.00  0.00    +0.000 A 
ATOM     30  C   UNL     1      36.041  -0.397  15.009  0.00  0.00    +0.000 A 
ENDBRANCH  24  25
ENDBRANCH  18  19
ENDBRANCH  17  18
ENDBRANCH   4  17
TORSDOF 7
ENDMDL
