MODEL 1
REMARK VINA RESULT:      -7.6      0.000      0.000
REMARK  Name = 
REMARK  8 active torsions:
REMARK  status: ('A' for Active; 'I' for Inactive)
REMARK    1  A    between atoms: C_2  and  C_3
REMARK    2  A    between atoms: C_3  and  C_4
REMARK    3  A    between atoms: C_4  and  C_5
REMARK    4  A    between atoms: C_5  and  C_6
REMARK    5  A    between atoms: C_6  and  N_7
REMARK    6  A    between atoms: C_8  and  C_10
REMARK    7  A    between atoms: N_13  and  C_14
REMARK    8  A    between atoms: C_14  and  C_15
REMARK                            x       y       z     vdW  Elec       q    Type
REMARK                         _______ _______ _______ _____ _____    ______ ____
ROOT
ATOM      1  C   UNL     1      38.112   2.726  15.165  0.00  0.00    +0.000 A 
ATOM      2  C   UNL     1      39.002   2.417  14.153  0.00  0.00    +0.000 A 
ATOM      3  N   UNL     1      39.929   3.346  13.602  0.00  0.00    +0.000 NA
ATOM      4  N   UNL     1      38.823   1.140  13.822  0.00  0.00    +0.000 N 
ATOM      5  C   UNL     1      37.865   0.612  14.566  0.00  0.00    +0.000 A 
ATOM      6  N   UNL     1      37.328  -0.636  14.601  0.00  0.00    +0.000 NA
ATOM      7  C   UNL     1      36.332  -0.932  15.476  0.00  0.00    +0.000 A 
ATOM      8  C   UNL     1      35.780  -2.193  15.521  0.00  0.00    +0.000 A 
ATOM      9  C   UNL     1      34.764  -2.460  16.427  0.00  0.00    +0.000 A 
ATOM     10  C   UNL     1      34.277  -1.500  17.295  0.00  0.00    +0.000 A 
ATOM     11  C   UNL     1      34.845  -0.244  17.231  0.00  0.00    +0.000 A 
ATOM     12  C   UNL     1      35.868   0.050  16.330  0.00  0.00    +0.000 A 
ATOM     13  N   UNL     1      36.398   1.291  16.299  0.00  0.00    +0.000 NA
ATOM     14  C   UNL     1      37.394   1.580  15.421  0.00  0.00    +0.000 A 
ENDROOT
BRANCH   1  16
ATOM     15  N   UNL     1      38.599   4.245  17.062  0.00  0.00    +0.000 NA
ATOM     16  C   UNL     1      37.920   3.977  15.856  0.00  0.00    +0.000 C 
ATOM     17  O   UNL     1      37.145   4.838  15.390  0.00  0.00    +0.000 OA
BRANCH  15  18
ATOM     18  C   UNL     1      38.377   5.510  17.718  0.00  0.00    +0.000 C 
BRANCH  18  19
ATOM     19  C   UNL     1      39.539   5.704  18.689  0.00  0.00    +0.000 C 
BRANCH  19  20
ATOM     20  C   UNL     1      40.739   6.143  17.851  0.00  0.00    +0.000 C 
BRANCH  20  21
ATOM     21  C   UNL     1      41.811   6.691  18.783  0.00  0.00    +0.000 C 
BRANCH  21  23
ATOM     22  C   UNL     1      42.798   6.137  20.994  0.00  0.00    +0.000 C 
ATOM     23  C   UNL     1      41.515   6.321  20.218  0.00  0.00    +0.000 C 
ENDBRANCH  21  23
ENDBRANCH  20  21
ENDBRANCH  19  20
ENDBRANCH  18  19
ENDBRANCH  15  18
ENDBRANCH   1  16
BRANCH   4  24
ATOM     24  C   UNL     1      39.581   0.443  12.788  0.00  0.00    +0.000 C 
BRANCH  24  25
ATOM     25  C   UNL     1      40.735  -0.257  13.396  0.00  0.00    +0.000 A 
ATOM     26  C   UNL     1      40.605  -1.585  13.706  0.00  0.00    +0.000 A 
ATOM     27  C   UNL     1      41.626  -2.294  14.269  0.00  0.00    +0.000 A 
ATOM     28  C   UNL     1      42.810  -1.670  14.530  0.00  0.00    +0.000 A 
ATOM     29  C   UNL     1      42.960  -0.329  14.224  0.00  0.00    +0.000 A 
ATOM     30  C   UNL     1      41.923   0.373  13.657  0.00  0.00    +0.000 A 
ENDBRANCH  24  25
ENDBRANCH   4  24
TORSDOF 8
ENDMDL
MODEL 2
REMARK VINA RESULT:      -7.6      1.811      5.322
REMARK  Name = 
REMARK  8 active torsions:
REMARK  status: ('A' for Active; 'I' for Inactive)
REMARK    1  A    between atoms: C_2  and  C_3
REMARK    2  A    between atoms: C_3  and  C_4
REMARK    3  A    between atoms: C_4  and  C_5
REMARK    4  A    between atoms: C_5  and  C_6
REMARK    5  A    between atoms: C_6  and  N_7
REMARK    6  A    between atoms: C_8  and  C_10
REMARK    7  A    between atoms: N_13  and  C_14
REMARK    8  A    between atoms: C_14  and  C_15
REMARK                            x       y       z     vdW  Elec       q    Type
REMARK                         _______ _______ _______ _____ _____    ______ ____
ROOT
ATOM      1  C   UNL     1      36.744   0.885  15.842  0.00  0.00    +0.000 A 
ATOM      2  C   UNL     1      35.957   0.059  16.622  0.00  0.00    +0.000 A 
ATOM      3  N   UNL     1      34.691   0.439  17.152  0.00  0.00    +0.000 NA
ATOM      4  N   UNL     1      36.592  -1.102  16.766  0.00  0.00    +0.000 N 
ATOM      5  C   UNL     1      37.746  -1.066  16.120  0.00  0.00    +0.000 A 
ATOM      6  N   UNL     1      38.732  -1.990  15.973  0.00  0.00    +0.000 NA
ATOM      7  C   UNL     1      39.841  -1.702  15.244  0.00  0.00    +0.000 A 
ATOM      8  C   UNL     1      40.846  -2.630  15.088  0.00  0.00    +0.000 A 
ATOM      9  C   UNL     1      41.966  -2.302  14.337  0.00  0.00    +0.000 A 
ATOM     10  C   UNL     1      42.115  -1.067  13.734  0.00  0.00    +0.000 A 
ATOM     11  C   UNL     1      41.095  -0.154  13.906  0.00  0.00    +0.000 A 
ATOM     12  C   UNL     1      39.959  -0.459  14.654  0.00  0.00    +0.000 A 
ATOM     13  N   UNL     1      38.983   0.463  14.798  0.00  0.00    +0.000 NA
ATOM     14  C   UNL     1      37.875   0.168  15.528  0.00  0.00    +0.000 A 
ENDROOT
BRANCH   1  16
ATOM     15  N   UNL     1      37.291   3.302  15.871  0.00  0.00    +0.000 NA
ATOM     16  C   UNL     1      36.492   2.237  15.408  0.00  0.00    +0.000 C 
ATOM     17  O   UNL     1      35.558   2.476  14.614  0.00  0.00    +0.000 OA
BRANCH  15  18
ATOM     18  C   UNL     1      37.002   4.638  15.410  0.00  0.00    +0.000 C 
BRANCH  18  19
ATOM     19  C   UNL     1      37.911   5.575  16.202  0.00  0.00    +0.000 C 
BRANCH  19  20
ATOM     20  C   UNL     1      38.918   4.689  16.935  0.00  0.00    +0.000 C 
BRANCH  20  21
ATOM     21  C   UNL     1      38.880   5.033  18.418  0.00  0.00    +0.000 C 
BRANCH  21  23
ATOM     22  C   UNL     1      39.554   6.895  19.918  0.00  0.00    +0.000 C 
ATOM     23  C   UNL     1      38.869   6.531  18.622  0.00  0.00    +0.000 C 
ENDBRANCH  21  23
ENDBRANCH  20  21
ENDBRANCH  19  20
ENDBRANCH  18  19
ENDBRANCH  15  18
ENDBRANCH   1  16
BRANCH   4  24
ATOM     24  C   UNL     1      36.076  -2.235  17.527  0.00  0.00    +0.000 C 
BRANCH  24  25
ATOM     25  C   UNL     1      35.580  -3.278  16.601  0.00  0.00    +0.000 A 
ATOM     26  C   UNL     1      34.397  -3.064  15.946  0.00  0.00    +0.000 A 
ATOM     27  C   UNL     1      33.879  -3.981  15.079  0.00  0.00    +0.000 A 
ATOM     28  C   UNL     1      34.556  -5.143  14.852  0.00  0.00    +0.000 A 
ATOM     29  C   UNL     1      35.754  -5.378  15.504  0.00  0.00    +0.000 A 
ATOM     30  C   UNL     1      36.262  -4.444  16.376  0.00  0.00    +0.000 A 
ENDBRANCH  24  25
ENDBRANCH   4  24
TORSDOF 8
ENDMDL
MODEL 3
REMARK VINA RESULT:      -7.5      2.142      4.719
REMARK  Name = 
REMARK  8 active torsions:
REMARK  status: ('A' for Active; 'I' for Inactive)
REMARK    1  A    between atoms: C_2  and  C_3
REMARK    2  A    between atoms: C_3  and  C_4
REMARK    3  A    between atoms: C_4  and  C_5
REMARK    4  A    between atoms: C_5  and  C_6
REMARK    5  A    between atoms: C_6  and  N_7
REMARK    6  A    between atoms: C_8  and  C_10
REMARK    7  A    between atoms: N_13  and  C_14
REMARK    8  A    between atoms: C_14  and  C_15
REMARK                            x       y       z     vdW  Elec       q    Type
REMARK                         _______ _______ _______ _____ _____    ______ ____
ROOT
ATOM      1  C   UNL     1      36.901   1.185  15.441  0.00  0.00    +0.000 A 
ATOM      2  C   UNL     1      36.222   0.341  16.299  0.00  0.00    +0.000 A 
ATOM      3  N   UNL     1      35.401   0.794  17.372  0.00  0.00    +0.000 NA
ATOM      4  N   UNL     1      36.479  -0.913  15.936  0.00  0.00    +0.000 N 
ATOM      5  C   UNL     1      37.288  -0.921  14.888  0.00  0.00    +0.000 A 
ATOM      6  N   UNL     1      37.827  -1.938  14.166  0.00  0.00    +0.000 NA
ATOM      7  C   UNL     1      38.645  -1.676  13.114  0.00  0.00    +0.000 A 
ATOM      8  C   UNL     1      39.197  -2.699  12.375  0.00  0.00    +0.000 A 
ATOM      9  C   UNL     1      40.029  -2.396  11.307  0.00  0.00    +0.000 A 
ATOM     10  C   UNL     1      40.330  -1.094  10.951  0.00  0.00    +0.000 A 
ATOM     11  C   UNL     1      39.765  -0.087  11.707  0.00  0.00    +0.000 A 
ATOM     12  C   UNL     1      38.926  -0.364  12.785  0.00  0.00    +0.000 A 
ATOM     13  N   UNL     1      38.393   0.650  13.499  0.00  0.00    +0.000 NA
ATOM     14  C   UNL     1      37.575   0.381  14.550  0.00  0.00    +0.000 A 
ENDROOT
BRANCH   1  16
ATOM     15  N   UNL     1      37.777   3.334  16.314  0.00  0.00    +0.000 NA
ATOM     16  C   UNL     1      36.941   2.627  15.425  0.00  0.00    +0.000 C 
ATOM     17  O   UNL     1      36.232   3.264  14.619  0.00  0.00    +0.000 OA
BRANCH  15  18
ATOM     18  C   UNL     1      37.784   4.775  16.262  0.00  0.00    +0.000 C 
BRANCH  18  19
ATOM     19  C   UNL     1      39.120   5.221  16.853  0.00  0.00    +0.000 C 
BRANCH  19  20
ATOM     20  C   UNL     1      39.019   5.017  18.364  0.00  0.00    +0.000 C 
BRANCH  20  21
ATOM     21  C   UNL     1      39.327   6.338  19.056  0.00  0.00    +0.000 C 
BRANCH  21  23
ATOM     22  C   UNL     1      41.770   6.758  19.223  0.00  0.00    +0.000 C 
ATOM     23  C   UNL     1      40.552   6.212  19.932  0.00  0.00    +0.000 C 
ENDBRANCH  21  23
ENDBRANCH  20  21
ENDBRANCH  19  20
ENDBRANCH  18  19
ENDBRANCH  15  18
ENDBRANCH   1  16
BRANCH   4  24
ATOM     24  C   UNL     1      35.939  -2.092  16.604  0.00  0.00    +0.000 C 
BRANCH  24  25
ATOM     25  C   UNL     1      36.906  -2.586  17.610  0.00  0.00    +0.000 A 
ATOM     26  C   UNL     1      36.938  -1.982  18.839  0.00  0.00    +0.000 A 
ATOM     27  C   UNL     1      37.803  -2.384  19.815  0.00  0.00    +0.000 A 
ATOM     28  C   UNL     1      38.658  -3.416  19.567  0.00  0.00    +0.000 A 
ATOM     29  C   UNL     1      38.640  -4.040  18.331  0.00  0.00    +0.000 A 
ATOM     30  C   UNL     1      37.764  -3.624  17.358  0.00  0.00    +0.000 A 
ENDBRANCH  24  25
ENDBRANCH   4  24
TORSDOF 8
ENDMDL
MODEL 4
REMARK VINA RESULT:      -7.4      1.883      7.282
REMARK  Name = 
REMARK  8 active torsions:
REMARK  status: ('A' for Active; 'I' for Inactive)
REMARK    1  A    between atoms: C_2  and  C_3
REMARK    2  A    between atoms: C_3  and  C_4
REMARK    3  A    between atoms: C_4  and  C_5
REMARK    4  A    between atoms: C_5  and  C_6
REMARK    5  A    between atoms: C_6  and  N_7
REMARK    6  A    between atoms: C_8  and  C_10
REMARK    7  A    between atoms: N_13  and  C_14
REMARK    8  A    between atoms: C_14  and  C_15
REMARK                            x       y       z     vdW  Elec       q    Type
REMARK                         _______ _______ _______ _____ _____    ______ ____
ROOT
ATOM      1  C   UNL     1      36.570   0.737  16.203  0.00  0.00    +0.000 A 
ATOM      2  C   UNL     1      36.376   2.094  16.026  0.00  0.00    +0.000 A 
ATOM      3  N   UNL     1      35.205   2.789  16.443  0.00  0.00    +0.000 NA
ATOM      4  N   UNL     1      37.453   2.590  15.421  0.00  0.00    +0.000 N 
ATOM      5  C   UNL     1      38.329   1.623  15.199  0.00  0.00    +0.000 A 
ATOM      6  N   UNL     1      39.558   1.629  14.618  0.00  0.00    +0.000 NA
ATOM      7  C   UNL     1      40.272   0.479  14.508  0.00  0.00    +0.000 A 
ATOM      8  C   UNL     1      41.518   0.472  13.921  0.00  0.00    +0.000 A 
ATOM      9  C   UNL     1      42.219  -0.721  13.825  0.00  0.00    +0.000 A 
ATOM     10  C   UNL     1      41.712  -1.917  14.299  0.00  0.00    +0.000 A 
ATOM     11  C   UNL     1      40.461  -1.885  14.881  0.00  0.00    +0.000 A 
ATOM     12  C   UNL     1      39.736  -0.699  14.992  0.00  0.00    +0.000 A 
ATOM     13  N   UNL     1      38.516  -0.710  15.569  0.00  0.00    +0.000 NA
ATOM     14  C   UNL     1      37.807   0.444  15.676  0.00  0.00    +0.000 A 
ENDROOT
BRANCH   1  16
ATOM     15  N   UNL     1      35.210  -1.331  16.062  0.00  0.00    +0.000 NA
ATOM     16  C   UNL     1      35.693  -0.236  16.807  0.00  0.00    +0.000 C 
ATOM     17  O   UNL     1      35.352  -0.115  18.003  0.00  0.00    +0.000 OA
BRANCH  15  18
ATOM     18  C   UNL     1      34.336  -2.279  16.708  0.00  0.00    +0.000 C 
BRANCH  18  19
ATOM     19  C   UNL     1      34.385  -3.554  15.868  0.00  0.00    +0.000 C 
BRANCH  19  20
ATOM     20  C   UNL     1      35.546  -3.387  14.889  0.00  0.00    +0.000 C 
BRANCH  20  21
ATOM     21  C   UNL     1      36.384  -4.659  14.907  0.00  0.00    +0.000 C 
BRANCH  21  23
ATOM     22  C   UNL     1      38.011  -4.103  16.700  0.00  0.00    +0.000 C 
ATOM     23  C   UNL     1      36.843  -4.980  16.310  0.00  0.00    +0.000 C 
ENDBRANCH  21  23
ENDBRANCH  20  21
ENDBRANCH  19  20
ENDBRANCH  18  19
ENDBRANCH  15  18
ENDBRANCH   1  16
BRANCH   4  24
ATOM     24  C   UNL     1      37.625   3.994  15.065  0.00  0.00    +0.000 C 
BRANCH  24  25
ATOM     25  C   UNL     1      38.519   4.655  16.042  0.00  0.00    +0.000 A 
ATOM     26  C   UNL     1      38.202   4.582  17.373  0.00  0.00    +0.000 A 
ATOM     27  C   UNL     1      38.978   5.167  18.330  0.00  0.00    +0.000 A 
ATOM     28  C   UNL     1      40.103   5.843  17.957  0.00  0.00    +0.000 A 
ATOM     29  C   UNL     1      40.440   5.928  16.617  0.00  0.00    +0.000 A 
ATOM     30  C   UNL     1      39.647   5.333  15.665  0.00  0.00    +0.000 A 
ENDBRANCH  24  25
ENDBRANCH   4  24
TORSDOF 8
ENDMDL
MODEL 5
REMARK VINA RESULT:      -7.2      1.583      4.824
REMARK  Name = 
REMARK  8 active torsions:
REMARK  status: ('A' for Active; 'I' for Inactive)
REMARK    1  A    between atoms: C_2  and  C_3
REMARK    2  A    between atoms: C_3  and  C_4
REMARK    3  A    between atoms: C_4  and  C_5
REMARK    4  A    between atoms: C_5  and  C_6
REMARK    5  A    between atoms: C_6  and  N_7
REMARK    6  A    between atoms: C_8  and  C_10
REMARK    7  A    between atoms: N_13  and  C_14
REMARK    8  A    between atoms: C_14  and  C_15
REMARK                            x       y       z     vdW  Elec       q    Type
REMARK                         _______ _______ _______ _____ _____    ______ ____
ROOT
ATOM      1  C   UNL     1      38.598   3.064  14.803  0.00  0.00    +0.000 A 
ATOM      2  C   UNL     1      37.239   2.905  14.998  0.00  0.00    +0.000 A 
ATOM      3  N   UNL     1      36.337   3.987  15.207  0.00  0.00    +0.000 NA
ATOM      4  N   UNL     1      36.964   1.604  14.951  0.00  0.00    +0.000 N 
ATOM      5  C   UNL     1      38.075   0.917  14.737  0.00  0.00    +0.000 A 
ATOM      6  N   UNL     1      38.307  -0.417  14.612  0.00  0.00    +0.000 NA
ATOM      7  C   UNL     1      39.565  -0.878  14.391  0.00  0.00    +0.000 A 
ATOM      8  C   UNL     1      39.812  -2.227  14.264  0.00  0.00    +0.000 A 
ATOM      9  C   UNL     1      41.109  -2.664  14.038  0.00  0.00    +0.000 A 
ATOM     10  C   UNL     1      42.176  -1.789  13.937  0.00  0.00    +0.000 A 
ATOM     11  C   UNL     1      41.903  -0.443  14.069  0.00  0.00    +0.000 A 
ATOM     12  C   UNL     1      40.609   0.022  14.295  0.00  0.00    +0.000 A 
ATOM     13  N   UNL     1      40.384   1.347  14.419  0.00  0.00    +0.000 NA
ATOM     14  C   UNL     1      39.123   1.802  14.639  0.00  0.00    +0.000 A 
ENDROOT
BRANCH   1  16
ATOM     15  N   UNL     1      39.684   4.971  15.957  0.00  0.00    +0.000 NA
ATOM     16  C   UNL     1      39.377   4.278  14.768  0.00  0.00    +0.000 C 
ATOM     17  O   UNL     1      39.786   4.728  13.677  0.00  0.00    +0.000 OA
BRANCH  15  18
ATOM     18  C   UNL     1      40.465   6.180  15.873  0.00  0.00    +0.000 C 
BRANCH  18  19
ATOM     19  C   UNL     1      40.797   6.581  17.309  0.00  0.00    +0.000 C 
BRANCH  19  20
ATOM     20  C   UNL     1      39.940   5.699  18.217  0.00  0.00    +0.000 C 
BRANCH  20  21
ATOM     21  C   UNL     1      38.931   6.579  18.941  0.00  0.00    +0.000 C 
BRANCH  21  23
ATOM     22  C   UNL     1      38.731   8.387  20.634  0.00  0.00    +0.000 C 
ATOM     23  C   UNL     1      39.548   7.203  20.172  0.00  0.00    +0.000 C 
ENDBRANCH  21  23
ENDBRANCH  20  21
ENDBRANCH  19  20
ENDBRANCH  18  19
ENDBRANCH  15  18
ENDBRANCH   1  16
BRANCH   4  24
ATOM     24  C   UNL     1      35.630   1.037  15.114  0.00  0.00    +0.000 C 
BRANCH  24  25
ATOM     25  C   UNL     1      35.544   0.313  16.402  0.00  0.00    +0.000 A 
ATOM     26  C   UNL     1      35.186  -1.009  16.388  0.00  0.00    +0.000 A 
ATOM     27  C   UNL     1      35.087  -1.739  17.536  0.00  0.00    +0.000 A 
ATOM     28  C   UNL     1      35.352  -1.141  18.733  0.00  0.00    +0.000 A 
ATOM     29  C   UNL     1      35.716   0.194  18.768  0.00  0.00    +0.000 A 
ATOM     30  C   UNL     1      35.812   0.916  17.603  0.00  0.00    +0.000 A 
ENDBRANCH  24  25
ENDBRANCH   4  24
TORSDOF 8
ENDMDL
MODEL 6
REMARK VINA RESULT:      -7.2      1.939      5.295
REMARK  Name = 
REMARK  8 active torsions:
REMARK  status: ('A' for Active; 'I' for Inactive)
REMARK    1  A    between atoms: C_2  and  C_3
REMARK    2  A    between atoms: C_3  and  C_4
REMARK    3  A    between atoms: C_4  and  C_5
REMARK    4  A    between atoms: C_5  and  C_6
REMARK    5  A    between atoms: C_6  and  N_7
REMARK    6  A    between atoms: C_8  and  C_10
REMARK    7  A    between atoms: N_13  and  C_14
REMARK    8  A    between atoms: C_14  and  C_15
REMARK                            x       y       z     vdW  Elec       q    Type
REMARK                         _______ _______ _______ _____ _____    ______ ____
ROOT
ATOM      1  C   UNL     1      37.735   0.778  15.030  0.00  0.00    +0.000 A 
ATOM      2  C   UNL     1      37.371  -0.153  15.984  0.00  0.00    +0.000 A 
ATOM      3  N   UNL     1      36.737   0.180  17.215  0.00  0.00    +0.000 NA
ATOM      4  N   UNL     1      37.715  -1.359  15.538  0.00  0.00    +0.000 N 
ATOM      5  C   UNL     1      38.282  -1.253  14.347  0.00  0.00    +0.000 A 
ATOM      6  N   UNL     1      38.793  -2.184  13.500  0.00  0.00    +0.000 NA
ATOM      7  C   UNL     1      39.331  -1.810  12.310  0.00  0.00    +0.000 A 
ATOM      8  C   UNL     1      39.852  -2.745  11.443  0.00  0.00    +0.000 A 
ATOM      9  C   UNL     1      40.394  -2.328  10.237  0.00  0.00    +0.000 A 
ATOM     10  C   UNL     1      40.434  -0.996   9.865  0.00  0.00    +0.000 A 
ATOM     11  C   UNL     1      39.907  -0.079  10.751  0.00  0.00    +0.000 A 
ATOM     12  C   UNL     1      39.355  -0.472  11.969  0.00  0.00    +0.000 A 
ATOM     13  N   UNL     1      38.850   0.457  12.808  0.00  0.00    +0.000 NA
ATOM     14  C   UNL     1      38.312   0.077  13.996  0.00  0.00    +0.000 A 
ENDROOT
BRANCH   1  16
ATOM     15  N   UNL     1      38.677   3.056  15.289  0.00  0.00    +0.000 NA
ATOM     16  C   UNL     1      37.574   2.212  15.049  0.00  0.00    +0.000 C 
ATOM     17  O   UNL     1      36.450   2.718  14.853  0.00  0.00    +0.000 OA
BRANCH  15  18
ATOM     18  C   UNL     1      38.469   4.483  15.298  0.00  0.00    +0.000 C 
BRANCH  18  19
ATOM     19  C   UNL     1      39.311   5.035  16.447  0.00  0.00    +0.000 C 
BRANCH  19  20
ATOM     20  C   UNL     1      38.547   4.729  17.734  0.00  0.00    +0.000 C 
BRANCH  20  21
ATOM     21  C   UNL     1      39.047   5.659  18.831  0.00  0.00    +0.000 C 
BRANCH  21  23
ATOM     22  C   UNL     1      41.172   6.425  19.864  0.00  0.00    +0.000 C 
ATOM     23  C   UNL     1      40.476   6.079  18.569  0.00  0.00    +0.000 C 
ENDBRANCH  21  23
ENDBRANCH  20  21
ENDBRANCH  19  20
ENDBRANCH  18  19
ENDBRANCH  15  18
ENDBRANCH   1  16
BRANCH   4  24
ATOM     24  C   UNL     1      37.492  -2.602  16.268  0.00  0.00    +0.000 C 
BRANCH  24  25
ATOM     25  C   UNL     1      36.233  -3.234  15.812  0.00  0.00    +0.000 A 
ATOM     26  C   UNL     1      36.309  -4.302  14.958  0.00  0.00    +0.000 A 
ATOM     27  C   UNL     1      35.191  -4.934  14.496  0.00  0.00    +0.000 A 
ATOM     28  C   UNL     1      33.963  -4.495  14.894  0.00  0.00    +0.000 A 
ATOM     29  C   UNL     1      33.866  -3.417  15.757  0.00  0.00    +0.000 A 
ATOM     30  C   UNL     1      35.001  -2.791  16.214  0.00  0.00    +0.000 A 
ENDBRANCH  24  25
ENDBRANCH   4  24
TORSDOF 8
ENDMDL
MODEL 7
REMARK VINA RESULT:      -7.0      1.575      2.830
REMARK  Name = 
REMARK  8 active torsions:
REMARK  status: ('A' for Active; 'I' for Inactive)
REMARK    1  A    between atoms: C_2  and  C_3
REMARK    2  A    between atoms: C_3  and  C_4
REMARK    3  A    between atoms: C_4  and  C_5
REMARK    4  A    between atoms: C_5  and  C_6
REMARK    5  A    between atoms: C_6  and  N_7
REMARK    6  A    between atoms: C_8  and  C_10
REMARK    7  A    between atoms: N_13  and  C_14
REMARK    8  A    between atoms: C_14  and  C_15
REMARK                            x       y       z     vdW  Elec       q    Type
REMARK                         _______ _______ _______ _____ _____    ______ ____
ROOT
ATOM      1  C   UNL     1      38.030   2.831  15.097  0.00  0.00    +0.000 A 
ATOM      2  C   UNL     1      38.841   2.526  14.021  0.00  0.00    +0.000 A 
ATOM      3  N   UNL     1      39.740   3.451  13.418  0.00  0.00    +0.000 NA
ATOM      4  N   UNL     1      38.620   1.257  13.684  0.00  0.00    +0.000 N 
ATOM      5  C   UNL     1      37.709   0.731  14.486  0.00  0.00    +0.000 A 
ATOM      6  N   UNL     1      37.158  -0.510  14.541  0.00  0.00    +0.000 NA
ATOM      7  C   UNL     1      36.222  -0.806  15.480  0.00  0.00    +0.000 A 
ATOM      8  C   UNL     1      35.656  -2.060  15.546  0.00  0.00    +0.000 A 
ATOM      9  C   UNL     1      34.703  -2.327  16.517  0.00  0.00    +0.000 A 
ATOM     10  C   UNL     1      34.293  -1.375  17.433  0.00  0.00    +0.000 A 
ATOM     11  C   UNL     1      34.874  -0.126  17.346  0.00  0.00    +0.000 A 
ATOM     12  C   UNL     1      35.835   0.168  16.380  0.00  0.00    +0.000 A 
ATOM     13  N   UNL     1      36.379   1.402  16.329  0.00  0.00    +0.000 NA
ATOM     14  C   UNL     1      37.315   1.692  15.387  0.00  0.00    +0.000 A 
ENDROOT
BRANCH   1  16
ATOM     15  N   UNL     1      38.538   4.248  17.067  0.00  0.00    +0.000 NA
ATOM     16  C   UNL     1      37.906   4.074  15.819  0.00  0.00    +0.000 C 
ATOM     17  O   UNL     1      37.233   5.011  15.342  0.00  0.00    +0.000 OA
BRANCH  15  18
ATOM     18  C   UNL     1      38.386   5.507  17.753  0.00  0.00    +0.000 C 
BRANCH  18  19
ATOM     19  C   UNL     1      39.598   5.648  18.671  0.00  0.00    +0.000 C 
BRANCH  19  20
ATOM     20  C   UNL     1      40.741   6.179  17.807  0.00  0.00    +0.000 C 
BRANCH  20  21
ATOM     21  C   UNL     1      41.899   6.569  18.715  0.00  0.00    +0.000 C 
BRANCH  21  23
ATOM     22  C   UNL     1      42.812   6.358  21.016  0.00  0.00    +0.000 C 
ATOM     23  C   UNL     1      41.569   6.277  20.161  0.00  0.00    +0.000 C 
ENDBRANCH  21  23
ENDBRANCH  20  21
ENDBRANCH  19  20
ENDBRANCH  18  19
ENDBRANCH  15  18
ENDBRANCH   1  16
BRANCH   4  24
ATOM     24  C   UNL     1      39.292   0.566  12.588  0.00  0.00    +0.000 C 
BRANCH  24  25
ATOM     25  C   UNL     1      38.647   0.915  11.303  0.00  0.00    +0.000 A 
ATOM     26  C   UNL     1      39.444   1.265  10.245  0.00  0.00    +0.000 A 
ATOM     27  C   UNL     1      38.919   1.599   9.030  0.00  0.00    +0.000 A 
ATOM     28  C   UNL     1      37.567   1.583   8.859  0.00  0.00    +0.000 A 
ATOM     29  C   UNL     1      36.745   1.231   9.916  0.00  0.00    +0.000 A 
ATOM     30  C   UNL     1      37.288   0.898  11.134  0.00  0.00    +0.000 A 
ENDBRANCH  24  25
ENDBRANCH   4  24
TORSDOF 8
ENDMDL
MODEL 8
REMARK VINA RESULT:      -7.0      1.792      6.566
REMARK  Name = 
REMARK  8 active torsions:
REMARK  status: ('A' for Active; 'I' for Inactive)
REMARK    1  A    between atoms: C_2  and  C_3
REMARK    2  A    between atoms: C_3  and  C_4
REMARK    3  A    between atoms: C_4  and  C_5
REMARK    4  A    between atoms: C_5  and  C_6
REMARK    5  A    between atoms: C_6  and  N_7
REMARK    6  A    between atoms: C_8  and  C_10
REMARK    7  A    between atoms: N_13  and  C_14
REMARK    8  A    between atoms: C_14  and  C_15
REMARK                            x       y       z     vdW  Elec       q    Type
REMARK                         _______ _______ _______ _____ _____    ______ ____
ROOT
ATOM      1  C   UNL     1      39.740   1.950  13.935  0.00  0.00    +0.000 A 
ATOM      2  C   UNL     1      39.775   3.325  14.074  0.00  0.00    +0.000 A 
ATOM      3  N   UNL     1      40.779   4.155  13.499  0.00  0.00    +0.000 NA
ATOM      4  N   UNL     1      38.732   3.692  14.815  0.00  0.00    +0.000 N 
ATOM      5  C   UNL     1      38.028   2.625  15.160  0.00  0.00    +0.000 A 
ATOM      6  N   UNL     1      36.897   2.486  15.900  0.00  0.00    +0.000 NA
ATOM      7  C   UNL     1      36.362   1.256  16.113  0.00  0.00    +0.000 A 
ATOM      8  C   UNL     1      35.216   1.103  16.862  0.00  0.00    +0.000 A 
ATOM      9  C   UNL     1      34.696  -0.168  17.060  0.00  0.00    +0.000 A 
ATOM     10  C   UNL     1      35.290  -1.300  16.530  0.00  0.00    +0.000 A 
ATOM     11  C   UNL     1      36.437  -1.120  15.785  0.00  0.00    +0.000 A 
ATOM     12  C   UNL     1      36.979   0.146  15.570  0.00  0.00    +0.000 A 
ATOM     13  N   UNL     1      38.103   0.279  14.834  0.00  0.00    +0.000 NA
ATOM     14  C   UNL     1      38.633   1.512  14.624  0.00  0.00    +0.000 A 
ENDROOT
BRANCH   1  16
ATOM     15  N   UNL     1      41.795   0.565  13.862  0.00  0.00    +0.000 NA
ATOM     16  C   UNL     1      40.650   1.084  13.225  0.00  0.00    +0.000 C 
ATOM     17  O   UNL     1      40.429   0.786  12.032  0.00  0.00    +0.000 OA
BRANCH  15  18
ATOM     18  C   UNL     1      42.676  -0.297  13.113  0.00  0.00    +0.000 C 
BRANCH  18  19
ATOM     19  C   UNL     1      42.428  -1.716  13.621  0.00  0.00    +0.000 C 
BRANCH  19  20
ATOM     20  C   UNL     1      42.048  -2.555  12.402  0.00  0.00    +0.000 C 
BRANCH  20  21
ATOM     21  C   UNL     1      40.789  -3.346  12.728  0.00  0.00    +0.000 C 
BRANCH  21  23
ATOM     22  C   UNL     1      38.383  -2.953  13.208  0.00  0.00    +0.000 C 
ATOM     23  C   UNL     1      39.552  -2.576  12.327  0.00  0.00    +0.000 C 
ENDBRANCH  21  23
ENDBRANCH  20  21
ENDBRANCH  19  20
ENDBRANCH  18  19
ENDBRANCH  15  18
ENDBRANCH   1  16
BRANCH   4  24
ATOM     24  C   UNL     1      38.425   5.070  15.181  0.00  0.00    +0.000 C 
BRANCH  24  25
ATOM     25  C   UNL     1      39.141   5.430  16.426  0.00  0.00    +0.000 A 
ATOM     26  C   UNL     1      38.539   5.166  17.627  0.00  0.00    +0.000 A 
ATOM     27  C   UNL     1      39.138   5.470  18.815  0.00  0.00    +0.000 A 
ATOM     28  C   UNL     1      40.372   6.052  18.811  0.00  0.00    +0.000 A 
ATOM     29  C   UNL     1      40.997   6.327  17.607  0.00  0.00    +0.000 A 
ATOM     30  C   UNL     1      40.380   6.014  16.419  0.00  0.00    +0.000 A 
ENDBRANCH  24  25
ENDBRANCH   4  24
TORSDOF 8
ENDMDL
MODEL 9
REMARK VINA RESULT:      -6.9      3.764      6.401
REMARK  Name = 
REMARK  8 active torsions:
REMARK  status: ('A' for Active; 'I' for Inactive)
REMARK    1  A    between atoms: C_2  and  C_3
REMARK    2  A    between atoms: C_3  and  C_4
REMARK    3  A    between atoms: C_4  and  C_5
REMARK    4  A    between atoms: C_5  and  C_6
REMARK    5  A    between atoms: C_6  and  N_7
REMARK    6  A    between atoms: C_8  and  C_10
REMARK    7  A    between atoms: N_13  and  C_14
REMARK    8  A    between atoms: C_14  and  C_15
REMARK                            x       y       z     vdW  Elec       q    Type
REMARK                         _______ _______ _______ _____ _____    ______ ____
ROOT
ATOM      1  C   UNL     1      39.409  -1.195  15.039  0.00  0.00    +0.000 A 
ATOM      2  C   UNL     1      38.977  -2.183  15.904  0.00  0.00    +0.000 A 
ATOM      3  N   UNL     1      39.713  -3.369  16.184  0.00  0.00    +0.000 NA
ATOM      4  N   UNL     1      37.795  -1.816  16.394  0.00  0.00    +0.000 N 
ATOM      5  C   UNL     1      37.444  -0.644  15.890  0.00  0.00    +0.000 A 
ATOM      6  N   UNL     1      36.345   0.132  16.080  0.00  0.00    +0.000 NA
ATOM      7  C   UNL     1      36.220   1.319  15.430  0.00  0.00    +0.000 A 
ATOM      8  C   UNL     1      35.110   2.113  15.615  0.00  0.00    +0.000 A 
ATOM      9  C   UNL     1      35.015   3.319  14.935  0.00  0.00    +0.000 A 
ATOM     10  C   UNL     1      36.001   3.759  14.070  0.00  0.00    +0.000 A 
ATOM     11  C   UNL     1      37.102   2.945  13.901  0.00  0.00    +0.000 A 
ATOM     12  C   UNL     1      37.222   1.729  14.573  0.00  0.00    +0.000 A 
ATOM     13  N   UNL     1      38.316   0.962  14.381  0.00  0.00    +0.000 NA
ATOM     14  C   UNL     1      38.435  -0.224  15.034  0.00  0.00    +0.000 A 
ENDROOT
BRANCH   1  16
ATOM     15  N   UNL     1      41.700  -0.320  14.679  0.00  0.00    +0.000 NA
ATOM     16  C   UNL     1      40.624  -1.132  14.265  0.00  0.00    +0.000 C 
ATOM     17  O   UNL     1      40.734  -1.799  13.215  0.00  0.00    +0.000 OA
BRANCH  15  18
ATOM     18  C   UNL     1      42.896  -0.288  13.873  0.00  0.00    +0.000 C 
BRANCH  18  19
ATOM     19  C   UNL     1      44.020  -0.841  14.746  0.00  0.00    +0.000 C 
BRANCH  19  20
ATOM     20  C   UNL     1      45.291  -0.094  14.346  0.00  0.00    +0.000 C 
BRANCH  20  21
ATOM     21  C   UNL     1      46.109   0.182  15.600  0.00  0.00    +0.000 C 
BRANCH  21  23
ATOM     22  C   UNL     1      46.217  -0.131  18.062  0.00  0.00    +0.000 C 
ATOM     23  C   UNL     1      45.327  -0.180  16.842  0.00  0.00    +0.000 C 
ENDBRANCH  21  23
ENDBRANCH  20  21
ENDBRANCH  19  20
ENDBRANCH  18  19
ENDBRANCH  15  18
ENDBRANCH   1  16
BRANCH   4  24
ATOM     24  C   UNL     1      37.017  -2.602  17.345  0.00  0.00    +0.000 C 
BRANCH  24  25
ATOM     25  C   UNL     1      36.126  -3.534  16.618  0.00  0.00    +0.000 A 
ATOM     26  C   UNL     1      34.960  -3.047  16.089  0.00  0.00    +0.000 A 
ATOM     27  C   UNL     1      34.091  -3.847  15.407  0.00  0.00    +0.000 A 
ATOM     28  C   UNL     1      34.388  -5.168  15.242  0.00  0.00    +0.000 A 
ATOM     29  C   UNL     1      35.561  -5.679  15.769  0.00  0.00    +0.000 A 
ATOM     30  C   UNL     1      36.427  -4.860  16.454  0.00  0.00    +0.000 A 
ENDBRANCH  24  25
ENDBRANCH   4  24
TORSDOF 8
ENDMDL
MODEL 10
REMARK VINA RESULT:      -6.9     26.046     28.586
REMARK  Name = 
REMARK  8 active torsions:
REMARK  status: ('A' for Active; 'I' for Inactive)
REMARK    1  A    between atoms: C_2  and  C_3
REMARK    2  A    between atoms: C_3  and  C_4
REMARK    3  A    between atoms: C_4  and  C_5
REMARK    4  A    between atoms: C_5  and  C_6
REMARK    5  A    between atoms: C_6  and  N_7
REMARK    6  A    between atoms: C_8  and  C_10
REMARK    7  A    between atoms: N_13  and  C_14
REMARK    8  A    between atoms: C_14  and  C_15
REMARK                            x       y       z     vdW  Elec       q    Type
REMARK                         _______ _______ _______ _____ _____    ______ ____
ROOT
ATOM      1  C   UNL     1      27.352  13.357  40.391  0.00  0.00    +0.000 A 
ATOM      2  C   UNL     1      28.586  13.976  40.319  0.00  0.00    +0.000 A 
ATOM      3  N   UNL     1      28.774  15.324  39.901  0.00  0.00    +0.000 NA
ATOM      4  N   UNL     1      29.510  13.098  40.701  0.00  0.00    +0.000 N 
ATOM      5  C   UNL     1      28.936  11.948  41.015  0.00  0.00    +0.000 A 
ATOM      6  N   UNL     1      29.450  10.767  41.452  0.00  0.00    +0.000 NA
ATOM      7  C   UNL     1      28.631   9.715  41.708  0.00  0.00    +0.000 A 
ATOM      8  C   UNL     1      29.139   8.514  42.151  0.00  0.00    +0.000 A 
ATOM      9  C   UNL     1      28.274   7.459  42.403  0.00  0.00    +0.000 A 
ATOM     10  C   UNL     1      26.907   7.565  42.224  0.00  0.00    +0.000 A 
ATOM     11  C   UNL     1      26.422   8.778  41.779  0.00  0.00    +0.000 A 
ATOM     12  C   UNL     1      27.269   9.854  41.519  0.00  0.00    +0.000 A 
ATOM     13  N   UNL     1      26.755  11.024  41.085  0.00  0.00    +0.000 NA
ATOM     14  C   UNL     1      27.579  12.074  40.831  0.00  0.00    +0.000 A 
ENDROOT
BRANCH   1  16
ATOM     15  N   UNL     1      25.757  14.375  38.789  0.00  0.00    +0.000 NA
ATOM     16  C   UNL     1      26.048  13.890  40.080  0.00  0.00    +0.000 C 
ATOM     17  O   UNL     1      25.161  13.927  40.959  0.00  0.00    +0.000 OA
BRANCH  15  18
ATOM     18  C   UNL     1      24.440  14.899  38.524  0.00  0.00    +0.000 C 
BRANCH  18  19
ATOM     19  C   UNL     1      24.596  15.908  37.389  0.00  0.00    +0.000 C 
BRANCH  19  20
ATOM     20  C   UNL     1      25.883  15.541  36.652  0.00  0.00    +0.000 C 
BRANCH  20  21
ATOM     21  C   UNL     1      25.696  15.835  35.169  0.00  0.00    +0.000 C 
BRANCH  21  23
ATOM     22  C   UNL     1      25.211  14.666  33.032  0.00  0.00    +0.000 C 
ATOM     23  C   UNL     1      25.967  14.602  34.339  0.00  0.00    +0.000 C 
ENDBRANCH  21  23
ENDBRANCH  20  21
ENDBRANCH  19  20
ENDBRANCH  18  19
ENDBRANCH  15  18
ENDBRANCH   1  16
BRANCH   4  24
ATOM     24  C   UNL     1      30.941  13.380  40.760  0.00  0.00    +0.000 C 
BRANCH  24  25
ATOM     25  C   UNL     1      31.539  13.231  39.414  0.00  0.00    +0.000 A 
ATOM     26  C   UNL     1      31.929  14.358  38.742  0.00  0.00    +0.000 A 
ATOM     27  C   UNL     1      32.487  14.297  37.499  0.00  0.00    +0.000 A 
ATOM     28  C   UNL     1      32.665  13.082  36.905  0.00  0.00    +0.000 A 
ATOM     29  C   UNL     1      32.278  11.931  37.569  0.00  0.00    +0.000 A 
ATOM     30  C   UNL     1      31.716  12.009  38.821  0.00  0.00    +0.000 A 
ENDBRANCH  24  25
ENDBRANCH   4  24
TORSDOF 8
ENDMDL
