MODEL 1
REMARK VINA RESULT:      -6.9      0.000      0.000
REMARK  Name = 
REMARK  0 active torsions:
REMARK  status: ('A' for Active; 'I' for Inactive)
REMARK                            x       y       z     vdW  Elec       q    Type
REMARK                         _______ _______ _______ _____ _____    ______ ____
ROOT
ATOM      1  C   UNL     1      29.116  25.829  21.043  0.00  0.00    +0.000 C 
ATOM      2  C   UNL     1      28.054  25.231  21.918  0.00  0.00    +0.000 A 
ATOM      3  C   UNL     1      27.358  24.070  21.660  0.00  0.00    +0.000 A 
ATOM      4  C   UNL     1      26.488  23.891  22.711  0.00  0.00    +0.000 A 
ATOM      5  N   UNL     1      25.568  22.830  22.883  0.00  0.00    +0.000 NA
ATOM      6  N   UNL     1      26.650  24.909  23.577  0.00  0.00    +0.000 N 
ATOM      7  C   UNL     1      25.953  25.111  24.793  0.00  0.00    +0.000 A 
ATOM      8  N   UNL     1      24.945  25.974  24.834  0.00  0.00    +0.000 NA
ATOM      9  C   UNL     1      24.191  26.282  25.877  0.00  0.00    +0.000 A 
ATOM     10  N   UNL     1      24.504  25.627  27.035  0.00  0.00    +0.000 NA
ATOM     11  C   UNL     1      25.530  24.724  27.070  0.00  0.00    +0.000 A 
ATOM     12  S   UNL     1      26.192  23.744  28.292  0.00  0.00    +0.000 S 
ATOM     13  C   UNL     1      27.421  22.972  27.398  0.00  0.00    +0.000 A 
ATOM     14  C   UNL     1      27.279  23.511  26.148  0.00  0.00    +0.000 A 
ATOM     15  C   UNL     1      26.291  24.424  25.979  0.00  0.00    +0.000 A 
ATOM     16  C   UNL     1      28.203  23.079  25.016  0.00  0.00    +0.000 C 
ATOM     17  C   UNL     1      29.600  23.441  25.446  0.00  0.00    +0.000 C 
ATOM     18  C   UNL     1      30.138  22.240  26.227  0.00  0.00    +0.000 C 
ATOM     19  C   UNL     1      29.814  22.403  27.691  0.00  0.00    +0.000 C 
ATOM     20  C   UNL     1      28.386  21.957  27.935  0.00  0.00    +0.000 C 
ATOM     21  N   UNL     1      27.589  25.697  23.085  0.00  0.00    +0.000 NA
ENDROOT
TORSDOF 0
ENDMDL
MODEL 2
REMARK VINA RESULT:      -6.3      2.436      4.969
REMARK  Name = 
REMARK  0 active torsions:
REMARK  status: ('A' for Active; 'I' for Inactive)
REMARK                            x       y       z     vdW  Elec       q    Type
REMARK                         _______ _______ _______ _____ _____    ______ ____
ROOT
ATOM      1  C   UNL     1      27.119  21.944  30.198  0.00  0.00    +0.000 C 
ATOM      2  C   UNL     1      26.979  22.817  28.985  0.00  0.00    +0.000 A 
ATOM      3  C   UNL     1      26.873  24.190  28.989  0.00  0.00    +0.000 A 
ATOM      4  C   UNL     1      26.764  24.581  27.674  0.00  0.00    +0.000 A 
ATOM      5  N   UNL     1      26.633  25.902  27.187  0.00  0.00    +0.000 NA
ATOM      6  N   UNL     1      26.803  23.481  26.898  0.00  0.00    +0.000 N 
ATOM      7  C   UNL     1      26.722  23.433  25.485  0.00  0.00    +0.000 A 
ATOM      8  N   UNL     1      25.570  23.120  24.906  0.00  0.00    +0.000 NA
ATOM      9  C   UNL     1      25.319  23.030  23.609  0.00  0.00    +0.000 A 
ATOM     10  N   UNL     1      26.382  23.293  22.791  0.00  0.00    +0.000 NA
ATOM     11  C   UNL     1      27.601  23.623  23.316  0.00  0.00    +0.000 A 
ATOM     12  S   UNL     1      29.110  24.005  22.633  0.00  0.00    +0.000 S 
ATOM     13  C   UNL     1      30.006  24.267  24.058  0.00  0.00    +0.000 A 
ATOM     14  C   UNL     1      29.086  24.044  25.046  0.00  0.00    +0.000 A 
ATOM     15  C   UNL     1      27.832  23.708  24.657  0.00  0.00    +0.000 A 
ATOM     16  C   UNL     1      29.484  24.180  26.512  0.00  0.00    +0.000 C 
ATOM     17  C   UNL     1      30.575  23.169  26.751  0.00  0.00    +0.000 C 
ATOM     18  C   UNL     1      31.895  23.868  26.417  0.00  0.00    +0.000 C 
ATOM     19  C   UNL     1      32.228  23.650  24.963  0.00  0.00    +0.000 C 
ATOM     20  C   UNL     1      31.456  24.648  24.122  0.00  0.00    +0.000 C 
ATOM     21  N   UNL     1      26.931  22.440  27.700  0.00  0.00    +0.000 NA
ENDROOT
TORSDOF 0
ENDMDL
MODEL 3
REMARK VINA RESULT:      -6.3      2.265      3.320
REMARK  Name = 
REMARK  0 active torsions:
REMARK  status: ('A' for Active; 'I' for Inactive)
REMARK                            x       y       z     vdW  Elec       q    Type
REMARK                         _______ _______ _______ _____ _____    ______ ____
ROOT
ATOM      1  C   UNL     1      28.845  29.141  21.571  0.00  0.00    +0.000 C 
ATOM      2  C   UNL     1      28.792  27.655  21.773  0.00  0.00    +0.000 A 
ATOM      3  C   UNL     1      29.435  26.715  20.998  0.00  0.00    +0.000 A 
ATOM      4  C   UNL     1      29.119  25.485  21.529  0.00  0.00    +0.000 A 
ATOM      5  N   UNL     1      29.551  24.221  21.064  0.00  0.00    +0.000 NA
ATOM      6  N   UNL     1      28.311  25.673  22.590  0.00  0.00    +0.000 N 
ATOM      7  C   UNL     1      27.753  24.673  23.423  0.00  0.00    +0.000 A 
ATOM      8  N   UNL     1      26.495  24.295  23.239  0.00  0.00    +0.000 NA
ATOM      9  C   UNL     1      25.820  23.383  23.921  0.00  0.00    +0.000 A 
ATOM     10  N   UNL     1      26.519  22.773  24.925  0.00  0.00    +0.000 NA
ATOM     11  C   UNL     1      27.820  23.110  25.174  0.00  0.00    +0.000 A 
ATOM     12  S   UNL     1      28.976  22.583  26.305  0.00  0.00    +0.000 S 
ATOM     13  C   UNL     1      30.288  23.569  25.847  0.00  0.00    +0.000 A 
ATOM     14  C   UNL     1      29.779  24.296  24.805  0.00  0.00    +0.000 A 
ATOM     15  C   UNL     1      28.492  24.055  24.456  0.00  0.00    +0.000 A 
ATOM     16  C   UNL     1      30.649  25.321  24.087  0.00  0.00    +0.000 C 
ATOM     17  C   UNL     1      31.048  26.339  25.122  0.00  0.00    +0.000 C 
ATOM     18  C   UNL     1      32.338  25.823  25.763  0.00  0.00    +0.000 C 
ATOM     19  C   UNL     1      32.001  24.969  26.960  0.00  0.00    +0.000 C 
ATOM     20  C   UNL     1      31.644  23.574  26.489  0.00  0.00    +0.000 C 
ATOM     21  N   UNL     1      28.129  26.975  22.718  0.00  0.00    +0.000 NA
ENDROOT
TORSDOF 0
ENDMDL
MODEL 4
REMARK VINA RESULT:      -6.2     31.969     33.639
REMARK  Name = 
REMARK  0 active torsions:
REMARK  status: ('A' for Active; 'I' for Inactive)
REMARK                            x       y       z     vdW  Elec       q    Type
REMARK                         _______ _______ _______ _____ _____    ______ ____
ROOT
ATOM      1  C   UNL     1      24.723  -7.586  24.104  0.00  0.00    +0.000 C 
ATOM      2  C   UNL     1      23.250  -7.826  24.258  0.00  0.00    +0.000 A 
ATOM      3  C   UNL     1      22.470  -8.601  23.430  0.00  0.00    +0.000 A 
ATOM      4  C   UNL     1      21.189  -8.548  23.931  0.00  0.00    +0.000 A 
ATOM      5  N   UNL     1      20.043  -9.192  23.409  0.00  0.00    +0.000 NA
ATOM      6  N   UNL     1      21.192  -7.765  25.026  0.00  0.00    +0.000 N 
ATOM      7  C   UNL     1      20.083  -7.443  25.846  0.00  0.00    +0.000 A 
ATOM      8  N   UNL     1      19.477  -6.273  25.696  0.00  0.00    +0.000 NA
ATOM      9  C   UNL     1      18.435  -5.814  26.372  0.00  0.00    +0.000 A 
ATOM     10  N   UNL     1      17.944  -6.658  27.329  0.00  0.00    +0.000 NA
ATOM     11  C   UNL     1      18.518  -7.881  27.540  0.00  0.00    +0.000 A 
ATOM     12  S   UNL     1      18.193  -9.162  28.610  0.00  0.00    +0.000 S 
ATOM     13  C   UNL     1      19.423 -10.243  28.137  0.00  0.00    +0.000 A 
ATOM     14  C   UNL     1      20.065  -9.561  27.139  0.00  0.00    +0.000 A 
ATOM     15  C   UNL     1      19.591  -8.329  26.830  0.00  0.00    +0.000 A 
ATOM     16  C   UNL     1      21.256 -10.189  26.423  0.00  0.00    +0.000 C 
ATOM     17  C   UNL     1      22.305 -10.431  27.476  0.00  0.00    +0.000 C 
ATOM     18  C   UNL     1      22.028 -11.822  28.052  0.00  0.00    +0.000 C 
ATOM     19  C   UNL     1      21.096 -11.705  29.231  0.00  0.00    +0.000 C 
ATOM     20  C   UNL     1      19.670 -11.599  28.728  0.00  0.00    +0.000 C 
ATOM     21  N   UNL     1      22.432  -7.345  25.204  0.00  0.00    +0.000 NA
ENDROOT
TORSDOF 0
ENDMDL
MODEL 5
REMARK VINA RESULT:      -6.1     12.486     15.151
REMARK  Name = 
REMARK  0 active torsions:
REMARK  status: ('A' for Active; 'I' for Inactive)
REMARK                            x       y       z     vdW  Elec       q    Type
REMARK                         _______ _______ _______ _____ _____    ______ ____
ROOT
ATOM      1  C   UNL     1      21.836  24.544  37.961  0.00  0.00    +0.000 C 
ATOM      2  C   UNL     1      20.910  23.460  37.491  0.00  0.00    +0.000 A 
ATOM      3  C   UNL     1      20.437  22.418  38.257  0.00  0.00    +0.000 A 
ATOM      4  C   UNL     1      19.625  21.665  37.439  0.00  0.00    +0.000 A 
ATOM      5  N   UNL     1      18.917  20.493  37.790  0.00  0.00    +0.000 NA
ATOM      6  N   UNL     1      19.608  22.232  36.218  0.00  0.00    +0.000 N 
ATOM      7  C   UNL     1      18.898  21.778  35.080  0.00  0.00    +0.000 A 
ATOM      8  N   UNL     1      19.538  21.095  34.139  0.00  0.00    +0.000 NA
ATOM      9  C   UNL     1      19.033  20.600  33.020  0.00  0.00    +0.000 A 
ATOM     10  N   UNL     1      17.699  20.831  32.831  0.00  0.00    +0.000 NA
ATOM     11  C   UNL     1      16.974  21.529  33.757  0.00  0.00    +0.000 A 
ATOM     12  S   UNL     1      15.344  22.000  33.861  0.00  0.00    +0.000 S 
ATOM     13  C   UNL     1      15.383  22.820  35.354  0.00  0.00    +0.000 A 
ATOM     14  C   UNL     1      16.691  22.702  35.737  0.00  0.00    +0.000 A 
ATOM     15  C   UNL     1      17.520  22.028  34.902  0.00  0.00    +0.000 A 
ATOM     16  C   UNL     1      17.164  23.310  37.053  0.00  0.00    +0.000 C 
ATOM     17  C   UNL     1      16.913  24.791  36.951  0.00  0.00    +0.000 C 
ATOM     18  C   UNL     1      15.487  25.025  37.456  0.00  0.00    +0.000 C 
ATOM     19  C   UNL     1      14.522  24.941  36.301  0.00  0.00    +0.000 C 
ATOM     20  C   UNL     1      14.212  23.485  36.017  0.00  0.00    +0.000 C 
ATOM     21  N   UNL     1      20.381  23.301  36.271  0.00  0.00    +0.000 NA
ENDROOT
TORSDOF 0
ENDMDL
MODEL 6
REMARK VINA RESULT:      -5.9      2.670      4.500
REMARK  Name = 
REMARK  0 active torsions:
REMARK  status: ('A' for Active; 'I' for Inactive)
REMARK                            x       y       z     vdW  Elec       q    Type
REMARK                         _______ _______ _______ _____ _____    ______ ____
ROOT
ATOM      1  C   UNL     1      32.963  26.876  25.596  0.00  0.00    +0.000 C 
ATOM      2  C   UNL     1      32.088  25.721  25.207  0.00  0.00    +0.000 A 
ATOM      3  C   UNL     1      32.292  24.404  25.556  0.00  0.00    +0.000 A 
ATOM      4  C   UNL     1      31.262  23.684  24.994  0.00  0.00    +0.000 A 
ATOM      5  N   UNL     1      31.053  22.288  25.083  0.00  0.00    +0.000 NA
ATOM      6  N   UNL     1      30.461  24.535  24.327  0.00  0.00    +0.000 N 
ATOM      7  C   UNL     1      29.286  24.211  23.606  0.00  0.00    +0.000 A 
ATOM      8  N   UNL     1      29.338  24.105  22.285  0.00  0.00    +0.000 NA
ATOM      9  C   UNL     1      28.344  23.811  21.461  0.00  0.00    +0.000 A 
ATOM     10  N   UNL     1      27.135  23.596  22.062  0.00  0.00    +0.000 NA
ATOM     11  C   UNL     1      27.005  23.688  23.419  0.00  0.00    +0.000 A 
ATOM     12  S   UNL     1      25.698  23.495  24.491  0.00  0.00    +0.000 S 
ATOM     13  C   UNL     1      26.495  23.803  25.965  0.00  0.00    +0.000 A 
ATOM     14  C   UNL     1      27.782  24.053  25.574  0.00  0.00    +0.000 A 
ATOM     15  C   UNL     1      28.046  23.993  24.245  0.00  0.00    +0.000 A 
ATOM     16  C   UNL     1      28.851  24.379  26.611  0.00  0.00    +0.000 C 
ATOM     17  C   UNL     1      28.398  25.634  27.308  0.00  0.00    +0.000 C 
ATOM     18  C   UNL     1      27.520  25.187  28.480  0.00  0.00    +0.000 C 
ATOM     19  C   UNL     1      26.083  25.104  28.032  0.00  0.00    +0.000 C 
ATOM     20  C   UNL     1      25.859  23.783  27.324  0.00  0.00    +0.000 C 
ATOM     21  N   UNL     1      30.971  25.745  24.467  0.00  0.00    +0.000 NA
ENDROOT
TORSDOF 0
ENDMDL
MODEL 7
REMARK VINA RESULT:      -5.7      2.630      5.183
REMARK  Name = 
REMARK  0 active torsions:
REMARK  status: ('A' for Active; 'I' for Inactive)
REMARK                            x       y       z     vdW  Elec       q    Type
REMARK                         _______ _______ _______ _____ _____    ______ ____
ROOT
ATOM      1  C   UNL     1      25.576  23.063  23.119  0.00  0.00    +0.000 C 
ATOM      2  C   UNL     1      26.155  23.553  24.414  0.00  0.00    +0.000 A 
ATOM      3  C   UNL     1      27.258  24.367  24.545  0.00  0.00    +0.000 A 
ATOM      4  C   UNL     1      27.440  24.570  25.894  0.00  0.00    +0.000 A 
ATOM      5  N   UNL     1      28.452  25.343  26.510  0.00  0.00    +0.000 NA
ATOM      6  N   UNL     1      26.479  23.901  26.559  0.00  0.00    +0.000 N 
ATOM      7  C   UNL     1      26.299  23.841  27.962  0.00  0.00    +0.000 A 
ATOM      8  N   UNL     1      26.723  22.777  28.632  0.00  0.00    +0.000 NA
ATOM      9  C   UNL     1      26.636  22.558  29.935  0.00  0.00    +0.000 A 
ATOM     10  N   UNL     1      26.037  23.556  30.653  0.00  0.00    +0.000 NA
ATOM     11  C   UNL     1      25.575  24.682  30.032  0.00  0.00    +0.000 A 
ATOM     12  S   UNL     1      24.798  26.092  30.579  0.00  0.00    +0.000 S 
ATOM     13  C   UNL     1      24.617  26.909  29.095  0.00  0.00    +0.000 A 
ATOM     14  C   UNL     1      25.179  26.043  28.196  0.00  0.00    +0.000 A 
ATOM     15  C   UNL     1      25.678  24.882  28.687  0.00  0.00    +0.000 A 
ATOM     16  C   UNL     1      25.228  26.399  26.715  0.00  0.00    +0.000 C 
ATOM     17  C   UNL     1      23.799  26.562  26.268  0.00  0.00    +0.000 C 
ATOM     18  C   UNL     1      23.431  28.026  26.519  0.00  0.00    +0.000 C 
ATOM     19  C   UNL     1      22.851  28.171  27.903  0.00  0.00    +0.000 C 
ATOM     20  C   UNL     1      23.981  28.255  28.909  0.00  0.00    +0.000 C 
ATOM     21  N   UNL     1      25.723  23.301  25.657  0.00  0.00    +0.000 NA
ENDROOT
TORSDOF 0
ENDMDL
MODEL 8
REMARK VINA RESULT:      -5.7     17.580     19.867
REMARK  Name = 
REMARK  0 active torsions:
REMARK  status: ('A' for Active; 'I' for Inactive)
REMARK                            x       y       z     vdW  Elec       q    Type
REMARK                         _______ _______ _______ _____ _____    ______ ____
ROOT
ATOM      1  C   UNL     1      25.028   7.682  39.795  0.00  0.00    +0.000 C 
ATOM      2  C   UNL     1      24.512   8.829  38.975  0.00  0.00    +0.000 A 
ATOM      3  C   UNL     1      24.443   8.868  37.600  0.00  0.00    +0.000 A 
ATOM      4  C   UNL     1      23.913  10.094  37.267  0.00  0.00    +0.000 A 
ATOM      5  N   UNL     1      23.656  10.585  35.966  0.00  0.00    +0.000 NA
ATOM      6  N   UNL     1      23.670  10.776  38.403  0.00  0.00    +0.000 N 
ATOM      7  C   UNL     1      23.125  12.078  38.514  0.00  0.00    +0.000 A 
ATOM      8  N   UNL     1      23.932  13.109  38.728  0.00  0.00    +0.000 NA
ATOM      9  C   UNL     1      23.595  14.383  38.857  0.00  0.00    +0.000 A 
ATOM     10  N   UNL     1      22.257  14.643  38.753  0.00  0.00    +0.000 NA
ATOM     11  C   UNL     1      21.364  13.631  38.532  0.00  0.00    +0.000 A 
ATOM     12  S   UNL     1      19.674  13.573  38.353  0.00  0.00    +0.000 S 
ATOM     13  C   UNL     1      19.474  11.897  38.118  0.00  0.00    +0.000 A 
ATOM     14  C   UNL     1      20.755  11.420  38.187  0.00  0.00    +0.000 A 
ATOM     15  C   UNL     1      21.739  12.327  38.404  0.00  0.00    +0.000 A 
ATOM     16  C   UNL     1      21.030   9.930  38.022  0.00  0.00    +0.000 C 
ATOM     17  C   UNL     1      20.288   9.234  39.132  0.00  0.00    +0.000 C 
ATOM     18  C   UNL     1      18.882   8.946  38.600  0.00  0.00    +0.000 C 
ATOM     19  C   UNL     1      17.971  10.102  38.926  0.00  0.00    +0.000 C 
ATOM     20  C   UNL     1      18.167  11.195  37.895  0.00  0.00    +0.000 C 
ATOM     21  N   UNL     1      24.034  10.003  39.410  0.00  0.00    +0.000 NA
ENDROOT
TORSDOF 0
ENDMDL
MODEL 9
REMARK VINA RESULT:      -5.7      3.578      6.401
REMARK  Name = 
REMARK  0 active torsions:
REMARK  status: ('A' for Active; 'I' for Inactive)
REMARK                            x       y       z     vdW  Elec       q    Type
REMARK                         _______ _______ _______ _____ _____    ______ ____
ROOT
ATOM      1  C   UNL     1      25.988  27.857  31.210  0.00  0.00    +0.000 C 
ATOM      2  C   UNL     1      26.368  26.459  30.819  0.00  0.00    +0.000 A 
ATOM      3  C   UNL     1      25.650  25.319  31.106  0.00  0.00    +0.000 A 
ATOM      4  C   UNL     1      26.353  24.265  30.567  0.00  0.00    +0.000 A 
ATOM      5  N   UNL     1      26.000  22.896  30.612  0.00  0.00    +0.000 NA
ATOM      6  N   UNL     1      27.460  24.749  29.974  0.00  0.00    +0.000 N 
ATOM      7  C   UNL     1      28.458  24.006  29.299  0.00  0.00    +0.000 A 
ATOM      8  N   UNL     1      29.594  23.719  29.921  0.00  0.00    +0.000 NA
ATOM      9  C   UNL     1      30.625  23.040  29.443  0.00  0.00    +0.000 A 
ATOM     10  N   UNL     1      30.481  22.592  28.160  0.00  0.00    +0.000 NA
ATOM     11  C   UNL     1      29.339  22.849  27.455  0.00  0.00    +0.000 A 
ATOM     12  S   UNL     1      28.815  22.466  25.883  0.00  0.00    +0.000 S 
ATOM     13  C   UNL     1      27.279  23.203  25.910  0.00  0.00    +0.000 A 
ATOM     14  C   UNL     1      27.216  23.738  27.167  0.00  0.00    +0.000 A 
ATOM     15  C   UNL     1      28.291  23.552  27.972  0.00  0.00    +0.000 A 
ATOM     16  C   UNL     1      25.975  24.501  27.616  0.00  0.00    +0.000 C 
ATOM     17  C   UNL     1      25.834  25.672  26.680  0.00  0.00    +0.000 C 
ATOM     18  C   UNL     1      24.999  25.182  25.494  0.00  0.00    +0.000 C 
ATOM     19  C   UNL     1      25.911  24.637  24.424  0.00  0.00    +0.000 C 
ATOM     20  C   UNL     1      26.295  23.214  24.777  0.00  0.00    +0.000 C 
ATOM     21  N   UNL     1      27.450  26.060  30.136  0.00  0.00    +0.000 NA
ENDROOT
TORSDOF 0
ENDMDL
MODEL 10
REMARK VINA RESULT:      -5.5     17.550     19.321
REMARK  Name = 
REMARK  0 active torsions:
REMARK  status: ('A' for Active; 'I' for Inactive)
REMARK                            x       y       z     vdW  Elec       q    Type
REMARK                         _______ _______ _______ _____ _____    ______ ____
ROOT
ATOM      1  C   UNL     1      20.145  17.080  39.703  0.00  0.00    +0.000 C 
ATOM      2  C   UNL     1      20.853  15.761  39.814  0.00  0.00    +0.000 A 
ATOM      3  C   UNL     1      20.899  14.964  40.936  0.00  0.00    +0.000 A 
ATOM      4  C   UNL     1      21.647  13.858  40.604  0.00  0.00    +0.000 A 
ATOM      5  N   UNL     1      21.965  12.763  41.440  0.00  0.00    +0.000 NA
ATOM      6  N   UNL     1      22.042  13.980  39.322  0.00  0.00    +0.000 N 
ATOM      7  C   UNL     1      22.829  13.064  38.583  0.00  0.00    +0.000 A 
ATOM      8  N   UNL     1      24.125  13.298  38.420  0.00  0.00    +0.000 NA
ATOM      9  C   UNL     1      25.001  12.553  37.764  0.00  0.00    +0.000 A 
ATOM     10  N   UNL     1      24.491  11.418  37.197  0.00  0.00    +0.000 NA
ATOM     11  C   UNL     1      23.165  11.111  37.323  0.00  0.00    +0.000 A 
ATOM     12  S   UNL     1      22.199   9.825  36.772  0.00  0.00    +0.000 S 
ATOM     13  C   UNL     1      20.696  10.306  37.416  0.00  0.00    +0.000 A 
ATOM     14  C   UNL     1      20.995  11.478  38.055  0.00  0.00    +0.000 A 
ATOM     15  C   UNL     1      22.284  11.897  38.005  0.00  0.00    +0.000 A 
ATOM     16  C   UNL     1      19.905  12.255  38.785  0.00  0.00    +0.000 C 
ATOM     17  C   UNL     1      18.876  12.621  37.747  0.00  0.00    +0.000 C 
ATOM     18  C   UNL     1      17.886  11.455  37.689  0.00  0.00    +0.000 C 
ATOM     19  C   UNL     1      18.343  10.455  36.657  0.00  0.00    +0.000 C 
ATOM     20  C   UNL     1      19.403   9.560  37.268  0.00  0.00    +0.000 C 
ATOM     21  N   UNL     1      21.557  15.122  38.870  0.00  0.00    +0.000 NA
ENDROOT
TORSDOF 0
ENDMDL
