MODEL 1
REMARK VINA RESULT:      -6.9      0.000      0.000
REMARK  Name = 
REMARK  0 active torsions:
REMARK  status: ('A' for Active; 'I' for Inactive)
REMARK                            x       y       z     vdW  Elec       q    Type
REMARK                         _______ _______ _______ _____ _____    ______ ____
ROOT
ATOM      1  C   UNL     1      36.130   5.159  35.712  0.00  0.00    +0.000 C 
ATOM      2  C   UNL     1      34.885   5.860  36.252  0.00  0.00    +0.000 C 
ATOM      3  C   UNL     1      35.332   7.147  36.874  0.00  0.00    +0.000 C 
ATOM      4  C   UNL     1      33.890   6.116  35.127  0.00  0.00    +0.000 C 
ATOM      5  C   UNL     1      33.460   4.794  34.600  0.00  0.00    +0.000 C 
ATOM      6  O   UNL     1      32.825   4.735  33.515  0.00  0.00    +0.000 OA
ATOM      7  C   UNL     1      33.763   3.554  35.320  0.00  0.00    +0.000 A 
ATOM      8  C   UNL     1      34.165   3.583  36.634  0.00  0.00    +0.000 A 
ATOM      9  N   UNL     1      34.450   2.468  37.320  0.00  0.00    +0.000 NA
ATOM     10  C   UNL     1      34.336   1.262  36.696  0.00  0.00    +0.000 A 
ATOM     11  N   UNL     1      34.541  -0.009  37.092  0.00  0.00    +0.000 NA
ATOM     12  C   UNL     1      34.287  -0.859  36.087  0.00  0.00    +0.000 A 
ATOM     13  C   UNL     1      34.320  -2.230  35.909  0.00  0.00    +0.000 A 
ATOM     14  C   UNL     1      33.989  -2.832  34.707  0.00  0.00    +0.000 A 
ATOM     15  C   UNL     1      33.611  -2.040  33.647  0.00  0.00    +0.000 A 
ATOM     16  C   UNL     1      33.565  -0.653  33.791  0.00  0.00    +0.000 A 
ATOM     17  C   UNL     1      33.903  -0.090  35.005  0.00  0.00    +0.000 A 
ATOM     18  N   UNL     1      33.945   1.181  35.412  0.00  0.00    +0.000 N 
ATOM     19  C   UNL     1      33.658   2.315  34.716  0.00  0.00    +0.000 A 
ATOM     20  N   UNL     1      33.244   2.283  33.369  0.00  0.00    +0.000 NA
ATOM     21  C   UNL     1      34.282   4.906  37.291  0.00  0.00    +0.000 C 
ENDROOT
TORSDOF 0
ENDMDL
MODEL 2
REMARK VINA RESULT:      -6.7     18.282     19.602
REMARK  Name = 
REMARK  0 active torsions:
REMARK  status: ('A' for Active; 'I' for Inactive)
REMARK                            x       y       z     vdW  Elec       q    Type
REMARK                         _______ _______ _______ _____ _____    ______ ____
ROOT
ATOM      1  C   UNL     1      23.680  -9.866  22.264  0.00  0.00    +0.000 C 
ATOM      2  C   UNL     1      24.985  -9.798  23.057  0.00  0.00    +0.000 C 
ATOM      3  C   UNL     1      25.921 -10.804  22.462  0.00  0.00    +0.000 C 
ATOM      4  C   UNL     1      25.576  -8.395  22.987  0.00  0.00    +0.000 C 
ATOM      5  C   UNL     1      24.612  -7.470  23.639  0.00  0.00    +0.000 C 
ATOM      6  O   UNL     1      24.755  -6.227  23.502  0.00  0.00    +0.000 OA
ATOM      7  C   UNL     1      23.494  -7.978  24.439  0.00  0.00    +0.000 A 
ATOM      8  C   UNL     1      23.474  -9.282  24.874  0.00  0.00    +0.000 A 
ATOM      9  N   UNL     1      22.467  -9.777  25.606  0.00  0.00    +0.000 NA
ATOM     10  C   UNL     1      21.427  -8.961  25.935  0.00  0.00    +0.000 A 
ATOM     11  N   UNL     1      20.293  -9.143  26.638  0.00  0.00    +0.000 NA
ATOM     12  C   UNL     1      19.580  -8.009  26.678  0.00  0.00    +0.000 A 
ATOM     13  C   UNL     1      18.379  -7.607  27.232  0.00  0.00    +0.000 A 
ATOM     14  C   UNL     1      17.890  -6.319  27.094  0.00  0.00    +0.000 A 
ATOM     15  C   UNL     1      18.625  -5.401  26.379  0.00  0.00    +0.000 A 
ATOM     16  C   UNL     1      19.842  -5.772  25.806  0.00  0.00    +0.000 A 
ATOM     17  C   UNL     1      20.295  -7.066  25.966  0.00  0.00    +0.000 A 
ATOM     18  N   UNL     1      21.400  -7.677  25.535  0.00  0.00    +0.000 N 
ATOM     19  C   UNL     1      22.423  -7.177  24.790  0.00  0.00    +0.000 A 
ATOM     20  N   UNL     1      22.443  -5.838  24.346  0.00  0.00    +0.000 NA
ATOM     21  C   UNL     1      24.616 -10.151  24.503  0.00  0.00    +0.000 C 
ENDROOT
TORSDOF 0
ENDMDL
MODEL 3
REMARK VINA RESULT:      -6.7     22.365     25.424
REMARK  Name = 
REMARK  0 active torsions:
REMARK  status: ('A' for Active; 'I' for Inactive)
REMARK                            x       y       z     vdW  Elec       q    Type
REMARK                         _______ _______ _______ _____ _____    ______ ____
ROOT
ATOM      1  C   UNL     1      28.577  24.101  28.838  0.00  0.00    +0.000 C 
ATOM      2  C   UNL     1      27.621  22.915  28.959  0.00  0.00    +0.000 C 
ATOM      3  C   UNL     1      27.889  22.259  30.278  0.00  0.00    +0.000 C 
ATOM      4  C   UNL     1      26.175  23.387  28.868  0.00  0.00    +0.000 C 
ATOM      5  C   UNL     1      25.980  23.978  27.517  0.00  0.00    +0.000 C 
ATOM      6  O   UNL     1      24.944  24.650  27.277  0.00  0.00    +0.000 OA
ATOM      7  C   UNL     1      26.975  23.792  26.457  0.00  0.00    +0.000 A 
ATOM      8  C   UNL     1      27.948  22.826  26.563  0.00  0.00    +0.000 A 
ATOM      9  N   UNL     1      28.871  22.632  25.612  0.00  0.00    +0.000 NA
ATOM     10  C   UNL     1      28.846  23.416  24.498  0.00  0.00    +0.000 A 
ATOM     11  N   UNL     1      29.609  23.476  23.390  0.00  0.00    +0.000 NA
ATOM     12  C   UNL     1      29.168  24.440  22.570  0.00  0.00    +0.000 A 
ATOM     13  C   UNL     1      29.538  24.944  21.337  0.00  0.00    +0.000 A 
ATOM     14  C   UNL     1      28.859  25.985  20.725  0.00  0.00    +0.000 A 
ATOM     15  C   UNL     1      27.775  26.540  21.366  0.00  0.00    +0.000 A 
ATOM     16  C   UNL     1      27.373  26.056  22.611  0.00  0.00    +0.000 A 
ATOM     17  C   UNL     1      28.076  25.018  23.189  0.00  0.00    +0.000 A 
ATOM     18  N   UNL     1      27.914  24.374  24.347  0.00  0.00    +0.000 N 
ATOM     19  C   UNL     1      26.978  24.571  25.314  0.00  0.00    +0.000 A 
ATOM     20  N   UNL     1      25.980  25.560  25.202  0.00  0.00    +0.000 NA
ATOM     21  C   UNL     1      27.954  21.986  27.784  0.00  0.00    +0.000 C 
ENDROOT
TORSDOF 0
ENDMDL
MODEL 4
REMARK VINA RESULT:      -6.6     21.938     23.724
REMARK  Name = 
REMARK  0 active torsions:
REMARK  status: ('A' for Active; 'I' for Inactive)
REMARK                            x       y       z     vdW  Elec       q    Type
REMARK                         _______ _______ _______ _____ _____    ______ ____
ROOT
ATOM      1  C   UNL     1      31.042  24.583  29.138  0.00  0.00    +0.000 C 
ATOM      2  C   UNL     1      31.247  23.160  29.653  0.00  0.00    +0.000 C 
ATOM      3  C   UNL     1      32.338  23.210  30.677  0.00  0.00    +0.000 C 
ATOM      4  C   UNL     1      29.956  22.623  30.258  0.00  0.00    +0.000 C 
ATOM      5  C   UNL     1      28.944  22.559  29.170  0.00  0.00    +0.000 C 
ATOM      6  O   UNL     1      27.733  22.374  29.459  0.00  0.00    +0.000 OA
ATOM      7  C   UNL     1      29.331  22.709  27.764  0.00  0.00    +0.000 A 
ATOM      8  C   UNL     1      30.646  22.598  27.379  0.00  0.00    +0.000 A 
ATOM      9  N   UNL     1      31.031  22.730  26.103  0.00  0.00    +0.000 NA
ATOM     10  C   UNL     1      30.089  22.981  25.151  0.00  0.00    +0.000 A 
ATOM     11  N   UNL     1      30.143  23.162  23.818  0.00  0.00    +0.000 NA
ATOM     12  C   UNL     1      28.917  23.384  23.324  0.00  0.00    +0.000 A 
ATOM     13  C   UNL     1      28.374  23.626  22.076  0.00  0.00    +0.000 A 
ATOM     14  C   UNL     1      27.018  23.823  21.881  0.00  0.00    +0.000 A 
ATOM     15  C   UNL     1      26.174  23.775  22.967  0.00  0.00    +0.000 A 
ATOM     16  C   UNL     1      26.687  23.532  24.241  0.00  0.00    +0.000 A 
ATOM     17  C   UNL     1      28.046  23.342  24.396  0.00  0.00    +0.000 A 
ATOM     18  N   UNL     1      28.789  23.097  25.477  0.00  0.00    +0.000 N 
ATOM     19  C   UNL     1      28.400  22.964  26.774  0.00  0.00    +0.000 A 
ATOM     20  N   UNL     1      27.050  23.076  27.167  0.00  0.00    +0.000 NA
ATOM     21  C   UNL     1      31.652  22.325  28.432  0.00  0.00    +0.000 C 
ENDROOT
TORSDOF 0
ENDMDL
MODEL 5
REMARK VINA RESULT:      -6.6     23.722     26.793
REMARK  Name = 
REMARK  0 active torsions:
REMARK  status: ('A' for Active; 'I' for Inactive)
REMARK                            x       y       z     vdW  Elec       q    Type
REMARK                         _______ _______ _______ _____ _____    ______ ____
ROOT
ATOM      1  C   UNL     1      29.353  28.231  22.182  0.00  0.00    +0.000 C 
ATOM      2  C   UNL     1      28.494  27.857  20.975  0.00  0.00    +0.000 C 
ATOM      3  C   UNL     1      28.391  29.072  20.107  0.00  0.00    +0.000 C 
ATOM      4  C   UNL     1      29.123  26.696  20.215  0.00  0.00    +0.000 C 
ATOM      5  C   UNL     1      29.143  25.522  21.127  0.00  0.00    +0.000 C 
ATOM      6  O   UNL     1      29.824  24.509  20.821  0.00  0.00    +0.000 OA
ATOM      7  C   UNL     1      28.383  25.520  22.380  0.00  0.00    +0.000 A 
ATOM      8  C   UNL     1      27.395  26.449  22.606  0.00  0.00    +0.000 A 
ATOM      9  N   UNL     1      26.683  26.475  23.741  0.00  0.00    +0.000 NA
ATOM     10  C   UNL     1      26.943  25.548  24.705  0.00  0.00    +0.000 A 
ATOM     11  N   UNL     1      26.424  25.308  25.924  0.00  0.00    +0.000 NA
ATOM     12  C   UNL     1      27.034  24.261  26.495  0.00  0.00    +0.000 A 
ATOM     13  C   UNL     1      26.930  23.578  27.693  0.00  0.00    +0.000 A 
ATOM     14  C   UNL     1      27.733  22.494  28.004  0.00  0.00    +0.000 A 
ATOM     15  C   UNL     1      28.671  22.076  27.088  0.00  0.00    +0.000 A 
ATOM     16  C   UNL     1      28.804  22.741  25.869  0.00  0.00    +0.000 A 
ATOM     17  C   UNL     1      27.986  23.818  25.596  0.00  0.00    +0.000 A 
ATOM     18  N   UNL     1      27.900  24.619  24.531  0.00  0.00    +0.000 N 
ATOM     19  C   UNL     1      28.623  24.595  23.379  0.00  0.00    +0.000 A 
ATOM     20  N   UNL     1      29.635  23.641  23.148  0.00  0.00    +0.000 NA
ATOM     21  C   UNL     1      27.129  27.447  21.543  0.00  0.00    +0.000 C 
ENDROOT
TORSDOF 0
ENDMDL
MODEL 6
REMARK VINA RESULT:      -6.5     17.981     20.106
REMARK  Name = 
REMARK  0 active torsions:
REMARK  status: ('A' for Active; 'I' for Inactive)
REMARK                            x       y       z     vdW  Elec       q    Type
REMARK                         _______ _______ _______ _____ _____    ______ ____
ROOT
ATOM      1  C   UNL     1      19.167  -9.191  28.706  0.00  0.00    +0.000 C 
ATOM      2  C   UNL     1      17.942  -9.381  27.814  0.00  0.00    +0.000 C 
ATOM      3  C   UNL     1      16.911 -10.108  28.622  0.00  0.00    +0.000 C 
ATOM      4  C   UNL     1      17.412  -8.032  27.344  0.00  0.00    +0.000 C 
ATOM      5  C   UNL     1      18.471  -7.401  26.513  0.00  0.00    +0.000 C 
ATOM      6  O   UNL     1      18.374  -6.185  26.203  0.00  0.00    +0.000 OA
ATOM      7  C   UNL     1      19.629  -8.169  26.046  0.00  0.00    +0.000 A 
ATOM      8  C   UNL     1      19.627  -9.543  26.087  0.00  0.00    +0.000 A 
ATOM      9  N   UNL     1      20.669 -10.273  25.669  0.00  0.00    +0.000 NA
ATOM     10  C   UNL     1      21.771  -9.634  25.185  0.00  0.00    +0.000 A 
ATOM     11  N   UNL     1      22.952 -10.062  24.700  0.00  0.00    +0.000 NA
ATOM     12  C   UNL     1      23.718  -9.021  24.345  0.00  0.00    +0.000 A 
ATOM     13  C   UNL     1      24.980  -8.851  23.807  0.00  0.00    +0.000 A 
ATOM     14  C   UNL     1      25.514  -7.600  23.545  0.00  0.00    +0.000 A 
ATOM     15  C   UNL     1      24.763  -6.483  23.829  0.00  0.00    +0.000 A 
ATOM     16  C   UNL     1      23.485  -6.617  24.372  0.00  0.00    +0.000 A 
ATOM     17  C   UNL     1      22.988  -7.881  24.620  0.00  0.00    +0.000 A 
ATOM     18  N   UNL     1      21.822  -8.292  25.124  0.00  0.00    +0.000 N 
ATOM     19  C   UNL     1      20.762  -7.551  25.550  0.00  0.00    +0.000 A 
ATOM     20  N   UNL     1      20.766  -6.142  25.506  0.00  0.00    +0.000 NA
ATOM     21  C   UNL     1      18.417 -10.215  26.618  0.00  0.00    +0.000 C 
ENDROOT
TORSDOF 0
ENDMDL
MODEL 7
REMARK VINA RESULT:      -6.5     21.466     23.201
REMARK  Name = 
REMARK  0 active torsions:
REMARK  status: ('A' for Active; 'I' for Inactive)
REMARK                            x       y       z     vdW  Elec       q    Type
REMARK                         _______ _______ _______ _____ _____    ______ ____
ROOT
ATOM      1  C   UNL     1      27.755  24.948  24.918  0.00  0.00    +0.000 C 
ATOM      2  C   UNL     1      27.434  23.649  24.181  0.00  0.00    +0.000 C 
ATOM      3  C   UNL     1      26.428  23.976  23.120  0.00  0.00    +0.000 C 
ATOM      4  C   UNL     1      28.698  23.058  23.570  0.00  0.00    +0.000 C 
ATOM      5  C   UNL     1      29.618  22.717  24.687  0.00  0.00    +0.000 C 
ATOM      6  O   UNL     1      30.819  22.435  24.438  0.00  0.00    +0.000 OA
ATOM      7  C   UNL     1      29.153  22.704  26.077  0.00  0.00    +0.000 A 
ATOM      8  C   UNL     1      27.811  22.694  26.371  0.00  0.00    +0.000 A 
ATOM      9  N   UNL     1      27.354  22.683  27.630  0.00  0.00    +0.000 NA
ATOM     10  C   UNL     1      28.249  22.679  28.657  0.00  0.00    +0.000 A 
ATOM     11  N   UNL     1      28.122  22.669  29.998  0.00  0.00    +0.000 NA
ATOM     12  C   UNL     1      29.327  22.670  30.583  0.00  0.00    +0.000 A 
ATOM     13  C   UNL     1      29.805  22.662  31.880  0.00  0.00    +0.000 A 
ATOM     14  C   UNL     1      31.158  22.667  32.175  0.00  0.00    +0.000 A 
ATOM     15  C   UNL     1      32.065  22.680  31.140  0.00  0.00    +0.000 A 
ATOM     16  C   UNL     1      31.619  22.687  29.818  0.00  0.00    +0.000 A 
ATOM     17  C   UNL     1      30.262  22.683  29.565  0.00  0.00    +0.000 A 
ATOM     18  N   UNL     1      29.573  22.688  28.421  0.00  0.00    +0.000 N 
ATOM     19  C   UNL     1      30.035  22.701  27.141  0.00  0.00    +0.000 A 
ATOM     20  N   UNL     1      31.413  22.709  26.842  0.00  0.00    +0.000 NA
ATOM     21  C   UNL     1      26.856  22.699  25.237  0.00  0.00    +0.000 C 
ENDROOT
TORSDOF 0
ENDMDL
MODEL 8
REMARK VINA RESULT:      -6.3     20.647     22.787
REMARK  Name = 
REMARK  0 active torsions:
REMARK  status: ('A' for Active; 'I' for Inactive)
REMARK                            x       y       z     vdW  Elec       q    Type
REMARK                         _______ _______ _______ _____ _____    ______ ____
ROOT
ATOM      1  C   UNL     1      26.875  25.745  27.831  0.00  0.00    +0.000 C 
ATOM      2  C   UNL     1      25.747  24.719  27.742  0.00  0.00    +0.000 C 
ATOM      3  C   UNL     1      24.460  25.479  27.649  0.00  0.00    +0.000 C 
ATOM      4  C   UNL     1      25.939  23.822  26.525  0.00  0.00    +0.000 C 
ATOM      5  C   UNL     1      27.207  23.071  26.719  0.00  0.00    +0.000 C 
ATOM      6  O   UNL     1      27.710  22.442  25.752  0.00  0.00    +0.000 OA
ATOM      7  C   UNL     1      27.886  23.048  28.018  0.00  0.00    +0.000 A 
ATOM      8  C   UNL     1      27.234  23.444  29.161  0.00  0.00    +0.000 A 
ATOM      9  N   UNL     1      27.827  23.436  30.362  0.00  0.00    +0.000 NA
ATOM     10  C   UNL     1      29.120  23.019  30.458  0.00  0.00    +0.000 A 
ATOM     11  N   UNL     1      29.980  22.895  31.486  0.00  0.00    +0.000 NA
ATOM     12  C   UNL     1      31.162  22.433  31.055  0.00  0.00    +0.000 A 
ATOM     13  C   UNL     1      32.379  22.118  31.632  0.00  0.00    +0.000 A 
ATOM     14  C   UNL     1      33.451  21.644  30.894  0.00  0.00    +0.000 A 
ATOM     15  C   UNL     1      33.304  21.480  29.535  0.00  0.00    +0.000 A 
ATOM     16  C   UNL     1      32.090  21.788  28.920  0.00  0.00    +0.000 A 
ATOM     17  C   UNL     1      31.045  22.258  29.690  0.00  0.00    +0.000 A 
ATOM     18  N   UNL     1      29.801  22.621  29.368  0.00  0.00    +0.000 N 
ATOM     19  C   UNL     1      29.198  22.632  28.148  0.00  0.00    +0.000 A 
ATOM     20  N   UNL     1      29.868  22.223  26.977  0.00  0.00    +0.000 NA
ATOM     21  C   UNL     1      25.828  23.894  29.033  0.00  0.00    +0.000 C 
ENDROOT
TORSDOF 0
ENDMDL
MODEL 9
REMARK VINA RESULT:      -6.3     25.331     28.664
REMARK  Name = 
REMARK  0 active torsions:
REMARK  status: ('A' for Active; 'I' for Inactive)
REMARK                            x       y       z     vdW  Elec       q    Type
REMARK                         _______ _______ _______ _____ _____    ______ ____
ROOT
ATOM      1  C   UNL     1      28.509  24.365  25.091  0.00  0.00    +0.000 C 
ATOM      2  C   UNL     1      27.071  23.941  24.797  0.00  0.00    +0.000 C 
ATOM      3  C   UNL     1      26.771  22.754  25.659  0.00  0.00    +0.000 C 
ATOM      4  C   UNL     1      26.109  25.085  25.094  0.00  0.00    +0.000 C 
ATOM      5  C   UNL     1      26.441  26.200  24.167  0.00  0.00    +0.000 C 
ATOM      6  O   UNL     1      25.950  27.341  24.368  0.00  0.00    +0.000 OA
ATOM      7  C   UNL     1      27.331  25.996  23.021  0.00  0.00    +0.000 A 
ATOM      8  C   UNL     1      27.635  24.729  22.581  0.00  0.00    +0.000 A 
ATOM      9  N   UNL     1      28.446  24.509  21.538  0.00  0.00    +0.000 NA
ATOM     10  C   UNL     1      28.988  25.576  20.886  0.00  0.00    +0.000 A 
ATOM     11  N   UNL     1      29.817  25.694  19.832  0.00  0.00    +0.000 NA
ATOM     12  C   UNL     1      30.062  26.986  19.571  0.00  0.00    +0.000 A 
ATOM     13  C   UNL     1      30.807  27.691  18.645  0.00  0.00    +0.000 A 
ATOM     14  C   UNL     1      30.861  29.074  18.631  0.00  0.00    +0.000 A 
ATOM     15  C   UNL     1      30.145  29.778  19.573  0.00  0.00    +0.000 A 
ATOM     16  C   UNL     1      29.381  29.099  20.522  0.00  0.00    +0.000 A 
ATOM     17  C   UNL     1      29.354  27.719  20.504  0.00  0.00    +0.000 A 
ATOM     18  N   UNL     1      28.721  26.835  21.278  0.00  0.00    +0.000 N 
ATOM     19  C   UNL     1      27.898  27.056  22.339  0.00  0.00    +0.000 A 
ATOM     20  N   UNL     1      27.586  28.356  22.787  0.00  0.00    +0.000 NA
ATOM     21  C   UNL     1      27.034  23.585  23.306  0.00  0.00    +0.000 C 
ENDROOT
TORSDOF 0
ENDMDL
MODEL 10
REMARK VINA RESULT:      -6.1     18.721     20.209
REMARK  Name = 
REMARK  0 active torsions:
REMARK  status: ('A' for Active; 'I' for Inactive)
REMARK                            x       y       z     vdW  Elec       q    Type
REMARK                         _______ _______ _______ _____ _____    ______ ____
ROOT
ATOM      1  C   UNL     1      19.690  -9.636  30.166  0.00  0.00    +0.000 C 
ATOM      2  C   UNL     1      18.539 -10.466  29.601  0.00  0.00    +0.000 C 
ATOM      3  C   UNL     1      18.023 -11.327  30.712  0.00  0.00    +0.000 C 
ATOM      4  C   UNL     1      17.442  -9.556  29.062  0.00  0.00    +0.000 C 
ATOM      5  C   UNL     1      18.021  -8.775  27.936  0.00  0.00    +0.000 C 
ATOM      6  O   UNL     1      17.391  -7.787  27.477  0.00  0.00    +0.000 OA
ATOM      7  C   UNL     1      19.315  -9.135  27.349  0.00  0.00    +0.000 A 
ATOM      8  C   UNL     1      19.883 -10.363  27.592  0.00  0.00    +0.000 A 
ATOM      9  N   UNL     1      21.064 -10.721  27.071  0.00  0.00    +0.000 NA
ATOM     10  C   UNL     1      21.727  -9.841  26.270  0.00  0.00    +0.000 A 
ATOM     11  N   UNL     1      22.899  -9.891  25.609  0.00  0.00    +0.000 NA
ATOM     12  C   UNL     1      23.112  -8.745  24.947  0.00  0.00    +0.000 A 
ATOM     13  C   UNL     1      24.104  -8.238  24.128  0.00  0.00    +0.000 A 
ATOM     14  C   UNL     1      24.034  -6.971  23.574  0.00  0.00    +0.000 A 
ATOM     15  C   UNL     1      22.938  -6.184  23.845  0.00  0.00    +0.000 A 
ATOM     16  C   UNL     1      21.918  -6.664  24.667  0.00  0.00    +0.000 A 
ATOM     17  C   UNL     1      22.024  -7.932  25.201  0.00  0.00    +0.000 A 
ATOM     18  N   UNL     1      21.213  -8.627  26.001  0.00  0.00    +0.000 N 
ATOM     19  C   UNL     1      20.013  -8.265  26.532  0.00  0.00    +0.000 A 
ATOM     20  N   UNL     1      19.432  -7.005  26.280  0.00  0.00    +0.000 NA
ATOM     21  C   UNL     1      19.144 -11.304  28.467  0.00  0.00    +0.000 C 
ENDROOT
TORSDOF 0
ENDMDL
