MODEL 1
REMARK VINA RESULT:      -9.4      0.000      0.000
REMARK  Name = 
REMARK  0 active torsions:
REMARK  status: ('A' for Active; 'I' for Inactive)
REMARK                            x       y       z     vdW  Elec       q    Type
REMARK                         _______ _______ _______ _____ _____    ______ ____
ROOT
ATOM      1  C   UNL     1      17.521  10.063  34.809  0.00  0.00    +0.000 C 
ATOM      2  C   UNL     1      16.985  10.462  36.152  0.00  0.00    +0.000 C 
ATOM      3  C   UNL     1      18.081   9.443  36.054  0.00  0.00    +0.000 C 
ATOM      4  C   UNL     1      18.642   8.822  37.300  0.00  0.00    +0.000 C 
ATOM      5  C   UNL     1      18.106   9.222  38.643  0.00  0.00    +0.000 C 
ATOM      6  O   UNL     1      18.666   8.602  39.888  0.00  0.00    +0.000 OA
ATOM      7  C   UNL     1      17.010  10.241  38.741  0.00  0.00    +0.000 C 
ATOM      8  C   UNL     1      16.450  10.861  37.495  0.00  0.00    +0.000 C 
ATOM      9  C   UNL     1      15.353  11.881  37.593  0.00  0.00    +0.000 C 
ATOM     10  C   UNL     1      14.793  12.501  36.347  0.00  0.00    +0.000 C 
ATOM     11  C   UNL     1      15.329  12.102  35.004  0.00  0.00    +0.000 C 
ATOM     12  C   UNL     1      16.425  11.082  34.906  0.00  0.00    +0.000 C 
ATOM     13  C   UNL     1      16.960  10.683  33.563  0.00  0.00    +0.000 C 
ATOM     14  C   UNL     1      16.400  11.303  32.318  0.00  0.00    +0.000 C 
ATOM     15  C   UNL     1      15.304  12.323  32.415  0.00  0.00    +0.000 C 
ATOM     16  C   UNL     1      15.736  12.025  31.010  0.00  0.00    +0.000 C 
ATOM     17  C   UNL     1      14.560  13.100  31.370  0.00  0.00    +0.000 C 
ATOM     18  O   UNL     1      14.773  13.013  29.888  0.00  0.00    +0.000 OA
ATOM     19  C   UNL     1      13.564  13.980  32.068  0.00  0.00    +0.000 C 
ATOM     20  C   UNL     1      13.694  13.746  33.543  0.00  0.00    +0.000 C 
ATOM     21  C   UNL     1      14.768  12.722  33.758  0.00  0.00    +0.000 C 
ENDROOT
TORSDOF 0
ENDMDL
MODEL 2
REMARK VINA RESULT:      -8.6     21.030     22.627
REMARK  Name = 
REMARK  0 active torsions:
REMARK  status: ('A' for Active; 'I' for Inactive)
REMARK                            x       y       z     vdW  Elec       q    Type
REMARK                         _______ _______ _______ _____ _____    ______ ____
ROOT
ATOM      1  C   UNL     1      22.719  -6.504  24.515  0.00  0.00    +0.000 C 
ATOM      2  C   UNL     1      23.306  -7.879  24.637  0.00  0.00    +0.000 C 
ATOM      3  C   UNL     1      24.056  -6.805  23.906  0.00  0.00    +0.000 C 
ATOM      4  C   UNL     1      25.394  -7.106  23.297  0.00  0.00    +0.000 C 
ATOM      5  C   UNL     1      25.981  -8.481  23.420  0.00  0.00    +0.000 C 
ATOM      6  O   UNL     1      27.318  -8.782  22.811  0.00  0.00    +0.000 OA
ATOM      7  C   UNL     1      25.231  -9.555  24.151  0.00  0.00    +0.000 C 
ATOM      8  C   UNL     1      23.894  -9.253  24.760  0.00  0.00    +0.000 C 
ATOM      9  C   UNL     1      23.144 -10.328  25.491  0.00  0.00    +0.000 C 
ATOM     10  C   UNL     1      21.806 -10.026  26.100  0.00  0.00    +0.000 C 
ATOM     11  C   UNL     1      21.219  -8.652  25.977  0.00  0.00    +0.000 C 
ATOM     12  C   UNL     1      21.968  -7.578  25.246  0.00  0.00    +0.000 C 
ATOM     13  C   UNL     1      21.381  -6.203  25.124  0.00  0.00    +0.000 C 
ATOM     14  C   UNL     1      20.044  -5.903  25.732  0.00  0.00    +0.000 C 
ATOM     15  C   UNL     1      19.294  -6.976  26.464  0.00  0.00    +0.000 C 
ATOM     16  C   UNL     1      18.583  -5.656  26.423  0.00  0.00    +0.000 C 
ATOM     17  C   UNL     1      17.966  -6.975  27.162  0.00  0.00    +0.000 C 
ATOM     18  O   UNL     1      17.035  -5.806  27.284  0.00  0.00    +0.000 OA
ATOM     19  C   UNL     1      17.733  -8.350  27.716  0.00  0.00    +0.000 C 
ATOM     20  C   UNL     1      18.917  -9.200  27.360  0.00  0.00    +0.000 C 
ATOM     21  C   UNL     1      19.881  -8.351  26.586  0.00  0.00    +0.000 C 
ENDROOT
TORSDOF 0
ENDMDL
MODEL 3
REMARK VINA RESULT:      -8.2      0.908      7.008
REMARK  Name = 
REMARK  0 active torsions:
REMARK  status: ('A' for Active; 'I' for Inactive)
REMARK                            x       y       z     vdW  Elec       q    Type
REMARK                         _______ _______ _______ _____ _____    ______ ____
ROOT
ATOM      1  C   UNL     1      14.661  12.327  35.637  0.00  0.00    +0.000 C 
ATOM      2  C   UNL     1      15.372  11.984  34.362  0.00  0.00    +0.000 C 
ATOM      3  C   UNL     1      14.201  12.920  34.339  0.00  0.00    +0.000 C 
ATOM      4  C   UNL     1      13.740  13.514  33.040  0.00  0.00    +0.000 C 
ATOM      5  C   UNL     1      14.453  13.170  31.764  0.00  0.00    +0.000 C 
ATOM      6  O   UNL     1      13.993  13.763  30.466  0.00  0.00    +0.000 OA
ATOM      7  C   UNL     1      15.625  12.234  31.788  0.00  0.00    +0.000 C 
ATOM      8  C   UNL     1      16.084  11.641  33.087  0.00  0.00    +0.000 C 
ATOM      9  C   UNL     1      17.256  10.705  33.111  0.00  0.00    +0.000 C 
ATOM     10  C   UNL     1      17.716  10.112  34.410  0.00  0.00    +0.000 C 
ATOM     11  C   UNL     1      17.004  10.455  35.684  0.00  0.00    +0.000 C 
ATOM     12  C   UNL     1      15.833  11.391  35.661  0.00  0.00    +0.000 C 
ATOM     13  C   UNL     1      15.121  11.734  36.936  0.00  0.00    +0.000 C 
ATOM     14  C   UNL     1      15.581  11.141  38.234  0.00  0.00    +0.000 C 
ATOM     15  C   UNL     1      16.753  10.205  38.259  0.00  0.00    +0.000 C 
ATOM     16  C   UNL     1      16.144  10.454  39.607  0.00  0.00    +0.000 C 
ATOM     17  C   UNL     1      17.429   9.472  39.379  0.00  0.00    +0.000 C 
ATOM     18  O   UNL     1      17.043   9.525  40.827  0.00  0.00    +0.000 OA
ATOM     19  C   UNL     1      18.559   8.675  38.795  0.00  0.00    +0.000 C 
ATOM     20  C   UNL     1      18.580   8.917  37.315  0.00  0.00    +0.000 C 
ATOM     21  C   UNL     1      17.465   9.862  36.983  0.00  0.00    +0.000 C 
ENDROOT
TORSDOF 0
ENDMDL
MODEL 4
REMARK VINA RESULT:      -8.2     17.859     20.139
REMARK  Name = 
REMARK  0 active torsions:
REMARK  status: ('A' for Active; 'I' for Inactive)
REMARK                            x       y       z     vdW  Elec       q    Type
REMARK                         _______ _______ _______ _____ _____    ______ ____
ROOT
ATOM      1  C   UNL     1      27.062  22.984  26.753  0.00  0.00    +0.000 C 
ATOM      2  C   UNL     1      27.905  23.007  25.512  0.00  0.00    +0.000 C 
ATOM      3  C   UNL     1      26.414  23.133  25.409  0.00  0.00    +0.000 C 
ATOM      4  C   UNL     1      25.765  23.282  24.064  0.00  0.00    +0.000 C 
ATOM      5  C   UNL     1      26.609  23.304  22.823  0.00  0.00    +0.000 C 
ATOM      6  O   UNL     1      25.960  23.453  21.479  0.00  0.00    +0.000 OA
ATOM      7  C   UNL     1      28.100  23.178  22.927  0.00  0.00    +0.000 C 
ATOM      8  C   UNL     1      28.747  23.029  24.271  0.00  0.00    +0.000 C 
ATOM      9  C   UNL     1      30.239  22.903  24.375  0.00  0.00    +0.000 C 
ATOM     10  C   UNL     1      30.887  22.754  25.720  0.00  0.00    +0.000 C 
ATOM     11  C   UNL     1      30.044  22.732  26.960  0.00  0.00    +0.000 C 
ATOM     12  C   UNL     1      28.553  22.858  26.857  0.00  0.00    +0.000 C 
ATOM     13  C   UNL     1      27.711  22.835  28.097  0.00  0.00    +0.000 C 
ATOM     14  C   UNL     1      28.359  22.686  29.441  0.00  0.00    +0.000 C 
ATOM     15  C   UNL     1      29.850  22.560  29.545  0.00  0.00    +0.000 C 
ATOM     16  C   UNL     1      29.142  22.520  30.867  0.00  0.00    +0.000 C 
ATOM     17  C   UNL     1      30.764  22.402  30.724  0.00  0.00    +0.000 C 
ATOM     18  O   UNL     1      30.345  22.331  32.162  0.00  0.00    +0.000 OA
ATOM     19  C   UNL     1      32.173  22.327  30.211  0.00  0.00    +0.000 C 
ATOM     20  C   UNL     1      32.128  22.439  28.716  0.00  0.00    +0.000 C 
ATOM     21  C   UNL     1      30.693  22.583  28.305  0.00  0.00    +0.000 C 
ENDROOT
TORSDOF 0
ENDMDL
MODEL 5
REMARK VINA RESULT:      -8.1      0.921      6.575
REMARK  Name = 
REMARK  0 active torsions:
REMARK  status: ('A' for Active; 'I' for Inactive)
REMARK                            x       y       z     vdW  Elec       q    Type
REMARK                         _______ _______ _______ _____ _____    ______ ____
ROOT
ATOM      1  C   UNL     1      17.290  10.685  34.462  0.00  0.00    +0.000 C 
ATOM      2  C   UNL     1      16.018  11.476  34.538  0.00  0.00    +0.000 C 
ATOM      3  C   UNL     1      16.727  11.320  33.226  0.00  0.00    +0.000 C 
ATOM      4  C   UNL     1      16.163  11.956  31.989  0.00  0.00    +0.000 C 
ATOM      5  C   UNL     1      14.890  12.747  32.066  0.00  0.00    +0.000 C 
ATOM      6  O   UNL     1      14.327  13.382  30.830  0.00  0.00    +0.000 OA
ATOM      7  C   UNL     1      14.182  12.902  33.379  0.00  0.00    +0.000 C 
ATOM      8  C   UNL     1      14.746  12.267  34.615  0.00  0.00    +0.000 C 
ATOM      9  C   UNL     1      14.037  12.422  35.929  0.00  0.00    +0.000 C 
ATOM     10  C   UNL     1      14.601  11.786  37.165  0.00  0.00    +0.000 C 
ATOM     11  C   UNL     1      15.873  10.996  37.087  0.00  0.00    +0.000 C 
ATOM     12  C   UNL     1      16.582  10.840  35.775  0.00  0.00    +0.000 C 
ATOM     13  C   UNL     1      17.854  10.050  35.699  0.00  0.00    +0.000 C 
ATOM     14  C   UNL     1      18.418   9.414  36.935  0.00  0.00    +0.000 C 
ATOM     15  C   UNL     1      17.709   9.570  38.248  0.00  0.00    +0.000 C 
ATOM     16  C   UNL     1      18.966   8.754  38.326  0.00  0.00    +0.000 C 
ATOM     17  C   UNL     1      18.024   9.062  39.624  0.00  0.00    +0.000 C 
ATOM     18  O   UNL     1      19.207   8.224  40.006  0.00  0.00    +0.000 OA
ATOM     19  C   UNL     1      16.944   9.539  40.551  0.00  0.00    +0.000 C 
ATOM     20  C   UNL     1      15.965  10.341  39.747  0.00  0.00    +0.000 C 
ATOM     21  C   UNL     1      16.437  10.360  38.324  0.00  0.00    +0.000 C 
ENDROOT
TORSDOF 0
ENDMDL
MODEL 6
REMARK VINA RESULT:      -8.1     21.425     23.128
REMARK  Name = 
REMARK  0 active torsions:
REMARK  status: ('A' for Active; 'I' for Inactive)
REMARK                            x       y       z     vdW  Elec       q    Type
REMARK                         _______ _______ _______ _____ _____    ______ ____
ROOT
ATOM      1  C   UNL     1      21.693  -6.170  24.989  0.00  0.00    +0.000 C 
ATOM      2  C   UNL     1      20.889  -7.264  25.625  0.00  0.00    +0.000 C 
ATOM      3  C   UNL     1      20.346  -5.867  25.574  0.00  0.00    +0.000 C 
ATOM      4  C   UNL     1      18.998  -5.565  26.159  0.00  0.00    +0.000 C 
ATOM      5  C   UNL     1      18.193  -6.661  26.796  0.00  0.00    +0.000 C 
ATOM      6  O   UNL     1      16.846  -6.359  27.380  0.00  0.00    +0.000 OA
ATOM      7  C   UNL     1      18.737  -8.058  26.846  0.00  0.00    +0.000 C 
ATOM      8  C   UNL     1      20.085  -8.359  26.261  0.00  0.00    +0.000 C 
ATOM      9  C   UNL     1      20.628  -9.757  26.312  0.00  0.00    +0.000 C 
ATOM     10  C   UNL     1      21.977 -10.059  25.727  0.00  0.00    +0.000 C 
ATOM     11  C   UNL     1      22.780  -8.964  25.091  0.00  0.00    +0.000 C 
ATOM     12  C   UNL     1      22.237  -7.567  25.040  0.00  0.00    +0.000 C 
ATOM     13  C   UNL     1      23.041  -6.472  24.404  0.00  0.00    +0.000 C 
ATOM     14  C   UNL     1      24.389  -6.774  23.820  0.00  0.00    +0.000 C 
ATOM     15  C   UNL     1      24.933  -8.171  23.870  0.00  0.00    +0.000 C 
ATOM     16  C   UNL     1      25.847  -7.185  23.206  0.00  0.00    +0.000 C 
ATOM     17  C   UNL     1      26.220  -8.766  23.380  0.00  0.00    +0.000 C 
ATOM     18  O   UNL     1      27.322  -8.028  22.681  0.00  0.00    +0.000 OA
ATOM     19  C   UNL     1      26.210 -10.229  23.714  0.00  0.00    +0.000 C 
ATOM     20  C   UNL     1      24.918 -10.537  24.410  0.00  0.00    +0.000 C 
ATOM     21  C   UNL     1      24.128  -9.266  24.506  0.00  0.00    +0.000 C 
ENDROOT
TORSDOF 0
ENDMDL
MODEL 7
REMARK VINA RESULT:      -8.1     17.944     19.006
REMARK  Name = 
REMARK  0 active torsions:
REMARK  status: ('A' for Active; 'I' for Inactive)
REMARK                            x       y       z     vdW  Elec       q    Type
REMARK                         _______ _______ _______ _____ _____    ______ ____
ROOT
ATOM      1  C   UNL     1      31.001  22.454  27.168  0.00  0.00    +0.000 C 
ATOM      2  C   UNL     1      30.232  22.487  28.455  0.00  0.00    +0.000 C 
ATOM      3  C   UNL     1      31.713  22.250  28.472  0.00  0.00    +0.000 C 
ATOM      4  C   UNL     1      32.425  22.046  29.776  0.00  0.00    +0.000 C 
ATOM      5  C   UNL     1      31.655  22.079  31.064  0.00  0.00    +0.000 C 
ATOM      6  O   UNL     1      32.367  21.875  32.368  0.00  0.00    +0.000 OA
ATOM      7  C   UNL     1      30.174  22.315  31.047  0.00  0.00    +0.000 C 
ATOM      8  C   UNL     1      29.463  22.519  29.742  0.00  0.00    +0.000 C 
ATOM      9  C   UNL     1      27.981  22.756  29.725  0.00  0.00    +0.000 C 
ATOM     10  C   UNL     1      27.269  22.960  28.420  0.00  0.00    +0.000 C 
ATOM     11  C   UNL     1      28.039  22.927  27.133  0.00  0.00    +0.000 C 
ATOM     12  C   UNL     1      29.520  22.691  27.150  0.00  0.00    +0.000 C 
ATOM     13  C   UNL     1      30.289  22.658  25.863  0.00  0.00    +0.000 C 
ATOM     14  C   UNL     1      29.577  22.862  24.559  0.00  0.00    +0.000 C 
ATOM     15  C   UNL     1      28.096  23.098  24.541  0.00  0.00    +0.000 C 
ATOM     16  C   UNL     1      28.729  23.092  23.181  0.00  0.00    +0.000 C 
ATOM     17  C   UNL     1      27.130  23.330  23.417  0.00  0.00    +0.000 C 
ATOM     18  O   UNL     1      27.470  23.378  21.957  0.00  0.00    +0.000 OA
ATOM     19  C   UNL     1      25.763  23.506  24.011  0.00  0.00    +0.000 C 
ATOM     20  C   UNL     1      25.885  23.383  25.501  0.00  0.00    +0.000 C 
ATOM     21  C   UNL     1      27.327  23.131  25.828  0.00  0.00    +0.000 C 
ENDROOT
TORSDOF 0
ENDMDL
MODEL 8
REMARK VINA RESULT:      -7.9      2.507      7.809
REMARK  Name = 
REMARK  0 active torsions:
REMARK  status: ('A' for Active; 'I' for Inactive)
REMARK                            x       y       z     vdW  Elec       q    Type
REMARK                         _______ _______ _______ _____ _____    ______ ____
ROOT
ATOM      1  C   UNL     1      14.098  11.146  38.496  0.00  0.00    +0.000 C 
ATOM      2  C   UNL     1      14.989  11.593  37.375  0.00  0.00    +0.000 C 
ATOM      3  C   UNL     1      13.550  12.014  37.403  0.00  0.00    +0.000 C 
ATOM      4  C   UNL     1      13.002  12.883  36.309  0.00  0.00    +0.000 C 
ATOM      5  C   UNL     1      13.894  13.330  35.188  0.00  0.00    +0.000 C 
ATOM      6  O   UNL     1      13.346  14.198  34.095  0.00  0.00    +0.000 OA
ATOM      7  C   UNL     1      15.333  12.907  35.160  0.00  0.00    +0.000 C 
ATOM      8  C   UNL     1      15.880  12.039  36.254  0.00  0.00    +0.000 C 
ATOM      9  C   UNL     1      17.320  11.617  36.226  0.00  0.00    +0.000 C 
ATOM     10  C   UNL     1      17.868  10.748  37.320  0.00  0.00    +0.000 C 
ATOM     11  C   UNL     1      16.976  10.303  38.441  0.00  0.00    +0.000 C 
ATOM     12  C   UNL     1      15.538  10.724  38.469  0.00  0.00    +0.000 C 
ATOM     13  C   UNL     1      14.647  10.278  39.590  0.00  0.00    +0.000 C 
ATOM     14  C   UNL     1      15.195   9.410  40.683  0.00  0.00    +0.000 C 
ATOM     15  C   UNL     1      16.634   8.987  40.656  0.00  0.00    +0.000 C 
ATOM     16  C   UNL     1      15.868   8.465  41.835  0.00  0.00    +0.000 C 
ATOM     17  C   UNL     1      17.449   8.141  41.587  0.00  0.00    +0.000 C 
ATOM     18  O   UNL     1      16.957   7.486  42.843  0.00  0.00    +0.000 OA
ATOM     19  C   UNL     1      18.845   8.065  41.041  0.00  0.00    +0.000 C 
ATOM     20  C   UNL     1      18.891   8.864  39.773  0.00  0.00    +0.000 C 
ATOM     21  C   UNL     1      17.525   9.434  39.534  0.00  0.00    +0.000 C 
ENDROOT
TORSDOF 0
ENDMDL
MODEL 9
REMARK VINA RESULT:      -7.8     19.060     21.206
REMARK  Name = 
REMARK  0 active torsions:
REMARK  status: ('A' for Active; 'I' for Inactive)
REMARK                            x       y       z     vdW  Elec       q    Type
REMARK                         _______ _______ _______ _____ _____    ______ ____
ROOT
ATOM      1  C   UNL     1      33.588  -0.550  33.523  0.00  0.00    +0.000 C 
ATOM      2  C   UNL     1      33.840  -1.356  34.763  0.00  0.00    +0.000 C 
ATOM      3  C   UNL     1      33.621  -2.048  33.450  0.00  0.00    +0.000 C 
ATOM      4  C   UNL     1      33.654  -3.546  33.377  0.00  0.00    +0.000 C 
ATOM      5  C   UNL     1      33.906  -4.352  34.618  0.00  0.00    +0.000 C 
ATOM      6  O   UNL     1      33.939  -5.849  34.545  0.00  0.00    +0.000 OA
ATOM      7  C   UNL     1      34.124  -3.660  35.931  0.00  0.00    +0.000 C 
ATOM      8  C   UNL     1      34.091  -2.162  36.003  0.00  0.00    +0.000 C 
ATOM      9  C   UNL     1      34.310  -1.470  37.316  0.00  0.00    +0.000 C 
ATOM     10  C   UNL     1      34.276   0.028  37.389  0.00  0.00    +0.000 C 
ATOM     11  C   UNL     1      34.025   0.833  36.149  0.00  0.00    +0.000 C 
ATOM     12  C   UNL     1      33.806   0.142  34.836  0.00  0.00    +0.000 C 
ATOM     13  C   UNL     1      33.555   0.948  33.596  0.00  0.00    +0.000 C 
ATOM     14  C   UNL     1      33.522   2.445  33.669  0.00  0.00    +0.000 C 
ATOM     15  C   UNL     1      33.740   3.138  34.982  0.00  0.00    +0.000 C 
ATOM     16  C   UNL     1      33.502   4.072  33.833  0.00  0.00    +0.000 C 
ATOM     17  C   UNL     1      33.764   4.589  35.359  0.00  0.00    +0.000 C 
ATOM     18  O   UNL     1      33.558   5.746  34.428  0.00  0.00    +0.000 OA
ATOM     19  C   UNL     1      34.031   4.680  36.833  0.00  0.00    +0.000 C 
ATOM     20  C   UNL     1      34.171   3.285  37.366  0.00  0.00    +0.000 C 
ATOM     21  C   UNL     1      33.992   2.332  36.222  0.00  0.00    +0.000 C 
ENDROOT
TORSDOF 0
ENDMDL
MODEL 10
REMARK VINA RESULT:      -7.8     17.986     20.018
REMARK  Name = 
REMARK  0 active torsions:
REMARK  status: ('A' for Active; 'I' for Inactive)
REMARK                            x       y       z     vdW  Elec       q    Type
REMARK                         _______ _______ _______ _____ _____    ______ ____
ROOT
ATOM      1  C   UNL     1      30.172  22.619  25.666  0.00  0.00    +0.000 C 
ATOM      2  C   UNL     1      28.710  22.953  25.667  0.00  0.00    +0.000 C 
ATOM      3  C   UNL     1      29.453  22.843  24.369  0.00  0.00    +0.000 C 
ATOM      4  C   UNL     1      28.733  23.067  23.072  0.00  0.00    +0.000 C 
ATOM      5  C   UNL     1      27.271  23.402  23.074  0.00  0.00    +0.000 C 
ATOM      6  O   UNL     1      26.551  23.626  21.777  0.00  0.00    +0.000 OA
ATOM      7  C   UNL     1      26.528  23.512  24.372  0.00  0.00    +0.000 C 
ATOM      8  C   UNL     1      27.248  23.288  25.668  0.00  0.00    +0.000 C 
ATOM      9  C   UNL     1      26.505  23.399  26.968  0.00  0.00    +0.000 C 
ATOM     10  C   UNL     1      27.225  23.175  28.265  0.00  0.00    +0.000 C 
ATOM     11  C   UNL     1      28.687  22.840  28.263  0.00  0.00    +0.000 C 
ATOM     12  C   UNL     1      29.430  22.729  26.965  0.00  0.00    +0.000 C 
ATOM     13  C   UNL     1      30.892  22.394  26.963  0.00  0.00    +0.000 C 
ATOM     14  C   UNL     1      31.611  22.170  28.260  0.00  0.00    +0.000 C 
ATOM     15  C   UNL     1      30.868  22.281  29.559  0.00  0.00    +0.000 C 
ATOM     16  C   UNL     1      32.321  21.941  29.714  0.00  0.00    +0.000 C 
ATOM     17  C   UNL     1      31.308  22.115  30.983  0.00  0.00    +0.000 C 
ATOM     18  O   UNL     1      32.694  21.777  31.445  0.00  0.00    +0.000 OA
ATOM     19  C   UNL     1      30.116  22.348  31.865  0.00  0.00    +0.000 C 
ATOM     20  C   UNL     1      28.942  22.657  30.985  0.00  0.00    +0.000 C 
ATOM     21  C   UNL     1      29.406  22.616  29.560  0.00  0.00    +0.000 C 
ENDROOT
TORSDOF 0
ENDMDL
