MODEL 1
REMARK VINA RESULT:      -6.1      0.000      0.000
REMARK  Name = 
REMARK  2 active torsions:
REMARK  status: ('A' for Active; 'I' for Inactive)
REMARK    1  A    between atoms: N_7  and  C_8
REMARK    2  A    between atoms: C_12  and  C_13
REMARK                            x       y       z     vdW  Elec       q    Type
REMARK                         _______ _______ _______ _____ _____    ______ ____
ROOT
ATOM      1  C   UNL     1      28.990  25.787  23.299  0.00  0.00    +0.000 A 
ATOM      2  S   UNL     1      30.277  26.195  24.331  0.00  0.00    +0.000 S 
ATOM      3  C   UNL     1      30.695  24.629  24.868  0.00  0.00    +0.000 A 
ATOM      4  C   UNL     1      29.800  23.827  24.213  0.00  0.00    +0.000 A 
ATOM      5  C   UNL     1      28.915  24.419  23.400  0.00  0.00    +0.000 A 
ATOM      6  C   UNL     1      29.990  22.360  24.548  0.00  0.00    +0.000 C 
ATOM      7  C   UNL     1      30.039  22.186  26.042  0.00  0.00    +0.000 C 
ATOM      8  C   UNL     1      31.142  22.987  26.686  0.00  0.00    +0.000 C 
ATOM      9  C   UNL     1      31.724  24.035  25.804  0.00  0.00    +0.000 C 
ENDROOT
BRANCH   1  16
ATOM     10  C   UNL     1      29.556  26.553  20.406  0.00  0.00    +0.000 C 
ATOM     11  C   UNL     1      28.442  27.014  21.261  0.00  0.00    +0.000 A 
ATOM     12  C   UNL     1      27.468  27.893  20.839  0.00  0.00    +0.000 A 
ATOM     13  C   UNL     1      26.574  28.114  21.893  0.00  0.00    +0.000 A 
ATOM     14  C   UNL     1      27.076  27.329  22.927  0.00  0.00    +0.000 A 
ATOM     15  C   UNL     1      26.456  27.232  24.273  0.00  0.00    +0.000 C 
ATOM     16  N   UNL     1      28.184  26.691  22.516  0.00  0.00    +0.000 N 
ENDBRANCH   1  16
BRANCH   5  17
ATOM     17  C   UNL     1      27.883  23.696  22.620  0.00  0.00    +0.000 C 
ATOM     18  O   UNL     1      28.111  23.204  21.504  0.00  0.00    +0.000 OA
ATOM     19  N   UNL     1      26.572  23.542  23.139  0.00  0.00    +0.000 NA
ATOM     20  N   UNL     1      25.600  22.860  22.404  0.00  0.00    +0.000 NA
ENDBRANCH   5  17
TORSDOF 2
ENDMDL
MODEL 2
REMARK VINA RESULT:      -6.0      2.586      3.732
REMARK  Name = 
REMARK  2 active torsions:
REMARK  status: ('A' for Active; 'I' for Inactive)
REMARK    1  A    between atoms: N_7  and  C_8
REMARK    2  A    between atoms: C_12  and  C_13
REMARK                            x       y       z     vdW  Elec       q    Type
REMARK                         _______ _______ _______ _____ _____    ______ ____
ROOT
ATOM      1  C   UNL     1      27.198  25.310  25.783  0.00  0.00    +0.000 A 
ATOM      2  S   UNL     1      28.666  26.050  26.214  0.00  0.00    +0.000 S 
ATOM      3  C   UNL     1      29.733  25.078  25.302  0.00  0.00    +0.000 A 
ATOM      4  C   UNL     1      28.893  24.194  24.681  0.00  0.00    +0.000 A 
ATOM      5  C   UNL     1      27.582  24.308  24.925  0.00  0.00    +0.000 A 
ATOM      6  C   UNL     1      29.642  23.213  23.799  0.00  0.00    +0.000 C 
ATOM      7  C   UNL     1      30.770  22.593  24.578  0.00  0.00    +0.000 C 
ATOM      8  C   UNL     1      31.739  23.617  25.114  0.00  0.00    +0.000 C 
ATOM      9  C   UNL     1      31.227  25.013  25.078  0.00  0.00    +0.000 C 
ENDROOT
BRANCH   1  16
ATOM     10  C   UNL     1      25.415  27.376  24.430  0.00  0.00    +0.000 C 
ATOM     11  C   UNL     1      25.114  26.573  25.633  0.00  0.00    +0.000 A 
ATOM     12  C   UNL     1      23.930  26.658  26.333  0.00  0.00    +0.000 A 
ATOM     13  C   UNL     1      23.978  25.766  27.411  0.00  0.00    +0.000 A 
ATOM     14  C   UNL     1      25.231  25.171  27.296  0.00  0.00    +0.000 A 
ATOM     15  C   UNL     1      25.749  24.138  28.228  0.00  0.00    +0.000 C 
ATOM     16  N   UNL     1      25.877  25.674  26.231  0.00  0.00    +0.000 N 
ENDBRANCH   1  16
BRANCH   5  17
ATOM     17  C   UNL     1      26.542  23.432  24.334  0.00  0.00    +0.000 C 
ATOM     18  O   UNL     1      25.895  22.614  25.006  0.00  0.00    +0.000 OA
ATOM     19  N   UNL     1      26.250  23.504  22.948  0.00  0.00    +0.000 NA
ATOM     20  N   UNL     1      25.270  22.679  22.391  0.00  0.00    +0.000 NA
ENDBRANCH   5  17
TORSDOF 2
ENDMDL
MODEL 3
REMARK VINA RESULT:      -6.0      2.564      3.894
REMARK  Name = 
REMARK  2 active torsions:
REMARK  status: ('A' for Active; 'I' for Inactive)
REMARK    1  A    between atoms: N_7  and  C_8
REMARK    2  A    between atoms: C_12  and  C_13
REMARK                            x       y       z     vdW  Elec       q    Type
REMARK                         _______ _______ _______ _____ _____    ______ ____
ROOT
ATOM      1  C   UNL     1      27.177  25.338  25.738  0.00  0.00    +0.000 A 
ATOM      2  S   UNL     1      28.642  26.084  26.170  0.00  0.00    +0.000 S 
ATOM      3  C   UNL     1      29.715  25.099  25.279  0.00  0.00    +0.000 A 
ATOM      4  C   UNL     1      28.880  24.205  24.665  0.00  0.00    +0.000 A 
ATOM      5  C   UNL     1      27.567  24.323  24.897  0.00  0.00    +0.000 A 
ATOM      6  C   UNL     1      29.635  23.212  23.803  0.00  0.00    +0.000 C 
ATOM      7  C   UNL     1      30.757  22.603  24.599  0.00  0.00    +0.000 C 
ATOM      8  C   UNL     1      31.723  23.634  25.126  0.00  0.00    +0.000 C 
ATOM      9  C   UNL     1      31.211  25.030  25.067  0.00  0.00    +0.000 C 
ENDROOT
BRANCH   1  16
ATOM     10  C   UNL     1      25.747  24.154  28.152  0.00  0.00    +0.000 C 
ATOM     11  C   UNL     1      25.244  25.186  27.222  0.00  0.00    +0.000 A 
ATOM     12  C   UNL     1      24.004  25.775  27.331  0.00  0.00    +0.000 A 
ATOM     13  C   UNL     1      23.852  26.702  26.293  0.00  0.00    +0.000 A 
ATOM     14  C   UNL     1      25.051  26.618  25.592  0.00  0.00    +0.000 A 
ATOM     15  C   UNL     1      25.367  27.425  24.386  0.00  0.00    +0.000 C 
ATOM     16  N   UNL     1      25.852  25.708  26.171  0.00  0.00    +0.000 N 
ENDBRANCH   1  16
BRANCH   5  17
ATOM     17  C   UNL     1      26.531  23.439  24.311  0.00  0.00    +0.000 C 
ATOM     18  O   UNL     1      25.893  22.617  24.987  0.00  0.00    +0.000 OA
ATOM     19  N   UNL     1      26.233  23.508  22.926  0.00  0.00    +0.000 NA
ATOM     20  N   UNL     1      25.257  22.675  22.374  0.00  0.00    +0.000 NA
ENDBRANCH   5  17
TORSDOF 2
ENDMDL
MODEL 4
REMARK VINA RESULT:      -6.0      0.118      1.784
REMARK  Name = 
REMARK  2 active torsions:
REMARK  status: ('A' for Active; 'I' for Inactive)
REMARK    1  A    between atoms: N_7  and  C_8
REMARK    2  A    between atoms: C_12  and  C_13
REMARK                            x       y       z     vdW  Elec       q    Type
REMARK                         _______ _______ _______ _____ _____    ______ ____
ROOT
ATOM      1  C   UNL     1      29.071  25.791  23.348  0.00  0.00    +0.000 A 
ATOM      2  S   UNL     1      30.381  26.195  24.353  0.00  0.00    +0.000 S 
ATOM      3  C   UNL     1      30.783  24.632  24.911  0.00  0.00    +0.000 A 
ATOM      4  C   UNL     1      29.865  23.833  24.284  0.00  0.00    +0.000 A 
ATOM      5  C   UNL     1      28.977  24.425  23.475  0.00  0.00    +0.000 A 
ATOM      6  C   UNL     1      30.037  22.370  24.642  0.00  0.00    +0.000 C 
ATOM      7  C   UNL     1      30.108  22.220  26.137  0.00  0.00    +0.000 C 
ATOM      8  C   UNL     1      31.233  23.015  26.749  0.00  0.00    +0.000 C 
ATOM      9  C   UNL     1      31.817  24.038  25.840  0.00  0.00    +0.000 C 
ENDROOT
BRANCH   1  16
ATOM     10  C   UNL     1      26.622  27.280  24.379  0.00  0.00    +0.000 C 
ATOM     11  C   UNL     1      27.207  27.333  23.024  0.00  0.00    +0.000 A 
ATOM     12  C   UNL     1      26.696  28.101  22.000  0.00  0.00    +0.000 A 
ATOM     13  C   UNL     1      27.487  27.917  20.860  0.00  0.00    +0.000 A 
ATOM     14  C   UNL     1      28.465  27.018  21.274  0.00  0.00    +0.000 A 
ATOM     15  C   UNL     1      29.552  26.511  20.398  0.00  0.00    +0.000 C 
ATOM     16  N   UNL     1      28.268  26.693  22.562  0.00  0.00    +0.000 N 
ENDBRANCH   1  16
BRANCH   5  17
ATOM     17  C   UNL     1      27.921  23.706  22.724  0.00  0.00    +0.000 C 
ATOM     18  O   UNL     1      28.132  23.159  21.630  0.00  0.00    +0.000 OA
ATOM     19  N   UNL     1      26.605  23.618  23.246  0.00  0.00    +0.000 NA
ATOM     20  N   UNL     1      25.611  22.939  22.539  0.00  0.00    +0.000 NA
ENDBRANCH   5  17
TORSDOF 2
ENDMDL
MODEL 5
REMARK VINA RESULT:      -5.9      1.674      4.919
REMARK  Name = 
REMARK  2 active torsions:
REMARK  status: ('A' for Active; 'I' for Inactive)
REMARK    1  A    between atoms: N_7  and  C_8
REMARK    2  A    between atoms: C_12  and  C_13
REMARK                            x       y       z     vdW  Elec       q    Type
REMARK                         _______ _______ _______ _____ _____    ______ ____
ROOT
ATOM      1  C   UNL     1      28.854  25.026  24.499  0.00  0.00    +0.000 A 
ATOM      2  S   UNL     1      29.529  26.571  24.719  0.00  0.00    +0.000 S 
ATOM      3  C   UNL     1      28.959  27.317  23.294  0.00  0.00    +0.000 A 
ATOM      4  C   UNL     1      28.248  26.319  22.683  0.00  0.00    +0.000 A 
ATOM      5  C   UNL     1      28.190  25.132  23.300  0.00  0.00    +0.000 A 
ATOM      6  C   UNL     1      27.639  26.769  21.369  0.00  0.00    +0.000 C 
ATOM      7  C   UNL     1      28.695  27.422  20.519  0.00  0.00    +0.000 C 
ATOM      8  C   UNL     1      29.338  28.605  21.197  0.00  0.00    +0.000 C 
ATOM      9  C   UNL     1      29.071  28.685  22.659  0.00  0.00    +0.000 C 
ENDROOT
BRANCH   1  16
ATOM     10  C   UNL     1      31.190  23.072  24.513  0.00  0.00    +0.000 C 
ATOM     11  C   UNL     1      29.991  23.053  25.377  0.00  0.00    +0.000 A 
ATOM     12  C   UNL     1      29.763  22.102  26.348  0.00  0.00    +0.000 A 
ATOM     13  C   UNL     1      28.543  22.380  26.974  0.00  0.00    +0.000 A 
ATOM     14  C   UNL     1      28.086  23.523  26.323  0.00  0.00    +0.000 A 
ATOM     15  C   UNL     1      26.808  24.207  26.643  0.00  0.00    +0.000 C 
ATOM     16  N   UNL     1      28.971  23.893  25.382  0.00  0.00    +0.000 N 
ENDBRANCH   1  16
BRANCH   5  17
ATOM     17  C   UNL     1      27.465  23.952  22.774  0.00  0.00    +0.000 C 
ATOM     18  O   UNL     1      28.028  23.052  22.131  0.00  0.00    +0.000 OA
ATOM     19  N   UNL     1      26.071  23.812  22.996  0.00  0.00    +0.000 NA
ATOM     20  N   UNL     1      25.388  22.698  22.501  0.00  0.00    +0.000 NA
ENDBRANCH   5  17
TORSDOF 2
ENDMDL
MODEL 6
REMARK VINA RESULT:      -5.6      2.696      4.899
REMARK  Name = 
REMARK  2 active torsions:
REMARK  status: ('A' for Active; 'I' for Inactive)
REMARK    1  A    between atoms: N_7  and  C_8
REMARK    2  A    between atoms: C_12  and  C_13
REMARK                            x       y       z     vdW  Elec       q    Type
REMARK                         _______ _______ _______ _____ _____    ______ ____
ROOT
ATOM      1  C   UNL     1      29.603  24.924  25.450  0.00  0.00    +0.000 A 
ATOM      2  S   UNL     1      28.821  24.570  26.917  0.00  0.00    +0.000 S 
ATOM      3  C   UNL     1      27.212  24.493  26.350  0.00  0.00    +0.000 A 
ATOM      4  C   UNL     1      27.342  24.751  25.012  0.00  0.00    +0.000 A 
ATOM      5  C   UNL     1      28.575  24.975  24.540  0.00  0.00    +0.000 A 
ATOM      6  C   UNL     1      26.007  24.734  24.292  0.00  0.00    +0.000 C 
ATOM      7  C   UNL     1      25.026  25.607  25.025  0.00  0.00    +0.000 C 
ATOM      8  C   UNL     1      24.821  25.179  26.456  0.00  0.00    +0.000 C 
ATOM      9  C   UNL     1      25.853  24.231  26.958  0.00  0.00    +0.000 C 
ENDROOT
BRANCH   1  16
ATOM     10  C   UNL     1      31.560  22.732  24.647  0.00  0.00    +0.000 C 
ATOM     11  C   UNL     1      31.854  24.158  24.895  0.00  0.00    +0.000 A 
ATOM     12  C   UNL     1      33.113  24.709  24.790  0.00  0.00    +0.000 A 
ATOM     13  C   UNL     1      33.035  26.074  25.091  0.00  0.00    +0.000 A 
ATOM     14  C   UNL     1      31.686  26.277  25.370  0.00  0.00    +0.000 A 
ATOM     15  C   UNL     1      31.105  27.590  25.748  0.00  0.00    +0.000 C 
ATOM     16  N   UNL     1      31.017  25.120  25.244  0.00  0.00    +0.000 N 
ENDBRANCH   1  16
BRANCH   5  17
ATOM     17  C   UNL     1      28.885  25.268  23.120  0.00  0.00    +0.000 C 
ATOM     18  O   UNL     1      28.778  26.404  22.633  0.00  0.00    +0.000 OA
ATOM     19  N   UNL     1      29.326  24.233  22.256  0.00  0.00    +0.000 NA
ATOM     20  N   UNL     1      29.619  24.510  20.919  0.00  0.00    +0.000 NA
ENDBRANCH   5  17
TORSDOF 2
ENDMDL
MODEL 7
REMARK VINA RESULT:      -5.5      2.570      5.381
REMARK  Name = 
REMARK  2 active torsions:
REMARK  status: ('A' for Active; 'I' for Inactive)
REMARK    1  A    between atoms: N_7  and  C_8
REMARK    2  A    between atoms: C_12  and  C_13
REMARK                            x       y       z     vdW  Elec       q    Type
REMARK                         _______ _______ _______ _____ _____    ______ ____
ROOT
ATOM      1  C   UNL     1      27.824  24.934  25.714  0.00  0.00    +0.000 A 
ATOM      2  S   UNL     1      27.956  26.370  26.614  0.00  0.00    +0.000 S 
ATOM      3  C   UNL     1      26.357  26.943  26.438  0.00  0.00    +0.000 A 
ATOM      4  C   UNL     1      25.763  25.977  25.671  0.00  0.00    +0.000 A 
ATOM      5  C   UNL     1      26.516  24.936  25.293  0.00  0.00    +0.000 A 
ATOM      6  C   UNL     1      24.307  26.286  25.384  0.00  0.00    +0.000 C 
ATOM      7  C   UNL     1      24.182  27.692  24.863  0.00  0.00    +0.000 C 
ATOM      8  C   UNL     1      24.725  28.719  25.823  0.00  0.00    +0.000 C 
ATOM      9  C   UNL     1      25.573  28.149  26.904  0.00  0.00    +0.000 C 
ENDROOT
BRANCH   1  16
ATOM     10  C   UNL     1      29.839  25.085  23.436  0.00  0.00    +0.000 C 
ATOM     11  C   UNL     1      29.730  24.042  24.477  0.00  0.00    +0.000 A 
ATOM     12  C   UNL     1      30.566  22.950  24.556  0.00  0.00    +0.000 A 
ATOM     13  C   UNL     1      30.185  22.168  25.653  0.00  0.00    +0.000 A 
ATOM     14  C   UNL     1      29.103  22.857  26.194  0.00  0.00    +0.000 A 
ATOM     15  C   UNL     1      28.348  22.411  27.392  0.00  0.00    +0.000 C 
ATOM     16  N   UNL     1      28.862  23.963  25.470  0.00  0.00    +0.000 N 
ENDBRANCH   1  16
BRANCH   5  17
ATOM     17  C   UNL     1      26.027  23.809  24.463  0.00  0.00    +0.000 C 
ATOM     18  O   UNL     1      25.631  22.740  24.953  0.00  0.00    +0.000 OA
ATOM     19  N   UNL     1      25.997  23.923  23.049  0.00  0.00    +0.000 NA
ATOM     20  N   UNL     1      25.535  22.861  22.268  0.00  0.00    +0.000 NA
ENDBRANCH   5  17
TORSDOF 2
ENDMDL
MODEL 8
REMARK VINA RESULT:      -5.3      2.776      5.301
REMARK  Name = 
REMARK  2 active torsions:
REMARK  status: ('A' for Active; 'I' for Inactive)
REMARK    1  A    between atoms: N_7  and  C_8
REMARK    2  A    between atoms: C_12  and  C_13
REMARK                            x       y       z     vdW  Elec       q    Type
REMARK                         _______ _______ _______ _____ _____    ______ ____
ROOT
ATOM      1  C   UNL     1      27.627  25.368  24.380  0.00  0.00    +0.000 A 
ATOM      2  S   UNL     1      26.729  26.627  23.675  0.00  0.00    +0.000 S 
ATOM      3  C   UNL     1      27.465  26.648  22.134  0.00  0.00    +0.000 A 
ATOM      4  C   UNL     1      28.402  25.655  22.223  0.00  0.00    +0.000 A 
ATOM      5  C   UNL     1      28.492  24.989  23.381  0.00  0.00    +0.000 A 
ATOM      6  C   UNL     1      29.192  25.493  20.939  0.00  0.00    +0.000 C 
ATOM      7  C   UNL     1      29.712  26.833  20.494  0.00  0.00    +0.000 C 
ATOM      8  C   UNL     1      28.613  27.841  20.275  0.00  0.00    +0.000 C 
ATOM      9  C   UNL     1      27.303  27.446  20.859  0.00  0.00    +0.000 C 
ENDROOT
BRANCH   1  16
ATOM     10  C   UNL     1      29.057  26.471  26.832  0.00  0.00    +0.000 C 
ATOM     11  C   UNL     1      28.116  25.334  26.772  0.00  0.00    +0.000 A 
ATOM     12  C   UNL     1      27.745  24.590  27.870  0.00  0.00    +0.000 A 
ATOM     13  C   UNL     1      26.847  23.598  27.460  0.00  0.00    +0.000 A 
ATOM     14  C   UNL     1      26.722  23.807  26.089  0.00  0.00    +0.000 A 
ATOM     15  C   UNL     1      25.861  22.987  25.199  0.00  0.00    +0.000 C 
ATOM     16  N   UNL     1      27.489  24.844  25.717  0.00  0.00    +0.000 N 
ENDBRANCH   1  16
BRANCH   5  17
ATOM     17  C   UNL     1      29.451  23.889  23.641  0.00  0.00    +0.000 C 
ATOM     18  O   UNL     1      29.142  22.692  23.531  0.00  0.00    +0.000 OA
ATOM     19  N   UNL     1      30.783  24.179  24.032  0.00  0.00    +0.000 NA
ATOM     20  N   UNL     1      31.687  23.142  24.276  0.00  0.00    +0.000 NA
ENDBRANCH   5  17
TORSDOF 2
ENDMDL
MODEL 9
REMARK VINA RESULT:      -5.2      3.850      4.948
REMARK  Name = 
REMARK  2 active torsions:
REMARK  status: ('A' for Active; 'I' for Inactive)
REMARK    1  A    between atoms: N_7  and  C_8
REMARK    2  A    between atoms: C_12  and  C_13
REMARK                            x       y       z     vdW  Elec       q    Type
REMARK                         _______ _______ _______ _____ _____    ______ ____
ROOT
ATOM      1  C   UNL     1      27.109  24.023  25.622  0.00  0.00    +0.000 A 
ATOM      2  S   UNL     1      27.555  22.751  26.658  0.00  0.00    +0.000 S 
ATOM      3  C   UNL     1      26.704  23.234  28.057  0.00  0.00    +0.000 A 
ATOM      4  C   UNL     1      26.089  24.392  27.662  0.00  0.00    +0.000 A 
ATOM      5  C   UNL     1      26.295  24.806  26.405  0.00  0.00    +0.000 A 
ATOM      6  C   UNL     1      25.260  25.010  28.771  0.00  0.00    +0.000 C 
ATOM      7  C   UNL     1      26.089  25.114  30.023  0.00  0.00    +0.000 C 
ATOM      8  C   UNL     1      26.616  23.779  30.484  0.00  0.00    +0.000 C 
ATOM      9  C   UNL     1      26.522  22.703  29.461  0.00  0.00    +0.000 C 
ENDROOT
BRANCH   1  16
ATOM     10  C   UNL     1      25.493  23.113  23.206  0.00  0.00    +0.000 C 
ATOM     11  C   UNL     1      26.798  23.807  23.210  0.00  0.00    +0.000 A 
ATOM     12  C   UNL     1      27.486  24.149  22.067  0.00  0.00    +0.000 A 
ATOM     13  C   UNL     1      28.676  24.789  22.431  0.00  0.00    +0.000 A 
ATOM     14  C   UNL     1      28.638  24.798  23.823  0.00  0.00    +0.000 A 
ATOM     15  C   UNL     1      29.702  25.381  24.679  0.00  0.00    +0.000 C 
ATOM     16  N   UNL     1      27.510  24.207  24.250  0.00  0.00    +0.000 N 
ENDBRANCH   1  16
BRANCH   5  17
ATOM     17  C   UNL     1      25.705  26.034  25.822  0.00  0.00    +0.000 C 
ATOM     18  O   UNL     1      26.338  27.096  25.719  0.00  0.00    +0.000 OA
ATOM     19  N   UNL     1      24.365  26.032  25.355  0.00  0.00    +0.000 NA
ATOM     20  N   UNL     1      23.810  27.190  24.806  0.00  0.00    +0.000 NA
ENDBRANCH   5  17
TORSDOF 2
ENDMDL
MODEL 10
REMARK VINA RESULT:      -5.2     33.728     36.012
REMARK  Name = 
REMARK  2 active torsions:
REMARK  status: ('A' for Active; 'I' for Inactive)
REMARK    1  A    between atoms: N_7  and  C_8
REMARK    2  A    between atoms: C_12  and  C_13
REMARK                            x       y       z     vdW  Elec       q    Type
REMARK                         _______ _______ _______ _____ _____    ______ ____
ROOT
ATOM      1  C   UNL     1      18.800  -8.781  27.016  0.00  0.00    +0.000 A 
ATOM      2  S   UNL     1      18.857  -9.276  28.641  0.00  0.00    +0.000 S 
ATOM      3  C   UNL     1      17.632 -10.464  28.601  0.00  0.00    +0.000 A 
ATOM      4  C   UNL     1      17.212 -10.434  27.298  0.00  0.00    +0.000 A 
ATOM      5  C   UNL     1      17.811  -9.566  26.473  0.00  0.00    +0.000 A 
ATOM      6  C   UNL     1      16.101 -11.430  27.029  0.00  0.00    +0.000 C 
ATOM      7  C   UNL     1      15.017 -11.269  28.060  0.00  0.00    +0.000 C 
ATOM      8  C   UNL     1      15.521 -11.458  29.469  0.00  0.00    +0.000 C 
ATOM      9  C   UNL     1      17.003 -11.417  29.593  0.00  0.00    +0.000 C 
ENDROOT
BRANCH   1  16
ATOM     10  C   UNL     1      18.060  -5.833  26.820  0.00  0.00    +0.000 C 
ATOM     11  C   UNL     1      19.279  -6.494  26.309  0.00  0.00    +0.000 A 
ATOM     12  C   UNL     1      20.288  -5.830  25.646  0.00  0.00    +0.000 A 
ATOM     13  C   UNL     1      21.285  -6.750  25.304  0.00  0.00    +0.000 A 
ATOM     14  C   UNL     1      20.805  -7.961  25.797  0.00  0.00    +0.000 A 
ATOM     15  C   UNL     1      21.526  -9.253  25.673  0.00  0.00    +0.000 C 
ATOM     16  N   UNL     1      19.613  -7.770  26.387  0.00  0.00    +0.000 N 
ENDBRANCH   1  16
BRANCH   5  17
ATOM     17  C   UNL     1      17.475  -9.408  25.038  0.00  0.00    +0.000 C 
ATOM     18  O   UNL     1      16.543  -8.689  24.645  0.00  0.00    +0.000 OA
ATOM     19  N   UNL     1      18.227 -10.091  24.049  0.00  0.00    +0.000 NA
ATOM     20  N   UNL     1      17.911  -9.941  22.696  0.00  0.00    +0.000 NA
ENDBRANCH   5  17
TORSDOF 2
ENDMDL
