MODEL 1
REMARK VINA RESULT:      -5.7      0.000      0.000
REMARK  Name = 
REMARK  4 active torsions:
REMARK  status: ('A' for Active; 'I' for Inactive)
REMARK    1  A    between atoms: C_7  and  N_8
REMARK    2  A    between atoms: N_8  and  C_9
REMARK    3  A    between atoms: C_9  and  N_11
REMARK    4  A    between atoms: C_12  and  C_14
REMARK                            x       y       z     vdW  Elec       q    Type
REMARK                         _______ _______ _______ _____ _____    ______ ____
ROOT
ATOM      1  N   UNL     1      17.374   9.809  36.981  0.00  0.00    +0.000 NA
ENDROOT
BRANCH   1   8
ATOM      2  C   UNL     1      13.403  12.721  36.504  0.00  0.00    +0.000 C 
ATOM      3  C   UNL     1      14.617  12.045  35.933  0.00  0.00    +0.000 A 
ATOM      4  C   UNL     1      14.898  12.254  34.581  0.00  0.00    +0.000 A 
ATOM      5  C   UNL     1      16.010  11.635  34.060  0.00  0.00    +0.000 A 
ATOM      6  C   UNL     1      16.815  10.838  34.849  0.00  0.00    +0.000 A 
ATOM      7  O   UNL     1      17.946  10.201  34.341  0.00  0.00    +0.000 OA
ATOM      8  C   UNL     1      16.517  10.646  36.181  0.00  0.00    +0.000 A 
ATOM      9  C   UNL     1      15.408  11.253  36.735  0.00  0.00    +0.000 A 
ENDBRANCH   1   8
BRANCH   1  10
ATOM     10  C   UNL     1      17.903  10.266  38.220  0.00  0.00    +0.000 C 
ATOM     11  S   UNL     1      19.159  11.274  38.201  0.00  0.00    +0.000 S 
BRANCH  10  12
ATOM     12  N   UNL     1      17.272   9.786  39.401  0.00  0.00    +0.000 NA
ATOM     13  C   UNL     1      17.726   8.615  40.028  0.00  0.00    +0.000 C 
ATOM     14  O   UNL     1      18.703   8.015  39.504  0.00  0.00    +0.000 OA
BRANCH  13  15
ATOM     15  C   UNL     1      17.115   8.053  41.267  0.00  0.00    +0.000 C 
ATOM     16  C   UNL     1      16.997   6.556  41.207  0.00  0.00    +0.000 C 
ATOM     17  C   UNL     1      15.704   8.648  41.341  0.00  0.00    +0.000 C 
ATOM     18  C   UNL     1      17.862   8.527  42.476  0.00  0.00    +0.000 C 
ENDBRANCH  13  15
ENDBRANCH  10  12
ENDBRANCH   1  10
TORSDOF 4
ENDMDL
MODEL 2
REMARK VINA RESULT:      -5.5     20.580     21.619
REMARK  Name = 
REMARK  4 active torsions:
REMARK  status: ('A' for Active; 'I' for Inactive)
REMARK    1  A    between atoms: C_7  and  N_8
REMARK    2  A    between atoms: N_8  and  C_9
REMARK    3  A    between atoms: C_9  and  N_11
REMARK    4  A    between atoms: C_12  and  C_14
REMARK                            x       y       z     vdW  Elec       q    Type
REMARK                         _______ _______ _______ _____ _____    ______ ____
ROOT
ATOM      1  N   UNL     1      17.595  -8.795  26.404  0.00  0.00    +0.000 NA
ENDROOT
BRANCH   1   8
ATOM      2  C   UNL     1      21.780  -6.623  24.906  0.00  0.00    +0.000 C 
ATOM      3  C   UNL     1      20.418  -6.564  25.537  0.00  0.00    +0.000 A 
ATOM      4  C   UNL     1      19.963  -5.319  25.978  0.00  0.00    +0.000 A 
ATOM      5  C   UNL     1      18.716  -5.267  26.555  0.00  0.00    +0.000 A 
ATOM      6  C   UNL     1      17.947  -6.406  26.691  0.00  0.00    +0.000 A 
ATOM      7  O   UNL     1      16.682  -6.375  27.274  0.00  0.00    +0.000 OA
ATOM      8  C   UNL     1      18.418  -7.623  26.250  0.00  0.00    +0.000 A 
ATOM      9  C   UNL     1      19.665  -7.710  25.665  0.00  0.00    +0.000 A 
ENDBRANCH   1   8
BRANCH   1  10
ATOM     10  C   UNL     1      18.131 -10.012  26.912  0.00  0.00    +0.000 C 
ATOM     11  S   UNL     1      18.257 -11.275  25.922  0.00  0.00    +0.000 S 
BRANCH  10  12
ATOM     12  N   UNL     1      18.518 -10.017  28.281  0.00  0.00    +0.000 NA
ATOM     13  C   UNL     1      17.630 -10.463  29.272  0.00  0.00    +0.000 C 
ATOM     14  O   UNL     1      16.490 -10.850  28.901  0.00  0.00    +0.000 OA
BRANCH  13  15
ATOM     15  C   UNL     1      17.967 -10.498  30.725  0.00  0.00    +0.000 C 
ATOM     16  C   UNL     1      19.197  -9.692  31.036  0.00  0.00    +0.000 C 
ATOM     17  C   UNL     1      18.255 -11.968  31.050  0.00  0.00    +0.000 C 
ATOM     18  C   UNL     1      16.782 -10.084  31.543  0.00  0.00    +0.000 C 
ENDBRANCH  13  15
ENDBRANCH  10  12
ENDBRANCH   1  10
TORSDOF 4
ENDMDL
MODEL 3
REMARK VINA RESULT:      -5.4     19.143     21.019
REMARK  Name = 
REMARK  4 active torsions:
REMARK  status: ('A' for Active; 'I' for Inactive)
REMARK    1  A    between atoms: C_7  and  N_8
REMARK    2  A    between atoms: N_8  and  C_9
REMARK    3  A    between atoms: C_9  and  N_11
REMARK    4  A    between atoms: C_12  and  C_14
REMARK                            x       y       z     vdW  Elec       q    Type
REMARK                         _______ _______ _______ _____ _____    ______ ____
ROOT
ATOM      1  N   UNL     1      26.194  22.982  25.492  0.00  0.00    +0.000 NA
ENDROOT
BRANCH   1   8
ATOM      2  C   UNL     1      30.701  22.054  27.309  0.00  0.00    +0.000 C 
ATOM      3  C   UNL     1      29.785  22.395  26.168  0.00  0.00    +0.000 A 
ATOM      4  C   UNL     1      30.361  22.573  24.908  0.00  0.00    +0.000 A 
ATOM      5  C   UNL     1      29.521  22.885  23.865  0.00  0.00    +0.000 A 
ATOM      6  C   UNL     1      28.161  23.017  24.062  0.00  0.00    +0.000 A 
ATOM      7  O   UNL     1      27.293  23.334  23.019  0.00  0.00    +0.000 OA
ATOM      8  C   UNL     1      27.616  22.839  25.315  0.00  0.00    +0.000 A 
ATOM      9  C   UNL     1      28.431  22.524  26.383  0.00  0.00    +0.000 A 
ENDBRANCH   1   8
BRANCH   1  10
ATOM     10  C   UNL     1      25.642  24.121  26.143  0.00  0.00    +0.000 C 
ATOM     11  S   UNL     1      25.146  25.362  25.244  0.00  0.00    +0.000 S 
BRANCH  10  12
ATOM     12  N   UNL     1      25.572  24.074  27.564  0.00  0.00    +0.000 NA
ATOM     13  C   UNL     1      26.445  24.845  28.347  0.00  0.00    +0.000 C 
ATOM     14  O   UNL     1      27.282  25.569  27.744  0.00  0.00    +0.000 OA
BRANCH  13  15
ATOM     15  C   UNL     1      26.429  24.848  29.838  0.00  0.00    +0.000 C 
ATOM     16  C   UNL     1      27.700  25.406  30.413  0.00  0.00    +0.000 C 
ATOM     17  C   UNL     1      26.313  23.378  30.256  0.00  0.00    +0.000 C 
ATOM     18  C   UNL     1      25.207  25.552  30.343  0.00  0.00    +0.000 C 
ENDBRANCH  13  15
ENDBRANCH  10  12
ENDBRANCH   1  10
TORSDOF 4
ENDMDL
MODEL 4
REMARK VINA RESULT:      -5.4     21.836     23.033
REMARK  Name = 
REMARK  4 active torsions:
REMARK  status: ('A' for Active; 'I' for Inactive)
REMARK    1  A    between atoms: C_7  and  N_8
REMARK    2  A    between atoms: N_8  and  C_9
REMARK    3  A    between atoms: C_9  and  N_11
REMARK    4  A    between atoms: C_12  and  C_14
REMARK                            x       y       z     vdW  Elec       q    Type
REMARK                         _______ _______ _______ _____ _____    ______ ____
ROOT
ATOM      1  N   UNL     1      20.417  -9.337  25.622  0.00  0.00    +0.000 NA
ENDROOT
BRANCH   1   8
ATOM      2  C   UNL     1      18.974  -4.657  26.325  0.00  0.00    +0.000 C 
ATOM      3  C   UNL     1      18.799  -6.135  26.533  0.00  0.00    +0.000 A 
ATOM      4  C   UNL     1      17.711  -6.556  27.301  0.00  0.00    +0.000 A 
ATOM      5  C   UNL     1      17.553  -7.909  27.489  0.00  0.00    +0.000 A 
ATOM      6  C   UNL     1      18.440  -8.812  26.939  0.00  0.00    +0.000 A 
ATOM      7  O   UNL     1      18.298 -10.187  27.118  0.00  0.00    +0.000 OA
ATOM      8  C   UNL     1      19.507  -8.372  26.186  0.00  0.00    +0.000 A 
ATOM      9  C   UNL     1      19.695  -7.022  25.976  0.00  0.00    +0.000 A 
ENDBRANCH   1   8
BRANCH   1  10
ATOM     10  C   UNL     1      21.768  -9.420  26.059  0.00  0.00    +0.000 C 
ATOM     11  S   UNL     1      22.140 -10.456  27.235  0.00  0.00    +0.000 S 
BRANCH  10  12
ATOM     12  N   UNL     1      22.703  -8.563  25.413  0.00  0.00    +0.000 NA
ATOM     13  C   UNL     1      23.284  -8.935  24.190  0.00  0.00    +0.000 C 
ATOM     14  O   UNL     1      22.946 -10.046  23.699  0.00  0.00    +0.000 OA
BRANCH  13  15
ATOM     15  C   UNL     1      24.269  -8.090  23.456  0.00  0.00    +0.000 C 
ATOM     16  C   UNL     1      25.682  -8.554  23.675  0.00  0.00    +0.000 C 
ATOM     17  C   UNL     1      24.126  -6.680  24.041  0.00  0.00    +0.000 C 
ATOM     18  C   UNL     1      23.905  -8.009  22.005  0.00  0.00    +0.000 C 
ENDBRANCH  13  15
ENDBRANCH  10  12
ENDBRANCH   1  10
TORSDOF 4
ENDMDL
MODEL 5
REMARK VINA RESULT:      -5.3     20.831     22.765
REMARK  Name = 
REMARK  4 active torsions:
REMARK  status: ('A' for Active; 'I' for Inactive)
REMARK    1  A    between atoms: C_7  and  N_8
REMARK    2  A    between atoms: N_8  and  C_9
REMARK    3  A    between atoms: C_9  and  N_11
REMARK    4  A    between atoms: C_12  and  C_14
REMARK                            x       y       z     vdW  Elec       q    Type
REMARK                         _______ _______ _______ _____ _____    ______ ____
ROOT
ATOM      1  N   UNL     1      27.770  23.066  23.437  0.00  0.00    +0.000 NA
ENDROOT
BRANCH   1   8
ATOM      2  C   UNL     1      32.551  23.680  24.550  0.00  0.00    +0.000 C 
ATOM      3  C   UNL     1      31.149  23.300  24.931  0.00  0.00    +0.000 A 
ATOM      4  C   UNL     1      30.925  22.883  26.245  0.00  0.00    +0.000 A 
ATOM      5  C   UNL     1      29.640  22.536  26.591  0.00  0.00    +0.000 A 
ATOM      6  C   UNL     1      28.615  22.598  25.670  0.00  0.00    +0.000 A 
ATOM      7  O   UNL     1      27.306  22.250  26.000  0.00  0.00    +0.000 OA
ATOM      8  C   UNL     1      28.860  23.011  24.378  0.00  0.00    +0.000 A 
ATOM      9  C   UNL     1      30.137  23.367  23.998  0.00  0.00    +0.000 A 
ENDBRANCH   1   8
BRANCH   1  10
ATOM     10  C   UNL     1      27.110  24.292  23.144  0.00  0.00    +0.000 C 
ATOM     11  S   UNL     1      27.624  25.170  21.896  0.00  0.00    +0.000 S 
BRANCH  10  12
ATOM     12  N   UNL     1      26.027  24.654  23.994  0.00  0.00    +0.000 NA
ATOM     13  C   UNL     1      26.233  25.516  25.083  0.00  0.00    +0.000 C 
ATOM     14  O   UNL     1      27.402  25.946  25.272  0.00  0.00    +0.000 OA
BRANCH  13  15
ATOM     15  C   UNL     1      25.147  25.939  26.014  0.00  0.00    +0.000 C 
ATOM     16  C   UNL     1      23.884  26.294  25.282  0.00  0.00    +0.000 C 
ATOM     17  C   UNL     1      25.670  27.197  26.718  0.00  0.00    +0.000 C 
ATOM     18  C   UNL     1      24.932  24.896  27.068  0.00  0.00    +0.000 C 
ENDBRANCH  13  15
ENDBRANCH  10  12
ENDBRANCH   1  10
TORSDOF 4
ENDMDL
MODEL 6
REMARK VINA RESULT:      -5.2     21.483     22.575
REMARK  Name = 
REMARK  4 active torsions:
REMARK  status: ('A' for Active; 'I' for Inactive)
REMARK    1  A    between atoms: C_7  and  N_8
REMARK    2  A    between atoms: N_8  and  C_9
REMARK    3  A    between atoms: C_9  and  N_11
REMARK    4  A    between atoms: C_12  and  C_14
REMARK                            x       y       z     vdW  Elec       q    Type
REMARK                         _______ _______ _______ _____ _____    ______ ____
ROOT
ATOM      1  N   UNL     1      17.638  -8.914  26.273  0.00  0.00    +0.000 NA
ENDROOT
BRANCH   1   8
ATOM      2  C   UNL     1      21.763  -6.516  24.964  0.00  0.00    +0.000 C 
ATOM      3  C   UNL     1      20.384  -6.537  25.561  0.00  0.00    +0.000 A 
ATOM      4  C   UNL     1      19.866  -5.329  26.034  0.00  0.00    +0.000 A 
ATOM      5  C   UNL     1      18.604  -5.350  26.579  0.00  0.00    +0.000 A 
ATOM      6  C   UNL     1      17.881  -6.524  26.654  0.00  0.00    +0.000 A 
ATOM      7  O   UNL     1      16.601  -6.567  27.204  0.00  0.00    +0.000 OA
ATOM      8  C   UNL     1      18.415  -7.704  26.182  0.00  0.00    +0.000 A 
ATOM      9  C   UNL     1      19.678  -7.717  25.628  0.00  0.00    +0.000 A 
ENDBRANCH   1   8
BRANCH   1  10
ATOM     10  C   UNL     1      17.004  -9.471  25.128  0.00  0.00    +0.000 C 
ATOM     11  S   UNL     1      17.815 -10.540  24.237  0.00  0.00    +0.000 S 
BRANCH  10  12
ATOM     12  N   UNL     1      15.678  -9.032  24.853  0.00  0.00    +0.000 NA
ATOM     13  C   UNL     1      14.576  -9.709  25.396  0.00  0.00    +0.000 C 
ATOM     14  O   UNL     1      14.808 -10.711  26.125  0.00  0.00    +0.000 OA
BRANCH  13  15
ATOM     15  C   UNL     1      13.160  -9.306  25.152  0.00  0.00    +0.000 C 
ATOM     16  C   UNL     1      12.235 -10.490  25.125  0.00  0.00    +0.000 C 
ATOM     17  C   UNL     1      13.147  -8.649  23.768  0.00  0.00    +0.000 C 
ATOM     18  C   UNL     1      12.739  -8.265  26.144  0.00  0.00    +0.000 C 
ENDBRANCH  13  15
ENDBRANCH  10  12
ENDBRANCH   1  10
TORSDOF 4
ENDMDL
MODEL 7
REMARK VINA RESULT:      -5.2     20.686     23.575
REMARK  Name = 
REMARK  4 active torsions:
REMARK  status: ('A' for Active; 'I' for Inactive)
REMARK    1  A    between atoms: C_7  and  N_8
REMARK    2  A    between atoms: N_8  and  C_9
REMARK    3  A    between atoms: C_9  and  N_11
REMARK    4  A    between atoms: C_12  and  C_14
REMARK                            x       y       z     vdW  Elec       q    Type
REMARK                         _______ _______ _______ _____ _____    ______ ____
ROOT
ATOM      1  N   UNL     1      28.393  23.036  24.363  0.00  0.00    +0.000 NA
ENDROOT
BRANCH   1   8
ATOM      2  C   UNL     1      27.746  22.503  29.239  0.00  0.00    +0.000 C 
ATOM      3  C   UNL     1      27.287  22.994  27.895  0.00  0.00    +0.000 A 
ATOM      4  C   UNL     1      26.064  23.666  27.835  0.00  0.00    +0.000 A 
ATOM      5  C   UNL     1      25.647  24.115  26.604  0.00  0.00    +0.000 A 
ATOM      6  C   UNL     1      26.411  23.906  25.474  0.00  0.00    +0.000 A 
ATOM      7  O   UNL     1      26.006  24.352  24.217  0.00  0.00    +0.000 OA
ATOM      8  C   UNL     1      27.614  23.239  25.558  0.00  0.00    +0.000 A 
ATOM      9  C   UNL     1      28.063  22.776  26.778  0.00  0.00    +0.000 A 
ENDBRANCH   1   8
BRANCH   1  10
ATOM     10  C   UNL     1      29.522  23.850  24.070  0.00  0.00    +0.000 C 
ATOM     11  S   UNL     1      30.991  23.291  24.423  0.00  0.00    +0.000 S 
BRANCH  10  12
ATOM     12  N   UNL     1      29.261  25.117  23.478  0.00  0.00    +0.000 NA
ATOM     13  C   UNL     1      29.241  25.262  22.083  0.00  0.00    +0.000 C 
ATOM     14  O   UNL     1      29.463  24.235  21.387  0.00  0.00    +0.000 OA
BRANCH  13  15
ATOM     15  C   UNL     1      28.975  26.558  21.393  0.00  0.00    +0.000 C 
ATOM     16  C   UNL     1      29.326  27.737  22.257  0.00  0.00    +0.000 C 
ATOM     17  C   UNL     1      27.466  26.585  21.126  0.00  0.00    +0.000 C 
ATOM     18  C   UNL     1      29.664  26.590  20.063  0.00  0.00    +0.000 C 
ENDBRANCH  13  15
ENDBRANCH  10  12
ENDBRANCH   1  10
TORSDOF 4
ENDMDL
MODEL 8
REMARK VINA RESULT:      -5.1      1.922      6.295
REMARK  Name = 
REMARK  4 active torsions:
REMARK  status: ('A' for Active; 'I' for Inactive)
REMARK    1  A    between atoms: C_7  and  N_8
REMARK    2  A    between atoms: N_8  and  C_9
REMARK    3  A    between atoms: C_9  and  N_11
REMARK    4  A    between atoms: C_12  and  C_14
REMARK                            x       y       z     vdW  Elec       q    Type
REMARK                         _______ _______ _______ _____ _____    ______ ____
ROOT
ATOM      1  N   UNL     1      19.447   9.748  40.486  0.00  0.00    +0.000 NA
ENDROOT
BRANCH   1   8
ATOM      2  C   UNL     1      19.358   4.806  40.285  0.00  0.00    +0.000 C 
ATOM      3  C   UNL     1      18.689   6.126  40.541  0.00  0.00    +0.000 A 
ATOM      4  C   UNL     1      17.348   6.106  40.931  0.00  0.00    +0.000 A 
ATOM      5  C   UNL     1      16.737   7.315  41.166  0.00  0.00    +0.000 A 
ATOM      6  C   UNL     1      17.428   8.501  41.019  0.00  0.00    +0.000 A 
ATOM      7  O   UNL     1      16.827   9.737  41.250  0.00  0.00    +0.000 OA
ATOM      8  C   UNL     1      18.750   8.495  40.631  0.00  0.00    +0.000 A 
ATOM      9  C   UNL     1      19.394   7.299  40.389  0.00  0.00    +0.000 A 
ENDBRANCH   1   8
BRANCH   1  10
ATOM     10  C   UNL     1      19.755  10.277  39.201  0.00  0.00    +0.000 C 
ATOM     11  S   UNL     1      21.193   9.952  38.555  0.00  0.00    +0.000 S 
BRANCH  10  12
ATOM     12  N   UNL     1      18.749  11.068  38.578  0.00  0.00    +0.000 NA
ATOM     13  C   UNL     1      17.895  10.506  37.616  0.00  0.00    +0.000 C 
ATOM     14  O   UNL     1      18.057   9.289  37.333  0.00  0.00    +0.000 OA
BRANCH  13  15
ATOM     15  C   UNL     1      16.820  11.272  36.922  0.00  0.00    +0.000 C 
ATOM     16  C   UNL     1      17.128  12.742  36.860  0.00  0.00    +0.000 C 
ATOM     17  C   UNL     1      15.557  11.077  37.768  0.00  0.00    +0.000 C 
ATOM     18  C   UNL     1      16.548  10.680  35.573  0.00  0.00    +0.000 C 
ENDBRANCH  13  15
ENDBRANCH  10  12
ENDBRANCH   1  10
TORSDOF 4
ENDMDL
MODEL 9
REMARK VINA RESULT:      -5.0     19.601     21.299
REMARK  Name = 
REMARK  4 active torsions:
REMARK  status: ('A' for Active; 'I' for Inactive)
REMARK    1  A    between atoms: C_7  and  N_8
REMARK    2  A    between atoms: N_8  and  C_9
REMARK    3  A    between atoms: C_9  and  N_11
REMARK    4  A    between atoms: C_12  and  C_14
REMARK                            x       y       z     vdW  Elec       q    Type
REMARK                         _______ _______ _______ _____ _____    ______ ____
ROOT
ATOM      1  N   UNL     1      28.975  22.209  27.782  0.00  0.00    +0.000 NA
ENDROOT
BRANCH   1   8
ATOM      2  C   UNL     1      32.458  23.666  24.585  0.00  0.00    +0.000 C 
ATOM      3  C   UNL     1      31.033  23.323  24.914  0.00  0.00    +0.000 A 
ATOM      4  C   UNL     1      30.090  23.420  23.888  0.00  0.00    +0.000 A 
ATOM      5  C   UNL     1      28.786  23.106  24.192  0.00  0.00    +0.000 A 
ATOM      6  C   UNL     1      28.428  22.711  25.465  0.00  0.00    +0.000 A 
ATOM      7  O   UNL     1      27.113  22.389  25.795  0.00  0.00    +0.000 OA
ATOM      8  C   UNL     1      29.376  22.624  26.462  0.00  0.00    +0.000 A 
ATOM      9  C   UNL     1      30.694  22.932  26.191  0.00  0.00    +0.000 A 
ENDBRANCH   1   8
BRANCH   1  10
ATOM     10  C   UNL     1      28.848  23.147  28.844  0.00  0.00    +0.000 C 
ATOM     11  S   UNL     1      29.589  22.841  30.240  0.00  0.00    +0.000 S 
BRANCH  10  12
ATOM     12  N   UNL     1      28.059  24.303  28.585  0.00  0.00    +0.000 NA
ATOM     13  C   UNL     1      26.665  24.266  28.745  0.00  0.00    +0.000 C 
ATOM     14  O   UNL     1      26.151  23.179  29.121  0.00  0.00    +0.000 OA
BRANCH  13  15
ATOM     15  C   UNL     1      25.776  25.438  28.493  0.00  0.00    +0.000 C 
ATOM     16  C   UNL     1      26.560  26.686  28.204  0.00  0.00    +0.000 C 
ATOM     17  C   UNL     1      24.989  25.649  29.791  0.00  0.00    +0.000 C 
ATOM     18  C   UNL     1      24.784  25.115  27.418  0.00  0.00    +0.000 C 
ENDBRANCH  13  15
ENDBRANCH  10  12
ENDBRANCH   1  10
TORSDOF 4
ENDMDL
MODEL 10
REMARK VINA RESULT:      -5.0     18.464     19.802
REMARK  Name = 
REMARK  4 active torsions:
REMARK  status: ('A' for Active; 'I' for Inactive)
REMARK    1  A    between atoms: C_7  and  N_8
REMARK    2  A    between atoms: N_8  and  C_9
REMARK    3  A    between atoms: C_9  and  N_11
REMARK    4  A    between atoms: C_12  and  C_14
REMARK                            x       y       z     vdW  Elec       q    Type
REMARK                         _______ _______ _______ _____ _____    ______ ____
ROOT
ATOM      1  N   UNL     1      35.481   2.789  37.448  0.00  0.00    +0.000 NA
ENDROOT
BRANCH   1   8
ATOM      2  C   UNL     1      32.828   5.513  34.282  0.00  0.00    +0.000 C 
ATOM      3  C   UNL     1      34.100   5.226  35.027  0.00  0.00    +0.000 A 
ATOM      4  C   UNL     1      35.179   6.088  34.821  0.00  0.00    +0.000 A 
ATOM      5  C   UNL     1      36.343   5.824  35.505  0.00  0.00    +0.000 A 
ATOM      6  C   UNL     1      36.435   4.746  36.361  0.00  0.00    +0.000 A 
ATOM      7  O   UNL     1      37.605   4.460  37.062  0.00  0.00    +0.000 OA
ATOM      8  C   UNL     1      35.357   3.908  36.547  0.00  0.00    +0.000 A 
ATOM      9  C   UNL     1      34.174   4.145  35.878  0.00  0.00    +0.000 A 
ENDBRANCH   1   8
BRANCH   1  10
ATOM     10  C   UNL     1      34.381   1.926  37.707  0.00  0.00    +0.000 C 
ATOM     11  S   UNL     1      34.006   1.588  39.236  0.00  0.00    +0.000 S 
BRANCH  10  12
ATOM     12  N   UNL     1      33.686   1.417  36.575  0.00  0.00    +0.000 NA
ATOM     13  C   UNL     1      34.071   0.202  35.988  0.00  0.00    +0.000 C 
ATOM     14  O   UNL     1      35.048  -0.409  36.501  0.00  0.00    +0.000 OA
BRANCH  13  15
ATOM     15  C   UNL     1      33.390  -0.393  34.801  0.00  0.00    +0.000 C 
ATOM     16  C   UNL     1      32.918   0.660  33.839  0.00  0.00    +0.000 C 
ATOM     17  C   UNL     1      32.165  -1.132  35.352  0.00  0.00    +0.000 C 
ATOM     18  C   UNL     1      34.274  -1.415  34.153  0.00  0.00    +0.000 C 
ENDBRANCH  13  15
ENDBRANCH  10  12
ENDBRANCH   1  10
TORSDOF 4
ENDMDL
