MODEL 1
REMARK VINA RESULT:      -7.0      0.000      0.000
REMARK  Name = 
REMARK  4 active torsions:
REMARK  status: ('A' for Active; 'I' for Inactive)
REMARK    1  A    between atoms: C_5  and  N_6
REMARK    2  A    between atoms: C_7  and  O_9
REMARK    3  A    between atoms: O_9  and  N_10
REMARK    4  A    between atoms: N_10  and  C_11
REMARK                            x       y       z     vdW  Elec       q    Type
REMARK                         _______ _______ _______ _____ _____    ______ ____
ROOT
ATOM      1  N   UNL     1      17.104  11.343  35.701  0.00  0.00    +0.000 NA
ATOM      2  C   UNL     1      17.175  10.405  34.625  0.00  0.00    +0.000 C 
ATOM      3  O   UNL     1      16.996   9.163  34.807  0.00  0.00    +0.000 OA
ENDROOT
BRANCH   1   8
ATOM      4  C   UNL     1      16.332   9.471  41.033  0.00  0.00    +0.000 C 
ATOM      5  C   UNL     1      16.514   9.964  39.642  0.00  0.00    +0.000 A 
ATOM      6  C   UNL     1      15.470  10.525  38.937  0.00  0.00    +0.000 A 
ATOM      7  C   UNL     1      15.614  10.994  37.635  0.00  0.00    +0.000 A 
ATOM      8  C   UNL     1      16.827  10.902  37.022  0.00  0.00    +0.000 A 
ATOM      9  C   UNL     1      17.883  10.338  37.728  0.00  0.00    +0.000 A 
ATOM     10  C   UNL     1      17.740   9.876  39.009  0.00  0.00    +0.000 A 
ATOM     11 CL   UNL     1      19.130   9.182  39.815  0.00  0.00    +0.000 Cl
ENDBRANCH   1   8
BRANCH   2  12
ATOM     12  O   UNL     1      17.444  10.804  33.321  0.00  0.00    +0.000 OA
BRANCH  12  13
ATOM     13  N   UNL     1      16.492  10.663  32.340  0.00  0.00    +0.000 NA
BRANCH  13  14
ATOM     14  C   UNL     1      15.784  11.850  31.921  0.00  0.00    +0.000 C 
ATOM     15  C   UNL     1      16.194  12.549  30.882  0.00  0.00    +0.000 C 
ATOM     16  C   UNL     1      15.505  13.775  30.410  0.00  0.00    +0.000 C 
ATOM     17  C   UNL     1      14.060  13.680  30.843  0.00  0.00    +0.000 C 
ATOM     18  C   UNL     1      14.104  13.583  32.373  0.00  0.00    +0.000 C 
ATOM     19  C   UNL     1      14.595  12.199  32.736  0.00  0.00    +0.000 C 
ENDBRANCH  13  14
ENDBRANCH  12  13
ENDBRANCH   2  12
TORSDOF 4
ENDMDL
MODEL 2
REMARK VINA RESULT:      -6.9      3.416      6.900
REMARK  Name = 
REMARK  4 active torsions:
REMARK  status: ('A' for Active; 'I' for Inactive)
REMARK    1  A    between atoms: C_5  and  N_6
REMARK    2  A    between atoms: C_7  and  O_9
REMARK    3  A    between atoms: O_9  and  N_10
REMARK    4  A    between atoms: N_10  and  C_11
REMARK                            x       y       z     vdW  Elec       q    Type
REMARK                         _______ _______ _______ _____ _____    ______ ____
ROOT
ATOM      1  N   UNL     1      15.452  10.737  34.818  0.00  0.00    +0.000 NA
ATOM      2  C   UNL     1      16.186  11.258  35.928  0.00  0.00    +0.000 C 
ATOM      3  O   UNL     1      16.916  12.289  35.824  0.00  0.00    +0.000 OA
ENDROOT
BRANCH   1   8
ATOM      4  C   UNL     1      15.494  13.519  29.839  0.00  0.00    +0.000 C 
ATOM      5  C   UNL     1      15.497  12.781  31.129  0.00  0.00    +0.000 A 
ATOM      6  C   UNL     1      16.295  11.673  31.321  0.00  0.00    +0.000 A 
ATOM      7  C   UNL     1      16.316  10.965  32.519  0.00  0.00    +0.000 A 
ATOM      8  C   UNL     1      15.523  11.371  33.549  0.00  0.00    +0.000 A 
ATOM      9  C   UNL     1      14.716  12.488  33.362  0.00  0.00    +0.000 A 
ATOM     10  C   UNL     1      14.695  13.183  32.182  0.00  0.00    +0.000 A 
ATOM     11 CL   UNL     1      13.645  14.576  32.043  0.00  0.00    +0.000 Cl
ENDBRANCH   1   8
BRANCH   2  12
ATOM     12  O   UNL     1      16.138  10.661  37.183  0.00  0.00    +0.000 OA
BRANCH  12  13
ATOM     13  N   UNL     1      15.367  11.205  38.183  0.00  0.00    +0.000 NA
BRANCH  13  14
ATOM     14  C   UNL     1      13.946  11.308  37.948  0.00  0.00    +0.000 C 
ATOM     15  C   UNL     1      13.462  12.217  37.126  0.00  0.00    +0.000 C 
ATOM     16  C   UNL     1      12.012  12.366  36.849  0.00  0.00    +0.000 C 
ATOM     17  C   UNL     1      11.362  11.024  37.099  0.00  0.00    +0.000 C 
ATOM     18  C   UNL     1      11.649  10.705  38.571  0.00  0.00    +0.000 C 
ATOM     19  C   UNL     1      13.110  10.331  38.687  0.00  0.00    +0.000 C 
ENDBRANCH  13  14
ENDBRANCH  12  13
ENDBRANCH   2  12
TORSDOF 4
ENDMDL
MODEL 3
REMARK VINA RESULT:      -6.8      1.486      2.257
REMARK  Name = 
REMARK  4 active torsions:
REMARK  status: ('A' for Active; 'I' for Inactive)
REMARK    1  A    between atoms: C_5  and  N_6
REMARK    2  A    between atoms: C_7  and  O_9
REMARK    3  A    between atoms: O_9  and  N_10
REMARK    4  A    between atoms: N_10  and  C_11
REMARK                            x       y       z     vdW  Elec       q    Type
REMARK                         _______ _______ _______ _____ _____    ______ ____
ROOT
ATOM      1  N   UNL     1      17.592  10.917  36.255  0.00  0.00    +0.000 NA
ATOM      2  C   UNL     1      17.156  10.080  35.182  0.00  0.00    +0.000 C 
ATOM      3  O   UNL     1      17.237   8.816  35.244  0.00  0.00    +0.000 OA
ENDROOT
BRANCH   1   8
ATOM      4  C   UNL     1      19.447   8.646  41.148  0.00  0.00    +0.000 C 
ATOM      5  C   UNL     1      18.983   9.237  39.865  0.00  0.00    +0.000 A 
ATOM      6  C   UNL     1      19.849   9.437  38.811  0.00  0.00    +0.000 A 
ATOM      7  C   UNL     1      19.439   9.988  37.600  0.00  0.00    +0.000 A 
ATOM      8  C   UNL     1      18.135  10.347  37.437  0.00  0.00    +0.000 A 
ATOM      9  C   UNL     1      17.257  10.147  38.496  0.00  0.00    +0.000 A 
ATOM     10  C   UNL     1      17.662   9.606  39.687  0.00  0.00    +0.000 A 
ATOM     11 CL   UNL     1      16.481   9.394  40.961  0.00  0.00    +0.000 Cl
ENDBRANCH   1   8
BRANCH   2  12
ATOM     12  O   UNL     1      16.621  10.606  34.013  0.00  0.00    +0.000 OA
BRANCH  12  13
ATOM     13  N   UNL     1      15.597  11.521  34.067  0.00  0.00    +0.000 NA
BRANCH  13  14
ATOM     14  C   UNL     1      15.075  12.015  32.814  0.00  0.00    +0.000 C 
ATOM     15  C   UNL     1      14.344  13.111  32.772  0.00  0.00    +0.000 C 
ATOM     16  C   UNL     1      13.784  13.660  31.513  0.00  0.00    +0.000 C 
ATOM     17  C   UNL     1      14.670  13.194  30.380  0.00  0.00    +0.000 C 
ATOM     18  C   UNL     1      14.613  11.663  30.429  0.00  0.00    +0.000 C 
ATOM     19  C   UNL     1      15.424  11.206  31.621  0.00  0.00    +0.000 C 
ENDBRANCH  13  14
ENDBRANCH  12  13
ENDBRANCH   2  12
TORSDOF 4
ENDMDL
MODEL 4
REMARK VINA RESULT:      -6.5      2.356      3.234
REMARK  Name = 
REMARK  4 active torsions:
REMARK  status: ('A' for Active; 'I' for Inactive)
REMARK    1  A    between atoms: C_5  and  N_6
REMARK    2  A    between atoms: C_7  and  O_9
REMARK    3  A    between atoms: O_9  and  N_10
REMARK    4  A    between atoms: N_10  and  C_11
REMARK                            x       y       z     vdW  Elec       q    Type
REMARK                         _______ _______ _______ _____ _____    ______ ____
ROOT
ATOM      1  N   UNL     1      16.995  10.783  36.584  0.00  0.00    +0.000 NA
ATOM      2  C   UNL     1      16.677  11.192  35.252  0.00  0.00    +0.000 C 
ATOM      3  O   UNL     1      17.571  11.573  34.437  0.00  0.00    +0.000 OA
ENDROOT
BRANCH   1   8
ATOM      4  C   UNL     1      22.337  11.139  38.551  0.00  0.00    +0.000 C 
ATOM      5  C   UNL     1      20.949  11.028  38.030  0.00  0.00    +0.000 A 
ATOM      6  C   UNL     1      20.536   9.923  37.316  0.00  0.00    +0.000 A 
ATOM      7  C   UNL     1      19.243   9.796  36.817  0.00  0.00    +0.000 A 
ATOM      8  C   UNL     1      18.341  10.792  37.037  0.00  0.00    +0.000 A 
ATOM      9  C   UNL     1      18.751  11.909  37.757  0.00  0.00    +0.000 A 
ATOM     10  C   UNL     1      20.024  12.033  38.245  0.00  0.00    +0.000 A 
ATOM     11 CL   UNL     1      20.446  13.478  39.140  0.00  0.00    +0.000 Cl
ENDBRANCH   1   8
BRANCH   2  12
ATOM     12  O   UNL     1      15.370  11.195  34.778  0.00  0.00    +0.000 OA
BRANCH  12  13
ATOM     13  N   UNL     1      14.773  12.371  34.391  0.00  0.00    +0.000 NA
BRANCH  13  14
ATOM     14  C   UNL     1      14.572  12.584  32.977  0.00  0.00    +0.000 C 
ATOM     15  C   UNL     1      13.976  13.674  32.537  0.00  0.00    +0.000 C 
ATOM     16  C   UNL     1      13.745  13.942  31.097  0.00  0.00    +0.000 C 
ATOM     17  C   UNL     1      14.796  13.184  30.318  0.00  0.00    +0.000 C 
ATOM     18  C   UNL     1      14.582  11.710  30.683  0.00  0.00    +0.000 C 
ATOM     19  C   UNL     1      15.081  11.505  32.096  0.00  0.00    +0.000 C 
ENDBRANCH  13  14
ENDBRANCH  12  13
ENDBRANCH   2  12
TORSDOF 4
ENDMDL
MODEL 5
REMARK VINA RESULT:      -6.5      2.889      7.899
REMARK  Name = 
REMARK  4 active torsions:
REMARK  status: ('A' for Active; 'I' for Inactive)
REMARK    1  A    between atoms: C_5  and  N_6
REMARK    2  A    between atoms: C_7  and  O_9
REMARK    3  A    between atoms: O_9  and  N_10
REMARK    4  A    between atoms: N_10  and  C_11
REMARK                            x       y       z     vdW  Elec       q    Type
REMARK                         _______ _______ _______ _____ _____    ______ ____
ROOT
ATOM      1  N   UNL     1      15.559  10.806  35.457  0.00  0.00    +0.000 NA
ATOM      2  C   UNL     1      16.742  11.077  36.213  0.00  0.00    +0.000 C 
ATOM      3  O   UNL     1      17.444  12.113  36.009  0.00  0.00    +0.000 OA
ENDROOT
BRANCH   1   8
ATOM      4  C   UNL     1      13.686  14.609  31.640  0.00  0.00    +0.000 C 
ATOM      5  C   UNL     1      14.183  13.607  32.620  0.00  0.00    +0.000 A 
ATOM      6  C   UNL     1      14.936  12.524  32.220  0.00  0.00    +0.000 A 
ATOM      7  C   UNL     1      15.413  11.572  33.117  0.00  0.00    +0.000 A 
ATOM      8  C   UNL     1      15.133  11.705  34.443  0.00  0.00    +0.000 A 
ATOM      9  C   UNL     1      14.374  12.796  34.853  0.00  0.00    +0.000 A 
ATOM     10  C   UNL     1      13.905  13.730  33.969  0.00  0.00    +0.000 A 
ATOM     11 CL   UNL     1      12.957  15.069  34.582  0.00  0.00    +0.000 Cl
ENDBRANCH   1   8
BRANCH   2  12
ATOM     12  O   UNL     1      17.186  10.218  37.211  0.00  0.00    +0.000 OA
BRANCH  12  13
ATOM     13  N   UNL     1      17.210  10.629  38.522  0.00  0.00    +0.000 NA
BRANCH  13  14
ATOM     14  C   UNL     1      17.217   9.607  39.542  0.00  0.00    +0.000 C 
ATOM     15  C   UNL     1      16.275   9.565  40.463  0.00  0.00    +0.000 C 
ATOM     16  C   UNL     1      16.234   8.538  41.531  0.00  0.00    +0.000 C 
ATOM     17  C   UNL     1      16.964   7.317  41.017  0.00  0.00    +0.000 C 
ATOM     18  C   UNL     1      18.389   7.798  40.717  0.00  0.00    +0.000 C 
ATOM     19  C   UNL     1      18.339   8.641  39.463  0.00  0.00    +0.000 C 
ENDBRANCH  13  14
ENDBRANCH  12  13
ENDBRANCH   2  12
TORSDOF 4
ENDMDL
MODEL 6
REMARK VINA RESULT:      -6.4      3.035      7.821
REMARK  Name = 
REMARK  4 active torsions:
REMARK  status: ('A' for Active; 'I' for Inactive)
REMARK    1  A    between atoms: C_5  and  N_6
REMARK    2  A    between atoms: C_7  and  O_9
REMARK    3  A    between atoms: O_9  and  N_10
REMARK    4  A    between atoms: N_10  and  C_11
REMARK                            x       y       z     vdW  Elec       q    Type
REMARK                         _______ _______ _______ _____ _____    ______ ____
ROOT
ATOM      1  N   UNL     1      17.203  10.041  37.040  0.00  0.00    +0.000 NA
ATOM      2  C   UNL     1      18.043  10.845  37.871  0.00  0.00    +0.000 C 
ATOM      3  O   UNL     1      18.446  11.991  37.507  0.00  0.00    +0.000 OA
ENDROOT
BRANCH   1   8
ATOM      4  C   UNL     1      15.325  12.163  32.089  0.00  0.00    +0.000 C 
ATOM      5  C   UNL     1      15.827  11.597  33.369  0.00  0.00    +0.000 A 
ATOM      6  C   UNL     1      16.775  10.596  33.389  0.00  0.00    +0.000 A 
ATOM      7  C   UNL     1      17.260  10.049  34.574  0.00  0.00    +0.000 A 
ATOM      8  C   UNL     1      16.790  10.513  35.765  0.00  0.00    +0.000 A 
ATOM      9  C   UNL     1      15.834  11.523  35.751  0.00  0.00    +0.000 A 
ATOM     10  C   UNL     1      15.357  12.058  34.585  0.00  0.00    +0.000 A 
ATOM     11 CL   UNL     1      14.154  13.327  34.671  0.00  0.00    +0.000 Cl
ENDBRANCH   1   8
BRANCH   2  12
ATOM     12  O   UNL     1      18.465  10.412  39.123  0.00  0.00    +0.000 OA
BRANCH  12  13
ATOM     13  N   UNL     1      18.652   9.073  39.369  0.00  0.00    +0.000 NA
BRANCH  13  14
ATOM     14  C   UNL     1      17.713   8.418  40.248  0.00  0.00    +0.000 C 
ATOM     15  C   UNL     1      17.876   7.156  40.591  0.00  0.00    +0.000 C 
ATOM     16  C   UNL     1      16.942   6.435  41.489  0.00  0.00    +0.000 C 
ATOM     17  C   UNL     1      16.270   7.466  42.368  0.00  0.00    +0.000 C 
ATOM     18  C   UNL     1      15.545   8.408  41.400  0.00  0.00    +0.000 C 
ATOM     19  C   UNL     1      16.588   9.264  40.716  0.00  0.00    +0.000 C 
ENDBRANCH  13  14
ENDBRANCH  12  13
ENDBRANCH   2  12
TORSDOF 4
ENDMDL
MODEL 7
REMARK VINA RESULT:      -6.4     21.441     24.025
REMARK  Name = 
REMARK  4 active torsions:
REMARK  status: ('A' for Active; 'I' for Inactive)
REMARK    1  A    between atoms: C_5  and  N_6
REMARK    2  A    between atoms: C_7  and  O_9
REMARK    3  A    between atoms: O_9  and  N_10
REMARK    4  A    between atoms: N_10  and  C_11
REMARK                            x       y       z     vdW  Elec       q    Type
REMARK                         _______ _______ _______ _____ _____    ______ ____
ROOT
ATOM      1  N   UNL     1      29.200  23.935  21.452  0.00  0.00    +0.000 NA
ATOM      2  C   UNL     1      29.370  25.304  21.078  0.00  0.00    +0.000 C 
ATOM      3  O   UNL     1      29.104  26.254  21.875  0.00  0.00    +0.000 OA
ENDROOT
BRANCH   1   8
ATOM      4  C   UNL     1      27.624  22.518  26.747  0.00  0.00    +0.000 C 
ATOM      5  C   UNL     1      28.015  22.890  25.362  0.00  0.00    +0.000 A 
ATOM      6  C   UNL     1      27.073  23.253  24.422  0.00  0.00    +0.000 A 
ATOM      7  C   UNL     1      27.414  23.606  23.120  0.00  0.00    +0.000 A 
ATOM      8  C   UNL     1      28.723  23.597  22.746  0.00  0.00    +0.000 A 
ATOM      9  C   UNL     1      29.678  23.232  23.689  0.00  0.00    +0.000 A 
ATOM     10  C   UNL     1      29.341  22.884  24.969  0.00  0.00    +0.000 A 
ATOM     11 CL   UNL     1      30.615  22.440  26.085  0.00  0.00    +0.000 Cl
ENDBRANCH   1   8
BRANCH   2  12
ATOM     12  O   UNL     1      29.834  25.669  19.820  0.00  0.00    +0.000 OA
BRANCH  12  13
ATOM     13  N   UNL     1      30.212  26.966  19.567  0.00  0.00    +0.000 NA
BRANCH  13  14
ATOM     14  C   UNL     1      30.468  27.331  18.193  0.00  0.00    +0.000 C 
ATOM     15  C   UNL     1      29.657  26.944  17.229  0.00  0.00    +0.000 C 
ATOM     16  C   UNL     1      29.872  27.290  15.804  0.00  0.00    +0.000 C 
ATOM     17  C   UNL     1      30.677  28.570  15.763  0.00  0.00    +0.000 C 
ATOM     18  C   UNL     1      31.986  28.244  16.493  0.00  0.00    +0.000 C 
ATOM     19  C   UNL     1      31.682  28.154  17.972  0.00  0.00    +0.000 C 
ENDBRANCH  13  14
ENDBRANCH  12  13
ENDBRANCH   2  12
TORSDOF 4
ENDMDL
MODEL 8
REMARK VINA RESULT:      -6.4     21.418     24.037
REMARK  Name = 
REMARK  4 active torsions:
REMARK  status: ('A' for Active; 'I' for Inactive)
REMARK    1  A    between atoms: C_5  and  N_6
REMARK    2  A    between atoms: C_7  and  O_9
REMARK    3  A    between atoms: O_9  and  N_10
REMARK    4  A    between atoms: N_10  and  C_11
REMARK                            x       y       z     vdW  Elec       q    Type
REMARK                         _______ _______ _______ _____ _____    ______ ____
ROOT
ATOM      1  N   UNL     1      29.375  24.067  21.334  0.00  0.00    +0.000 NA
ATOM      2  C   UNL     1      29.479  25.435  20.934  0.00  0.00    +0.000 C 
ATOM      3  O   UNL     1      29.248  26.387  21.739  0.00  0.00    +0.000 OA
ENDROOT
BRANCH   1   8
ATOM      4  C   UNL     1      27.547  22.737  26.571  0.00  0.00    +0.000 C 
ATOM      5  C   UNL     1      28.042  23.083  25.213  0.00  0.00    +0.000 A 
ATOM      6  C   UNL     1      29.391  23.189  24.946  0.00  0.00    +0.000 A 
ATOM      7  C   UNL     1      29.881  23.511  23.683  0.00  0.00    +0.000 A 
ATOM      8  C   UNL     1      29.005  23.732  22.664  0.00  0.00    +0.000 A 
ATOM      9  C   UNL     1      27.644  23.626  22.926  0.00  0.00    +0.000 A 
ATOM     10  C   UNL     1      27.164  23.310  24.169  0.00  0.00    +0.000 A 
ATOM     11 CL   UNL     1      25.432  23.200  24.401  0.00  0.00    +0.000 Cl
ENDBRANCH   1   8
BRANCH   2  12
ATOM     12  O   UNL     1      29.839  25.795  19.641  0.00  0.00    +0.000 OA
BRANCH  12  13
ATOM     13  N   UNL     1      30.311  27.059  19.377  0.00  0.00    +0.000 NA
BRANCH  13  14
ATOM     14  C   UNL     1      30.060  27.605  18.064  0.00  0.00    +0.000 C 
ATOM     15  C   UNL     1      30.928  27.436  17.086  0.00  0.00    +0.000 C 
ATOM     16  C   UNL     1      30.720  27.974  15.720  0.00  0.00    +0.000 C 
ATOM     17  C   UNL     1      29.230  28.115  15.508  0.00  0.00    +0.000 C 
ATOM     18  C   UNL     1      28.758  29.083  16.599  0.00  0.00    +0.000 C 
ATOM     19  C   UNL     1      28.783  28.343  17.918  0.00  0.00    +0.000 C 
ENDBRANCH  13  14
ENDBRANCH  12  13
ENDBRANCH   2  12
TORSDOF 4
ENDMDL
MODEL 9
REMARK VINA RESULT:      -6.3     21.654     24.345
REMARK  Name = 
REMARK  4 active torsions:
REMARK  status: ('A' for Active; 'I' for Inactive)
REMARK    1  A    between atoms: C_5  and  N_6
REMARK    2  A    between atoms: C_7  and  O_9
REMARK    3  A    between atoms: O_9  and  N_10
REMARK    4  A    between atoms: N_10  and  C_11
REMARK                            x       y       z     vdW  Elec       q    Type
REMARK                         _______ _______ _______ _____ _____    ______ ____
ROOT
ATOM      1  N   UNL     1      29.482  24.467  20.928  0.00  0.00    +0.000 NA
ATOM      2  C   UNL     1      29.509  25.853  20.582  0.00  0.00    +0.000 C 
ATOM      3  O   UNL     1      28.973  26.737  21.317  0.00  0.00    +0.000 OA
ENDROOT
BRANCH   1   8
ATOM      4  C   UNL     1      27.244  22.714  25.874  0.00  0.00    +0.000 C 
ATOM      5  C   UNL     1      27.809  23.171  24.577  0.00  0.00    +0.000 A 
ATOM      6  C   UNL     1      26.996  23.454  23.499  0.00  0.00    +0.000 A 
ATOM      7  C   UNL     1      27.499  23.883  22.275  0.00  0.00    +0.000 A 
ATOM      8  C   UNL     1      28.844  24.036  22.122  0.00  0.00    +0.000 A 
ATOM      9  C   UNL     1      29.669  23.754  23.205  0.00  0.00    +0.000 A 
ATOM     10  C   UNL     1      29.172  23.329  24.408  0.00  0.00    +0.000 A 
ATOM     11 CL   UNL     1      30.292  22.999  25.713  0.00  0.00    +0.000 Cl
ENDBRANCH   1   8
BRANCH   2  12
ATOM     12  O   UNL     1      30.125  26.307  19.422  0.00  0.00    +0.000 OA
BRANCH  12  13
ATOM     13  N   UNL     1      30.054  27.635  19.071  0.00  0.00    +0.000 NA
BRANCH  13  14
ATOM     14  C   UNL     1      29.618  27.948  17.731  0.00  0.00    +0.000 C 
ATOM     15  C   UNL     1      28.900  29.027  17.490  0.00  0.00    +0.000 C 
ATOM     16  C   UNL     1      28.426  29.396  16.134  0.00  0.00    +0.000 C 
ATOM     17  C   UNL     1      29.379  28.779  15.136  0.00  0.00    +0.000 C 
ATOM     18  C   UNL     1      29.307  27.269  15.392  0.00  0.00    +0.000 C 
ATOM     19  C   UNL     1      30.037  26.983  16.686  0.00  0.00    +0.000 C 
ENDBRANCH  13  14
ENDBRANCH  12  13
ENDBRANCH   2  12
TORSDOF 4
ENDMDL
MODEL 10
REMARK VINA RESULT:      -6.2      3.859      7.218
REMARK  Name = 
REMARK  4 active torsions:
REMARK  status: ('A' for Active; 'I' for Inactive)
REMARK    1  A    between atoms: C_5  and  N_6
REMARK    2  A    between atoms: C_7  and  O_9
REMARK    3  A    between atoms: O_9  and  N_10
REMARK    4  A    between atoms: N_10  and  C_11
REMARK                            x       y       z     vdW  Elec       q    Type
REMARK                         _______ _______ _______ _____ _____    ______ ____
ROOT
ATOM      1  N   UNL     1      17.178  10.410  36.530  0.00  0.00    +0.000 NA
ATOM      2  C   UNL     1      18.089  11.149  37.346  0.00  0.00    +0.000 C 
ATOM      3  O   UNL     1      18.243  12.401  37.213  0.00  0.00    +0.000 OA
ENDROOT
BRANCH   1   8
ATOM      4  C   UNL     1      14.259  12.852  32.281  0.00  0.00    +0.000 C 
ATOM      5  C   UNL     1      15.010  12.227  33.402  0.00  0.00    +0.000 A 
ATOM      6  C   UNL     1      14.793  12.605  34.710  0.00  0.00    +0.000 A 
ATOM      7  C   UNL     1      15.483  12.036  35.777  0.00  0.00    +0.000 A 
ATOM      8  C   UNL     1      16.410  11.068  35.533  0.00  0.00    +0.000 A 
ATOM      9  C   UNL     1      16.632  10.682  34.215  0.00  0.00    +0.000 A 
ATOM     10  C   UNL     1      15.954  11.244  33.167  0.00  0.00    +0.000 A 
ATOM     11 CL   UNL     1      16.304  10.692  31.543  0.00  0.00    +0.000 Cl
ENDBRANCH   1   8
BRANCH   2  12
ATOM     12  O   UNL     1      18.855  10.536  38.330  0.00  0.00    +0.000 OA
BRANCH  12  13
ATOM     13  N   UNL     1      19.864   9.668  37.985  0.00  0.00    +0.000 NA
BRANCH  13  14
ATOM     14  C   UNL     1      21.147  10.238  37.646  0.00  0.00    +0.000 C 
ATOM     15  C   UNL     1      21.612  11.287  38.293  0.00  0.00    +0.000 C 
ATOM     16  C   UNL     1      22.922  11.911  37.986  0.00  0.00    +0.000 C 
ATOM     17  C   UNL     1      23.800  10.845  37.370  0.00  0.00    +0.000 C 
ATOM     18  C   UNL     1      23.055  10.391  36.109  0.00  0.00    +0.000 C 
ATOM     19  C   UNL     1      21.871   9.557  36.545  0.00  0.00    +0.000 C 
ENDBRANCH  13  14
ENDBRANCH  12  13
ENDBRANCH   2  12
TORSDOF 4
ENDMDL
