MODEL 1
REMARK VINA RESULT:      -7.2      0.000      0.000
REMARK  Name = 
REMARK  7 active torsions:
REMARK  status: ('A' for Active; 'I' for Inactive)
REMARK    1  A    between atoms: C_2  and  O_3
REMARK    2  A    between atoms: O_3  and  C_4
REMARK    3  A    between atoms: C_7  and  N_8
REMARK    4  A    between atoms: C_11  and  N_12
REMARK    5  A    between atoms: N_12  and  C_13
REMARK    6  A    between atoms: C_21  and  S_22
REMARK    7  A    between atoms: S_22  and  C_23
REMARK                            x       y       z     vdW  Elec       q    Type
REMARK                         _______ _______ _______ _____ _____    ______ ____
ROOT
ATOM      1  N   UNL     1      38.275   4.103  16.102  0.00  0.00    +0.000 N 
ATOM      2  C   UNL     1      39.083   3.819  14.955  0.00  0.00    +0.000 C 
ATOM      3  O   UNL     1      40.095   4.487  14.621  0.00  0.00    +0.000 OA
ATOM      4  C   UNL     1      38.518   2.637  14.266  0.00  0.00    +0.000 C 
ATOM      5  C   UNL     1      37.455   2.228  14.930  0.00  0.00    +0.000 C 
ATOM      6  C   UNL     1      37.265   3.105  16.075  0.00  0.00    +0.000 C 
ATOM      7  O   UNL     1      36.359   3.045  16.955  0.00  0.00    +0.000 OA
ENDROOT
BRANCH   1  11
ATOM      8  C   UNL     1      38.913   7.301  18.811  0.00  0.00    +0.000 A 
ATOM      9  C   UNL     1      38.355   7.497  17.563  0.00  0.00    +0.000 A 
ATOM     10  C   UNL     1      38.145   6.461  16.676  0.00  0.00    +0.000 A 
ATOM     11  C   UNL     1      38.495   5.165  17.019  0.00  0.00    +0.000 A 
ATOM     12  C   UNL     1      39.049   4.951  18.250  0.00  0.00    +0.000 A 
ATOM     13  C   UNL     1      39.256   6.002  19.135  0.00  0.00    +0.000 A 
BRANCH   8  14
ATOM     14  O   UNL     1      39.089   8.387  19.636  0.00  0.00    +0.000 OA
BRANCH  14  16
ATOM     15  C   UNL     1      38.581  10.170  21.093  0.00  0.00    +0.000 C 
ATOM     16  C   UNL     1      38.276   8.734  20.716  0.00  0.00    +0.000 C 
ENDBRANCH  14  16
ENDBRANCH   8  14
ENDBRANCH   1  11
BRANCH   4  17
ATOM     17  N   UNL     1      39.123   2.127  13.086  0.00  0.00    +0.000 NA
BRANCH  17  18
ATOM     18  C   UNL     1      39.790   0.848  13.114  0.00  0.00    +0.000 A 
ATOM     19  C   UNL     1      40.676   0.589  14.156  0.00  0.00    +0.000 A 
ATOM     20  C   UNL     1      41.315  -0.629  14.191  0.00  0.00    +0.000 A 
ATOM     21  C   UNL     1      41.095  -1.593  13.223  0.00  0.00    +0.000 A 
ATOM     22  C   UNL     1      41.822  -2.888  13.326  0.00  0.00    +0.000 C 
ATOM     23  C   UNL     1      40.218  -1.287  12.226  0.00  0.00    +0.000 A 
ATOM     24  C   UNL     1      39.554  -0.082  12.147  0.00  0.00    +0.000 A 
ATOM     25  C   UNL     1      38.597   0.217  11.030  0.00  0.00    +0.000 C 
ENDBRANCH  17  18
ENDBRANCH   4  17
BRANCH   5  26
ATOM     26  S   UNL     1      36.431   0.839  14.498  0.00  0.00    +0.000 S 
BRANCH  26  27
ATOM     27  C   UNL     1      37.221  -0.707  14.901  0.00  0.00    +0.000 A 
ATOM     28  C   UNL     1      38.004  -0.842  16.022  0.00  0.00    +0.000 A 
ATOM     29  C   UNL     1      38.613  -2.057  16.312  0.00  0.00    +0.000 A 
ATOM     30  C   UNL     1      38.451  -3.150  15.489  0.00  0.00    +0.000 A 
ATOM     31  C   UNL     1      37.662  -3.032  14.348  0.00  0.00    +0.000 A 
ATOM     32  C   UNL     1      37.072  -1.813  14.092  0.00  0.00    +0.000 A 
ENDBRANCH  26  27
ENDBRANCH   5  26
TORSDOF 7
ENDMDL
MODEL 2
REMARK VINA RESULT:      -6.9      3.412      9.045
REMARK  Name = 
REMARK  7 active torsions:
REMARK  status: ('A' for Active; 'I' for Inactive)
REMARK    1  A    between atoms: C_2  and  O_3
REMARK    2  A    between atoms: O_3  and  C_4
REMARK    3  A    between atoms: C_7  and  N_8
REMARK    4  A    between atoms: C_11  and  N_12
REMARK    5  A    between atoms: N_12  and  C_13
REMARK    6  A    between atoms: C_21  and  S_22
REMARK    7  A    between atoms: S_22  and  C_23
REMARK                            x       y       z     vdW  Elec       q    Type
REMARK                         _______ _______ _______ _____ _____    ______ ____
ROOT
ATOM      1  N   UNL     1      36.695   3.486  15.477  0.00  0.00    +0.000 N 
ATOM      2  C   UNL     1      35.993   4.477  14.720  0.00  0.00    +0.000 C 
ATOM      3  O   UNL     1      34.871   4.291  14.183  0.00  0.00    +0.000 OA
ATOM      4  C   UNL     1      36.810   5.710  14.693  0.00  0.00    +0.000 C 
ATOM      5  C   UNL     1      37.919   5.499  15.374  0.00  0.00    +0.000 C 
ATOM      6  C   UNL     1      37.893   4.135  15.878  0.00  0.00    +0.000 C 
ATOM      7  O   UNL     1      38.771   3.551  16.577  0.00  0.00    +0.000 OA
ENDROOT
BRANCH   1  11
ATOM      8  C   UNL     1      35.352  -0.470  16.200  0.00  0.00    +0.000 A 
ATOM      9  C   UNL     1      36.279  -0.178  15.220  0.00  0.00    +0.000 A 
ATOM     10  C   UNL     1      36.721   1.107  14.979  0.00  0.00    +0.000 A 
ATOM     11  C   UNL     1      36.236   2.166  15.730  0.00  0.00    +0.000 A 
ATOM     12  C   UNL     1      35.317   1.897  16.705  0.00  0.00    +0.000 A 
ATOM     13  C   UNL     1      34.879   0.599  16.939  0.00  0.00    +0.000 A 
BRANCH   8  14
ATOM     14  O   UNL     1      34.964  -1.776  16.377  0.00  0.00    +0.000 OA
BRANCH  14  16
ATOM     15  C   UNL     1      34.809  -3.682  14.996  0.00  0.00    +0.000 C 
ATOM     16  C   UNL     1      35.676  -2.904  15.966  0.00  0.00    +0.000 C 
ENDBRANCH  14  16
ENDBRANCH   8  14
ENDBRANCH   1  11
BRANCH   4  17
ATOM     17  N   UNL     1      36.354   6.868  14.006  0.00  0.00    +0.000 NA
BRANCH  17  18
ATOM     18  C   UNL     1      35.608   7.879  14.716  0.00  0.00    +0.000 A 
ATOM     19  C   UNL     1      36.297   8.713  15.592  0.00  0.00    +0.000 A 
ATOM     20  C   UNL     1      35.593   9.682  16.271  0.00  0.00    +0.000 A 
ATOM     21  C   UNL     1      34.229   9.841  16.102  0.00  0.00    +0.000 A 
ATOM     22  C   UNL     1      33.534  10.911  16.871  0.00  0.00    +0.000 C 
ATOM     23  C   UNL     1      33.605   8.998  15.232  0.00  0.00    +0.000 A 
ATOM     24  C   UNL     1      34.266   8.013  14.529  0.00  0.00    +0.000 A 
ATOM     25  C   UNL     1      33.541   7.102  13.583  0.00  0.00    +0.000 C 
ENDBRANCH  17  18
ENDBRANCH   4  17
BRANCH   5  26
ATOM     26  S   UNL     1      39.222   6.682  15.631  0.00  0.00    +0.000 S 
BRANCH  26  27
ATOM     27  C   UNL     1      39.847   6.615  17.299  0.00  0.00    +0.000 A 
ATOM     28  C   UNL     1      39.004   6.644  18.383  0.00  0.00    +0.000 A 
ATOM     29  C   UNL     1      39.516   6.594  19.674  0.00  0.00    +0.000 A 
ATOM     30  C   UNL     1      40.873   6.516  19.900  0.00  0.00    +0.000 A 
ATOM     31  C   UNL     1      41.743   6.486  18.814  0.00  0.00    +0.000 A 
ATOM     32  C   UNL     1      41.201   6.536  17.548  0.00  0.00    +0.000 A 
ENDBRANCH  26  27
ENDBRANCH   5  26
TORSDOF 7
ENDMDL
MODEL 3
REMARK VINA RESULT:      -6.8      3.728      8.656
REMARK  Name = 
REMARK  7 active torsions:
REMARK  status: ('A' for Active; 'I' for Inactive)
REMARK    1  A    between atoms: C_2  and  O_3
REMARK    2  A    between atoms: O_3  and  C_4
REMARK    3  A    between atoms: C_7  and  N_8
REMARK    4  A    between atoms: C_11  and  N_12
REMARK    5  A    between atoms: N_12  and  C_13
REMARK    6  A    between atoms: C_21  and  S_22
REMARK    7  A    between atoms: S_22  and  C_23
REMARK                            x       y       z     vdW  Elec       q    Type
REMARK                         _______ _______ _______ _____ _____    ______ ____
ROOT
ATOM      1  N   UNL     1      36.655   1.984  15.176  0.00  0.00    +0.000 N 
ATOM      2  C   UNL     1      35.727   3.049  14.947  0.00  0.00    +0.000 C 
ATOM      3  O   UNL     1      34.482   2.895  14.861  0.00  0.00    +0.000 OA
ATOM      4  C   UNL     1      36.486   4.314  14.833  0.00  0.00    +0.000 C 
ATOM      5  C   UNL     1      37.770   4.053  14.980  0.00  0.00    +0.000 C 
ATOM      6  C   UNL     1      37.923   2.622  15.195  0.00  0.00    +0.000 C 
ATOM      7  O   UNL     1      38.996   1.977  15.378  0.00  0.00    +0.000 OA
ENDROOT
BRANCH   1  11
ATOM      8  C   UNL     1      35.606  -2.090  15.702  0.00  0.00    +0.000 A 
ATOM      9  C   UNL     1      35.203  -1.109  16.587  0.00  0.00    +0.000 A 
ATOM     10  C   UNL     1      35.540   0.219  16.422  0.00  0.00    +0.000 A 
ATOM     11  C   UNL     1      36.311   0.615  15.340  0.00  0.00    +0.000 A 
ATOM     12  C   UNL     1      36.720  -0.342  14.454  0.00  0.00    +0.000 A 
ATOM     13  C   UNL     1      36.374  -1.676  14.630  0.00  0.00    +0.000 A 
BRANCH   8  14
ATOM     14  O   UNL     1      35.227  -3.390  15.938  0.00  0.00    +0.000 OA
BRANCH  14  16
ATOM     15  C   UNL     1      34.786  -5.508  15.000  0.00  0.00    +0.000 C 
ATOM     16  C   UNL     1      34.263  -4.104  15.225  0.00  0.00    +0.000 C 
ENDBRANCH  14  16
ENDBRANCH   8  14
ENDBRANCH   1  11
BRANCH   4  17
ATOM     17  N   UNL     1      35.815   5.545  14.602  0.00  0.00    +0.000 NA
BRANCH  17  18
ATOM     18  C   UNL     1      35.490   5.946  13.255  0.00  0.00    +0.000 A 
ATOM     19  C   UNL     1      36.271   5.452  12.213  0.00  0.00    +0.000 A 
ATOM     20  C   UNL     1      35.966   5.828  10.925  0.00  0.00    +0.000 A 
ATOM     21  C   UNL     1      34.909   6.676  10.647  0.00  0.00    +0.000 A 
ATOM     22  C   UNL     1      34.639   7.039   9.228  0.00  0.00    +0.000 C 
ATOM     23  C   UNL     1      34.178   7.129  11.704  0.00  0.00    +0.000 A 
ATOM     24  C   UNL     1      34.443   6.782  13.011  0.00  0.00    +0.000 A 
ATOM     25  C   UNL     1      33.615   7.306  14.147  0.00  0.00    +0.000 C 
ENDBRANCH  17  18
ENDBRANCH   4  17
BRANCH   5  26
ATOM     26  S   UNL     1      39.087   5.247  14.926  0.00  0.00    +0.000 S 
BRANCH  26  27
ATOM     27  C   UNL     1      39.681   5.640  16.560  0.00  0.00    +0.000 A 
ATOM     28  C   UNL     1      38.912   5.416  17.675  0.00  0.00    +0.000 A 
ATOM     29  C   UNL     1      39.397   5.736  18.938  0.00  0.00    +0.000 A 
ATOM     30  C   UNL     1      40.651   6.283  19.104  0.00  0.00    +0.000 A 
ATOM     31  C   UNL     1      41.444   6.518  17.985  0.00  0.00    +0.000 A 
ATOM     32  C   UNL     1      40.933   6.188  16.748  0.00  0.00    +0.000 A 
ENDBRANCH  26  27
ENDBRANCH   5  26
TORSDOF 7
ENDMDL
MODEL 4
REMARK VINA RESULT:      -6.8      3.496      8.416
REMARK  Name = 
REMARK  7 active torsions:
REMARK  status: ('A' for Active; 'I' for Inactive)
REMARK    1  A    between atoms: C_2  and  O_3
REMARK    2  A    between atoms: O_3  and  C_4
REMARK    3  A    between atoms: C_7  and  N_8
REMARK    4  A    between atoms: C_11  and  N_12
REMARK    5  A    between atoms: N_12  and  C_13
REMARK    6  A    between atoms: C_21  and  S_22
REMARK    7  A    between atoms: S_22  and  C_23
REMARK                            x       y       z     vdW  Elec       q    Type
REMARK                         _______ _______ _______ _____ _____    ______ ____
ROOT
ATOM      1  N   UNL     1      36.517   1.929  15.088  0.00  0.00    +0.000 N 
ATOM      2  C   UNL     1      37.810   2.538  15.170  0.00  0.00    +0.000 C 
ATOM      3  O   UNL     1      38.873   1.909  15.408  0.00  0.00    +0.000 OA
ATOM      4  C   UNL     1      37.659   3.991  14.932  0.00  0.00    +0.000 C 
ATOM      5  C   UNL     1      36.385   4.256  14.721  0.00  0.00    +0.000 C 
ATOM      6  C   UNL     1      35.638   3.010  14.808  0.00  0.00    +0.000 C 
ATOM      7  O   UNL     1      34.393   2.841  14.666  0.00  0.00    +0.000 OA
ENDROOT
BRANCH   1  11
ATOM      8  C   UNL     1      35.737  -2.211  15.563  0.00  0.00    +0.000 A 
ATOM      9  C   UNL     1      36.480  -1.720  14.507  0.00  0.00    +0.000 A 
ATOM     10  C   UNL     1      36.738  -0.374  14.346  0.00  0.00    +0.000 A 
ATOM     11  C   UNL     1      36.248   0.545  15.260  0.00  0.00    +0.000 A 
ATOM     12  C   UNL     1      35.510   0.080  16.312  0.00  0.00    +0.000 A 
ATOM     13  C   UNL     1      35.257  -1.278  16.464  0.00  0.00    +0.000 A 
BRANCH   8  14
ATOM     14  O   UNL     1      35.526  -3.566  15.651  0.00  0.00    +0.000 OA
BRANCH  14  16
ATOM     15  C   UNL     1      33.476  -4.411  14.848  0.00  0.00    +0.000 C 
ATOM     16  C   UNL     1      34.978  -4.375  14.654  0.00  0.00    +0.000 C 
ENDBRANCH  14  16
ENDBRANCH   8  14
ENDBRANCH   1  11
BRANCH   4  17
ATOM     17  N   UNL     1      38.789   4.852  14.954  0.00  0.00    +0.000 NA
BRANCH  17  18
ATOM     18  C   UNL     1      39.345   5.276  16.216  0.00  0.00    +0.000 A 
ATOM     19  C   UNL     1      38.638   4.987  17.379  0.00  0.00    +0.000 A 
ATOM     20  C   UNL     1      39.163   5.387  18.587  0.00  0.00    +0.000 A 
ATOM     21  C   UNL     1      40.368   6.062  18.667  0.00  0.00    +0.000 A 
ATOM     22  C   UNL     1      40.874   6.463  20.009  0.00  0.00    +0.000 C 
ATOM     23  C   UNL     1      41.019   6.318  17.498  0.00  0.00    +0.000 A 
ATOM     24  C   UNL     1      40.534   5.939  16.265  0.00  0.00    +0.000 A 
ATOM     25  C   UNL     1      41.281   6.243  14.999  0.00  0.00    +0.000 C 
ENDBRANCH  17  18
ENDBRANCH   4  17
BRANCH   5  26
ATOM     26  S   UNL     1      35.697   5.862  14.386  0.00  0.00    +0.000 S 
BRANCH  26  27
ATOM     27  C   UNL     1      35.463   6.122  12.638  0.00  0.00    +0.000 A 
ATOM     28  C   UNL     1      34.501   6.979  12.163  0.00  0.00    +0.000 A 
ATOM     29  C   UNL     1      34.335   7.161  10.795  0.00  0.00    +0.000 A 
ATOM     30  C   UNL     1      35.125   6.491   9.886  0.00  0.00    +0.000 A 
ATOM     31  C   UNL     1      36.104   5.618  10.349  0.00  0.00    +0.000 A 
ATOM     32  C   UNL     1      36.242   5.462  11.711  0.00  0.00    +0.000 A 
ENDBRANCH  26  27
ENDBRANCH   5  26
TORSDOF 7
ENDMDL
MODEL 5
REMARK VINA RESULT:      -6.7      1.244      3.499
REMARK  Name = 
REMARK  7 active torsions:
REMARK  status: ('A' for Active; 'I' for Inactive)
REMARK    1  A    between atoms: C_2  and  O_3
REMARK    2  A    between atoms: O_3  and  C_4
REMARK    3  A    between atoms: C_7  and  N_8
REMARK    4  A    between atoms: C_11  and  N_12
REMARK    5  A    between atoms: N_12  and  C_13
REMARK    6  A    between atoms: C_21  and  S_22
REMARK    7  A    between atoms: S_22  and  C_23
REMARK                            x       y       z     vdW  Elec       q    Type
REMARK                         _______ _______ _______ _____ _____    ______ ____
ROOT
ATOM      1  N   UNL     1      38.380   4.138  16.148  0.00  0.00    +0.000 N 
ATOM      2  C   UNL     1      37.504   3.016  16.298  0.00  0.00    +0.000 C 
ATOM      3  O   UNL     1      36.771   2.821  17.301  0.00  0.00    +0.000 OA
ATOM      4  C   UNL     1      37.625   2.165  15.094  0.00  0.00    +0.000 C 
ATOM      5  C   UNL     1      38.498   2.713  14.273  0.00  0.00    +0.000 C 
ATOM      6  C   UNL     1      38.993   3.937  14.883  0.00  0.00    +0.000 C 
ATOM      7  O   UNL     1      39.841   4.750  14.413  0.00  0.00    +0.000 OA
ENDROOT
BRANCH   1  11
ATOM      8  C   UNL     1      38.856   7.285  18.950  0.00  0.00    +0.000 A 
ATOM      9  C   UNL     1      38.210   7.468  17.743  0.00  0.00    +0.000 A 
ATOM     10  C   UNL     1      38.051   6.449  16.826  0.00  0.00    +0.000 A 
ATOM     11  C   UNL     1      38.547   5.183  17.096  0.00  0.00    +0.000 A 
ATOM     12  C   UNL     1      39.189   4.982  18.285  0.00  0.00    +0.000 A 
ATOM     13  C   UNL     1      39.343   6.016  19.200  0.00  0.00    +0.000 A 
BRANCH   8  14
ATOM     14  O   UNL     1      38.972   8.352  19.807  0.00  0.00    +0.000 OA
BRANCH  14  16
ATOM     15  C   UNL     1      38.490  10.246  21.127  0.00  0.00    +0.000 C 
ATOM     16  C   UNL     1      37.914   9.059  20.383  0.00  0.00    +0.000 C 
ENDBRANCH  14  16
ENDBRANCH   8  14
ENDBRANCH   1  11
BRANCH   4  17
ATOM     17  N   UNL     1      36.863   0.971  14.969  0.00  0.00    +0.000 NA
BRANCH  17  18
ATOM     18  C   UNL     1      37.238  -0.203  15.718  0.00  0.00    +0.000 A 
ATOM     19  C   UNL     1      38.501  -0.747  15.503  0.00  0.00    +0.000 A 
ATOM     20  C   UNL     1      38.867  -1.867  16.215  0.00  0.00    +0.000 A 
ATOM     21  C   UNL     1      38.015  -2.455  17.131  0.00  0.00    +0.000 A 
ATOM     22  C   UNL     1      38.479  -3.665  17.865  0.00  0.00    +0.000 C 
ATOM     23  C   UNL     1      36.790  -1.882  17.303  0.00  0.00    +0.000 A 
ATOM     24  C   UNL     1      36.378  -0.762  16.614  0.00  0.00    +0.000 A 
ATOM     25  C   UNL     1      35.019  -0.162  16.830  0.00  0.00    +0.000 C 
ENDBRANCH  17  18
ENDBRANCH   4  17
BRANCH   5  26
ATOM     26  S   UNL     1      38.986   2.066  12.689  0.00  0.00    +0.000 S 
BRANCH  26  27
ATOM     27  C   UNL     1      40.141   0.719  12.862  0.00  0.00    +0.000 A 
ATOM     28  C   UNL     1      41.199   0.788  13.736  0.00  0.00    +0.000 A 
ATOM     29  C   UNL     1      42.088  -0.275  13.848  0.00  0.00    +0.000 A 
ATOM     30  C   UNL     1      41.935  -1.416  13.092  0.00  0.00    +0.000 A 
ATOM     31  C   UNL     1      40.869  -1.504  12.200  0.00  0.00    +0.000 A 
ATOM     32  C   UNL     1      40.007  -0.433  12.115  0.00  0.00    +0.000 A 
ENDBRANCH  26  27
ENDBRANCH   5  26
TORSDOF 7
ENDMDL
MODEL 6
REMARK VINA RESULT:      -6.5      1.285      3.112
REMARK  Name = 
REMARK  7 active torsions:
REMARK  status: ('A' for Active; 'I' for Inactive)
REMARK    1  A    between atoms: C_2  and  O_3
REMARK    2  A    between atoms: O_3  and  C_4
REMARK    3  A    between atoms: C_7  and  N_8
REMARK    4  A    between atoms: C_11  and  N_12
REMARK    5  A    between atoms: N_12  and  C_13
REMARK    6  A    between atoms: C_21  and  S_22
REMARK    7  A    between atoms: S_22  and  C_23
REMARK                            x       y       z     vdW  Elec       q    Type
REMARK                         _______ _______ _______ _____ _____    ______ ____
ROOT
ATOM      1  N   UNL     1      38.632   4.847  16.211  0.00  0.00    +0.000 N 
ATOM      2  C   UNL     1      37.540   3.957  15.960  0.00  0.00    +0.000 C 
ATOM      3  O   UNL     1      36.534   3.846  16.706  0.00  0.00    +0.000 OA
ATOM      4  C   UNL     1      37.815   3.221  14.705  0.00  0.00    +0.000 C 
ATOM      5  C   UNL     1      38.975   3.623  14.224  0.00  0.00    +0.000 C 
ATOM      6  C   UNL     1      39.519   4.629  15.123  0.00  0.00    +0.000 C 
ATOM      7  O   UNL     1      40.611   5.258  15.012  0.00  0.00    +0.000 OA
ENDROOT
BRANCH   1  11
ATOM      8  C   UNL     1      38.975   7.437  19.550  0.00  0.00    +0.000 A 
ATOM      9  C   UNL     1      39.547   6.180  19.534  0.00  0.00    +0.000 A 
ATOM     10  C   UNL     1      39.439   5.332  18.451  0.00  0.00    +0.000 A 
ATOM     11  C   UNL     1      38.738   5.725  17.322  0.00  0.00    +0.000 A 
ATOM     12  C   UNL     1      38.165   6.966  17.318  0.00  0.00    +0.000 A 
ATOM     13  C   UNL     1      38.280   7.811  18.414  0.00  0.00    +0.000 A 
BRANCH   8  14
ATOM     14  O   UNL     1      39.129   8.221  20.668  0.00  0.00    +0.000 OA
BRANCH  14  16
ATOM     15  C   UNL     1      39.707  10.502  20.833  0.00  0.00    +0.000 C 
ATOM     16  C   UNL     1      38.579   9.490  20.860  0.00  0.00    +0.000 C 
ENDBRANCH  14  16
ENDBRANCH   8  14
ENDBRANCH   1  11
BRANCH   4  17
ATOM     17  N   UNL     1      36.892   2.261  14.209  0.00  0.00    +0.000 NA
BRANCH  17  18
ATOM     18  C   UNL     1      37.156   0.853  14.382  0.00  0.00    +0.000 A 
ATOM     19  C   UNL     1      37.468   0.392  15.658  0.00  0.00    +0.000 A 
ATOM     20  C   UNL     1      37.718  -0.950  15.831  0.00  0.00    +0.000 A 
ATOM     21  C   UNL     1      37.666  -1.841  14.774  0.00  0.00    +0.000 A 
ATOM     22  C   UNL     1      37.949  -3.279  15.037  0.00  0.00    +0.000 C 
ATOM     23  C   UNL     1      37.356  -1.336  13.547  0.00  0.00    +0.000 A 
ATOM     24  C   UNL     1      37.097  -0.001  13.323  0.00  0.00    +0.000 A 
ATOM     25  C   UNL     1      36.762   0.516  11.954  0.00  0.00    +0.000 C 
ENDBRANCH  17  18
ENDBRANCH   4  17
BRANCH   5  26
ATOM     26  S   UNL     1      39.741   3.034  12.731  0.00  0.00    +0.000 S 
BRANCH  26  27
ATOM     27  C   UNL     1      40.309   1.353  12.906  0.00  0.00    +0.000 A 
ATOM     28  C   UNL     1      40.709   0.854  14.121  0.00  0.00    +0.000 A 
ATOM     29  C   UNL     1      41.152  -0.459  14.230  0.00  0.00    +0.000 A 
ATOM     30  C   UNL     1      41.202  -1.289  13.132  0.00  0.00    +0.000 A 
ATOM     31  C   UNL     1      40.801  -0.800  11.891  0.00  0.00    +0.000 A 
ATOM     32  C   UNL     1      40.367   0.506  11.819  0.00  0.00    +0.000 A 
ENDBRANCH  26  27
ENDBRANCH   5  26
TORSDOF 7
ENDMDL
MODEL 7
REMARK VINA RESULT:      -6.5      3.603      5.755
REMARK  Name = 
REMARK  7 active torsions:
REMARK  status: ('A' for Active; 'I' for Inactive)
REMARK    1  A    between atoms: C_2  and  O_3
REMARK    2  A    between atoms: O_3  and  C_4
REMARK    3  A    between atoms: C_7  and  N_8
REMARK    4  A    between atoms: C_11  and  N_12
REMARK    5  A    between atoms: N_12  and  C_13
REMARK    6  A    between atoms: C_21  and  S_22
REMARK    7  A    between atoms: S_22  and  C_23
REMARK                            x       y       z     vdW  Elec       q    Type
REMARK                         _______ _______ _______ _____ _____    ______ ____
ROOT
ATOM      1  N   UNL     1      38.383   5.354  16.026  0.00  0.00    +0.000 N 
ATOM      2  C   UNL     1      38.079   4.027  15.587  0.00  0.00    +0.000 C 
ATOM      3  O   UNL     1      38.751   3.010  15.897  0.00  0.00    +0.000 OA
ATOM      4  C   UNL     1      36.873   4.081  14.731  0.00  0.00    +0.000 C 
ATOM      5  C   UNL     1      36.468   5.333  14.649  0.00  0.00    +0.000 C 
ATOM      6  C   UNL     1      37.371   6.159  15.435  0.00  0.00    +0.000 C 
ATOM      7  O   UNL     1      37.323   7.410  15.611  0.00  0.00    +0.000 OA
ENDROOT
BRANCH   1  11
ATOM      8  C   UNL     1      41.653   6.437  18.497  0.00  0.00    +0.000 A 
ATOM      9  C   UNL     1      41.747   6.425  17.119  0.00  0.00    +0.000 A 
ATOM     10  C   UNL     1      40.687   6.074  16.309  0.00  0.00    +0.000 A 
ATOM     11  C   UNL     1      39.470   5.714  16.867  0.00  0.00    +0.000 A 
ATOM     12  C   UNL     1      39.357   5.720  18.228  0.00  0.00    +0.000 A 
ATOM     13  C   UNL     1      40.432   6.075  19.034  0.00  0.00    +0.000 A 
BRANCH   8  14
ATOM     14  O   UNL     1      42.756   6.799  19.233  0.00  0.00    +0.000 OA
BRANCH  14  16
ATOM     15  C   UNL     1      43.297   6.017  21.391  0.00  0.00    +0.000 C 
ATOM     16  C   UNL     1      42.756   7.175  20.577  0.00  0.00    +0.000 C 
ENDBRANCH  14  16
ENDBRANCH   8  14
ENDBRANCH   1  11
BRANCH   4  17
ATOM     17  N   UNL     1      36.341   2.898  14.151  0.00  0.00    +0.000 NA
BRANCH  17  18
ATOM     18  C   UNL     1      35.922   1.807  14.997  0.00  0.00    +0.000 A 
ATOM     19  C   UNL     1      35.101   2.093  16.084  0.00  0.00    +0.000 A 
ATOM     20  C   UNL     1      34.696   1.058  16.895  0.00  0.00    +0.000 A 
ATOM     21  C   UNL     1      35.083  -0.248  16.653  0.00  0.00    +0.000 A 
ATOM     22  C   UNL     1      34.606  -1.317  17.574  0.00  0.00    +0.000 C 
ATOM     23  C   UNL     1      35.887  -0.472  15.575  0.00  0.00    +0.000 A 
ATOM     24  C   UNL     1      36.319   0.531  14.735  0.00  0.00    +0.000 A 
ATOM     25  C   UNL     1      37.206   0.243  13.559  0.00  0.00    +0.000 C 
ENDBRANCH  17  18
ENDBRANCH   4  17
BRANCH   5  26
ATOM     26  S   UNL     1      35.056   5.911  13.735  0.00  0.00    +0.000 S 
BRANCH  26  27
ATOM     27  C   UNL     1      35.414   6.044  11.994  0.00  0.00    +0.000 A 
ATOM     28  C   UNL     1      34.746   6.935  11.190  0.00  0.00    +0.000 A 
ATOM     29  C   UNL     1      35.041   7.016   9.833  0.00  0.00    +0.000 A 
ATOM     30  C   UNL     1      36.003   6.210   9.264  0.00  0.00    +0.000 A 
ATOM     31  C   UNL     1      36.690   5.301  10.063  0.00  0.00    +0.000 A 
ATOM     32  C   UNL     1      36.373   5.248  11.403  0.00  0.00    +0.000 A 
ENDBRANCH  26  27
ENDBRANCH   5  26
TORSDOF 7
ENDMDL
MODEL 8
REMARK VINA RESULT:      -6.4     27.219     29.366
REMARK  Name = 
REMARK  7 active torsions:
REMARK  status: ('A' for Active; 'I' for Inactive)
REMARK    1  A    between atoms: C_2  and  O_3
REMARK    2  A    between atoms: O_3  and  C_4
REMARK    3  A    between atoms: C_7  and  N_8
REMARK    4  A    between atoms: C_11  and  N_12
REMARK    5  A    between atoms: N_12  and  C_13
REMARK    6  A    between atoms: C_21  and  S_22
REMARK    7  A    between atoms: S_22  and  C_23
REMARK                            x       y       z     vdW  Elec       q    Type
REMARK                         _______ _______ _______ _____ _____    ______ ____
ROOT
ATOM      1  N   UNL     1      26.657  15.156  38.317  0.00  0.00    +0.000 N 
ATOM      2  C   UNL     1      25.872  14.430  39.267  0.00  0.00    +0.000 C 
ATOM      3  O   UNL     1      24.656  14.146  39.109  0.00  0.00    +0.000 OA
ATOM      4  C   UNL     1      26.731  14.093  40.424  0.00  0.00    +0.000 C 
ATOM      5  C   UNL     1      27.940  14.569  40.207  0.00  0.00    +0.000 C 
ATOM      6  C   UNL     1      27.944  15.236  38.914  0.00  0.00    +0.000 C 
ATOM      7  O   UNL     1      28.911  15.819  38.345  0.00  0.00    +0.000 OA
ENDROOT
BRANCH   1  11
ATOM      8  C   UNL     1      25.243  16.684  34.623  0.00  0.00    +0.000 A 
ATOM      9  C   UNL     1      25.076  17.366  35.812  0.00  0.00    +0.000 A 
ATOM     10  C   UNL     1      25.533  16.875  37.018  0.00  0.00    +0.000 A 
ATOM     11  C   UNL     1      26.189  15.655  37.072  0.00  0.00    +0.000 A 
ATOM     12  C   UNL     1      26.363  14.964  35.906  0.00  0.00    +0.000 A 
ATOM     13  C   UNL     1      25.899  15.468  34.698  0.00  0.00    +0.000 A 
BRANCH   8  14
ATOM     14  O   UNL     1      24.758  17.242  33.465  0.00  0.00    +0.000 OA
BRANCH  14  16
ATOM     15  C   UNL     1      24.086  18.771  31.800  0.00  0.00    +0.000 C 
ATOM     16  C   UNL     1      24.664  18.607  33.191  0.00  0.00    +0.000 C 
ENDBRANCH  14  16
ENDBRANCH   8  14
ENDBRANCH   1  11
BRANCH   4  17
ATOM     17  N   UNL     1      26.209  13.367  41.529  0.00  0.00    +0.000 NA
BRANCH  17  18
ATOM     18  C   UNL     1      26.648  12.015  41.774  0.00  0.00    +0.000 A 
ATOM     19  C   UNL     1      26.798  11.162  40.684  0.00  0.00    +0.000 A 
ATOM     20  C   UNL     1      27.220   9.872  40.910  0.00  0.00    +0.000 A 
ATOM     21  C   UNL     1      27.495   9.410  42.184  0.00  0.00    +0.000 A 
ATOM     22  C   UNL     1      27.947   8.001  42.352  0.00  0.00    +0.000 C 
ATOM     23  C   UNL     1      27.332  10.287  43.215  0.00  0.00    +0.000 A 
ATOM     24  C   UNL     1      26.913  11.588  43.040  0.00  0.00    +0.000 A 
ATOM     25  C   UNL     1      26.743  12.522  44.203  0.00  0.00    +0.000 C 
ENDBRANCH  17  18
ENDBRANCH   4  17
BRANCH   5  26
ATOM     26  S   UNL     1      29.330  14.420  41.308  0.00  0.00    +0.000 S 
BRANCH  26  27
ATOM     27  C   UNL     1      30.035  12.784  41.253  0.00  0.00    +0.000 A 
ATOM     28  C   UNL     1      30.217  12.121  40.064  0.00  0.00    +0.000 A 
ATOM     29  C   UNL     1      30.764  10.843  40.049  0.00  0.00    +0.000 A 
ATOM     30  C   UNL     1      31.136  10.212  41.216  0.00  0.00    +0.000 A 
ATOM     31  C   UNL     1      30.959  10.869  42.431  0.00  0.00    +0.000 A 
ATOM     32  C   UNL     1      30.414  12.135  42.409  0.00  0.00    +0.000 A 
ENDBRANCH  26  27
ENDBRANCH   5  26
TORSDOF 7
ENDMDL
MODEL 9
REMARK VINA RESULT:      -6.4      2.669      7.879
REMARK  Name = 
REMARK  7 active torsions:
REMARK  status: ('A' for Active; 'I' for Inactive)
REMARK    1  A    between atoms: C_2  and  O_3
REMARK    2  A    between atoms: O_3  and  C_4
REMARK    3  A    between atoms: C_7  and  N_8
REMARK    4  A    between atoms: C_11  and  N_12
REMARK    5  A    between atoms: N_12  and  C_13
REMARK    6  A    between atoms: C_21  and  S_22
REMARK    7  A    between atoms: S_22  and  C_23
REMARK                            x       y       z     vdW  Elec       q    Type
REMARK                         _______ _______ _______ _____ _____    ______ ____
ROOT
ATOM      1  N   UNL     1      39.468   0.790  13.969  0.00  0.00    +0.000 N 
ATOM      2  C   UNL     1      39.687   2.201  14.068  0.00  0.00    +0.000 C 
ATOM      3  O   UNL     1      40.736   2.781  13.689  0.00  0.00    +0.000 OA
ATOM      4  C   UNL     1      38.489   2.818  14.680  0.00  0.00    +0.000 C 
ATOM      5  C   UNL     1      37.608   1.871  14.935  0.00  0.00    +0.000 C 
ATOM      6  C   UNL     1      38.170   0.598  14.512  0.00  0.00    +0.000 C 
ATOM      7  O   UNL     1      37.637  -0.547  14.586  0.00  0.00    +0.000 OA
ENDROOT
BRANCH   1  11
ATOM      8  C   UNL     1      42.241  -2.015  12.413  0.00  0.00    +0.000 A 
ATOM      9  C   UNL     1      42.331  -1.533  13.704  0.00  0.00    +0.000 A 
ATOM     10  C   UNL     1      41.432  -0.620  14.217  0.00  0.00    +0.000 A 
ATOM     11  C   UNL     1      40.390  -0.150  13.434  0.00  0.00    +0.000 A 
ATOM     12  C   UNL     1      40.284  -0.614  12.153  0.00  0.00    +0.000 A 
ATOM     13  C   UNL     1      41.195  -1.534  11.648  0.00  0.00    +0.000 A 
BRANCH   8  14
ATOM     14  O   UNL     1      43.176  -2.923  11.978  0.00  0.00    +0.000 OA
BRANCH  14  16
ATOM     15  C   UNL     1      45.168  -3.833  12.856  0.00  0.00    +0.000 C 
ATOM     16  C   UNL     1      44.561  -2.743  11.995  0.00  0.00    +0.000 C 
ENDBRANCH  14  16
ENDBRANCH   8  14
ENDBRANCH   1  11
BRANCH   4  17
ATOM     17  N   UNL     1      38.427   4.220  14.901  0.00  0.00    +0.000 NA
BRANCH  17  18
ATOM     18  C   UNL     1      38.942   4.778  16.128  0.00  0.00    +0.000 A 
ATOM     19  C   UNL     1      38.319   4.431  17.323  0.00  0.00    +0.000 A 
ATOM     20  C   UNL     1      38.807   4.957  18.498  0.00  0.00    +0.000 A 
ATOM     21  C   UNL     1      39.892   5.814  18.515  0.00  0.00    +0.000 A 
ATOM     22  C   UNL     1      40.363   6.345  19.824  0.00  0.00    +0.000 C 
ATOM     23  C   UNL     1      40.464   6.121  17.316  0.00  0.00    +0.000 A 
ATOM     24  C   UNL     1      40.013   5.620  16.114  0.00  0.00    +0.000 A 
ATOM     25  C   UNL     1      40.670   5.985  14.815  0.00  0.00    +0.000 C 
ENDBRANCH  17  18
ENDBRANCH   4  17
BRANCH   5  26
ATOM     26  S   UNL     1      36.006   2.112  15.670  0.00  0.00    +0.000 S 
BRANCH  26  27
ATOM     27  C   UNL     1      35.694   0.924  16.962  0.00  0.00    +0.000 A 
ATOM     28  C   UNL     1      36.234   1.071  18.217  0.00  0.00    +0.000 A 
ATOM     29  C   UNL     1      35.980   0.128  19.206  0.00  0.00    +0.000 A 
ATOM     30  C   UNL     1      35.186  -0.971  18.957  0.00  0.00    +0.000 A 
ATOM     31  C   UNL     1      34.631  -1.136  17.692  0.00  0.00    +0.000 A 
ATOM     32  C   UNL     1      34.903  -0.183  16.735  0.00  0.00    +0.000 A 
ENDBRANCH  26  27
ENDBRANCH   5  26
TORSDOF 7
ENDMDL
MODEL 10
REMARK VINA RESULT:      -6.3      3.349      8.659
REMARK  Name = 
REMARK  7 active torsions:
REMARK  status: ('A' for Active; 'I' for Inactive)
REMARK    1  A    between atoms: C_2  and  O_3
REMARK    2  A    between atoms: O_3  and  C_4
REMARK    3  A    between atoms: C_7  and  N_8
REMARK    4  A    between atoms: C_11  and  N_12
REMARK    5  A    between atoms: N_12  and  C_13
REMARK    6  A    between atoms: C_21  and  S_22
REMARK    7  A    between atoms: S_22  and  C_23
REMARK                            x       y       z     vdW  Elec       q    Type
REMARK                         _______ _______ _______ _____ _____    ______ ____
ROOT
ATOM      1  N   UNL     1      36.804   3.128  15.850  0.00  0.00    +0.000 N 
ATOM      2  C   UNL     1      37.486   3.937  16.814  0.00  0.00    +0.000 C 
ATOM      3  O   UNL     1      37.856   3.528  17.944  0.00  0.00    +0.000 OA
ATOM      4  C   UNL     1      37.663   5.292  16.245  0.00  0.00    +0.000 C 
ATOM      5  C   UNL     1      37.137   5.317  15.037  0.00  0.00    +0.000 C 
ATOM      6  C   UNL     1      36.592   3.999  14.749  0.00  0.00    +0.000 C 
ATOM      7  O   UNL     1      36.006   3.617  13.695  0.00  0.00    +0.000 OA
ENDROOT
BRANCH   1  11
ATOM      8  C   UNL     1      35.708  -0.931  16.395  0.00  0.00    +0.000 A 
ATOM      9  C   UNL     1      34.952   0.107  16.901  0.00  0.00    +0.000 A 
ATOM     10  C   UNL     1      35.302   1.431  16.728  0.00  0.00    +0.000 A 
ATOM     11  C   UNL     1      36.449   1.764  16.025  0.00  0.00    +0.000 A 
ATOM     12  C   UNL     1      37.212   0.750  15.517  0.00  0.00    +0.000 A 
ATOM     13  C   UNL     1      36.849  -0.579  15.697  0.00  0.00    +0.000 A 
BRANCH   8  14
ATOM     14  O   UNL     1      35.290  -2.222  16.612  0.00  0.00    +0.000 OA
BRANCH  14  16
ATOM     15  C   UNL     1      35.730  -4.380  15.768  0.00  0.00    +0.000 C 
ATOM     16  C   UNL     1      34.888  -3.128  15.629  0.00  0.00    +0.000 C 
ENDBRANCH  14  16
ENDBRANCH   8  14
ENDBRANCH   1  11
BRANCH   4  17
ATOM     17  N   UNL     1      38.315   6.312  16.990  0.00  0.00    +0.000 NA
BRANCH  17  18
ATOM     18  C   UNL     1      39.755   6.409  16.969  0.00  0.00    +0.000 A 
ATOM     19  C   UNL     1      40.390   6.537  15.736  0.00  0.00    +0.000 A 
ATOM     20  C   UNL     1      41.762   6.633  15.708  0.00  0.00    +0.000 A 
ATOM     21  C   UNL     1      42.516   6.606  16.868  0.00  0.00    +0.000 A 
ATOM     22  C   UNL     1      43.997   6.715  16.760  0.00  0.00    +0.000 C 
ATOM     23  C   UNL     1      41.843   6.480  18.047  0.00  0.00    +0.000 A 
ATOM     24  C   UNL     1      40.471   6.380  18.127  0.00  0.00    +0.000 A 
ATOM     25  C   UNL     1      39.769   6.239  19.445  0.00  0.00    +0.000 C 
ENDBRANCH  17  18
ENDBRANCH   4  17
BRANCH   5  26
ATOM     26  S   UNL     1      37.101   6.722  13.947  0.00  0.00    +0.000 S 
BRANCH  26  27
ATOM     27  C   UNL     1      36.001   7.989  14.550  0.00  0.00    +0.000 A 
ATOM     28  C   UNL     1      34.650   7.941  14.308  0.00  0.00    +0.000 A 
ATOM     29  C   UNL     1      33.814   8.944  14.785  0.00  0.00    +0.000 A 
ATOM     30  C   UNL     1      34.314  10.005  15.508  0.00  0.00    +0.000 A 
ATOM     31  C   UNL     1      35.681  10.071  15.762  0.00  0.00    +0.000 A 
ATOM     32  C   UNL     1      36.480   9.060  15.275  0.00  0.00    +0.000 A 
ENDBRANCH  26  27
ENDBRANCH   5  26
TORSDOF 7
ENDMDL
