MODEL 1
REMARK VINA RESULT:      -6.0      0.000      0.000
REMARK  Name = 
REMARK  5 active torsions:
REMARK  status: ('A' for Active; 'I' for Inactive)
REMARK    1  A    between atoms: N_2  and  C_4
REMARK    2  A    between atoms: N_10  and  C_11
REMARK    3  A    between atoms: C_11  and  C_12
REMARK    4  A    between atoms: C_12  and  C_13
REMARK    5  A    between atoms: C_13  and  C_14
REMARK                            x       y       z     vdW  Elec       q    Type
REMARK                         _______ _______ _______ _____ _____    ______ ____
ROOT
ATOM      1  C   UNL     1      27.188  22.559  29.277  0.00  0.00    +0.000 C 
ATOM      2  C   UNL     1      28.489  22.657  29.468  0.00  0.00    +0.000 C 
ATOM      3  N   UNL     1      29.043  22.804  30.781  0.00  0.00    +0.000 NA
ATOM      4  C   UNL     1      30.428  22.517  31.069  0.00  0.00    +0.000 C 
ATOM      5  C   UNL     1      31.237  22.238  29.834  0.00  0.00    +0.000 C 
ATOM      6  C   UNL     1      30.758  22.964  28.605  0.00  0.00    +0.000 C 
ATOM      7  N   UNL     1      29.373  22.633  28.387  0.00  0.00    +0.000 N 
ENDROOT
BRANCH   1   9
ATOM      8  O   UNL     1      25.855  23.674  30.768  0.00  0.00    +0.000 OA
ATOM      9  N   UNL     1      26.266  22.591  30.344  0.00  0.00    +0.000 N 
ATOM     10  O   UNL     1      25.837  21.429  30.903  0.00  0.00    +0.000 OA
ENDBRANCH   1   9
BRANCH   7  11
ATOM     11  C   UNL     1      28.935  22.302  27.066  0.00  0.00    +0.000 C 
BRANCH  11  12
ATOM     12  C   UNL     1      29.642  23.270  26.126  0.00  0.00    +0.000 C 
BRANCH  12  13
ATOM     13  C   UNL     1      29.932  22.572  24.821  0.00  0.00    +0.000 C 
BRANCH  13  14
ATOM     14  C   UNL     1      29.186  23.334  23.778  0.00  0.00    +0.000 A 
ATOM     15  C   UNL     1      27.834  23.202  23.581  0.00  0.00    +0.000 A 
ATOM     16  C   UNL     1      27.176  23.936  22.592  0.00  0.00    +0.000 A 
ATOM     17  C   UNL     1      27.873  24.802  21.804  0.00  0.00    +0.000 A 
ATOM     18  C   UNL     1      29.236  24.954  21.986  0.00  0.00    +0.000 A 
ATOM     19  C   UNL     1      29.860  24.225  22.957  0.00  0.00    +0.000 A 
ENDBRANCH  13  14
ENDBRANCH  12  13
ENDBRANCH  11  12
ENDBRANCH   7  11
TORSDOF 5
ENDMDL
MODEL 2
REMARK VINA RESULT:      -5.7      1.478      2.589
REMARK  Name = 
REMARK  5 active torsions:
REMARK  status: ('A' for Active; 'I' for Inactive)
REMARK    1  A    between atoms: N_2  and  C_4
REMARK    2  A    between atoms: N_10  and  C_11
REMARK    3  A    between atoms: C_11  and  C_12
REMARK    4  A    between atoms: C_12  and  C_13
REMARK    5  A    between atoms: C_13  and  C_14
REMARK                            x       y       z     vdW  Elec       q    Type
REMARK                         _______ _______ _______ _____ _____    ______ ____
ROOT
ATOM      1  C   UNL     1      26.148  23.326  28.968  0.00  0.00    +0.000 C 
ATOM      2  C   UNL     1      27.290  23.312  28.309  0.00  0.00    +0.000 C 
ATOM      3  N   UNL     1      28.532  23.041  28.972  0.00  0.00    +0.000 NA
ATOM      4  C   UNL     1      29.714  22.628  28.254  0.00  0.00    +0.000 C 
ATOM      5  C   UNL     1      29.546  22.698  26.762  0.00  0.00    +0.000 C 
ATOM      6  C   UNL     1      28.603  23.776  26.297  0.00  0.00    +0.000 C 
ATOM      7  N   UNL     1      27.329  23.578  26.939  0.00  0.00    +0.000 N 
ENDROOT
BRANCH   1   9
ATOM      8  O   UNL     1      25.961  21.916  30.762  0.00  0.00    +0.000 OA
ATOM      9  N   UNL     1      26.074  23.074  30.354  0.00  0.00    +0.000 N 
ATOM     10  O   UNL     1      26.126  24.110  31.232  0.00  0.00    +0.000 OA
ENDBRANCH   1   9
BRANCH   7  11
ATOM     11  C   UNL     1      26.133  23.673  26.159  0.00  0.00    +0.000 C 
BRANCH  11  12
ATOM     12  C   UNL     1      26.383  22.864  24.893  0.00  0.00    +0.000 C 
BRANCH  12  13
ATOM     13  C   UNL     1      25.845  23.623  23.705  0.00  0.00    +0.000 C 
BRANCH  13  14
ATOM     14  C   UNL     1      27.023  24.301  23.089  0.00  0.00    +0.000 A 
ATOM     15  C   UNL     1      27.995  23.625  22.396  0.00  0.00    +0.000 A 
ATOM     16  C   UNL     1      29.081  24.300  21.835  0.00  0.00    +0.000 A 
ATOM     17  C   UNL     1      29.190  25.652  21.969  0.00  0.00    +0.000 A 
ATOM     18  C   UNL     1      28.220  26.356  22.661  0.00  0.00    +0.000 A 
ATOM     19  C   UNL     1      27.168  25.674  23.203  0.00  0.00    +0.000 A 
ENDBRANCH  13  14
ENDBRANCH  12  13
ENDBRANCH  11  12
ENDBRANCH   7  11
TORSDOF 5
ENDMDL
MODEL 3
REMARK VINA RESULT:      -5.5      6.201      7.584
REMARK  Name = 
REMARK  5 active torsions:
REMARK  status: ('A' for Active; 'I' for Inactive)
REMARK    1  A    between atoms: N_2  and  C_4
REMARK    2  A    between atoms: N_10  and  C_11
REMARK    3  A    between atoms: C_11  and  C_12
REMARK    4  A    between atoms: C_12  and  C_13
REMARK    5  A    between atoms: C_13  and  C_14
REMARK                            x       y       z     vdW  Elec       q    Type
REMARK                         _______ _______ _______ _____ _____    ______ ____
ROOT
ATOM      1  C   UNL     1      25.824  24.170  24.087  0.00  0.00    +0.000 C 
ATOM      2  C   UNL     1      26.132  23.808  25.317  0.00  0.00    +0.000 C 
ATOM      3  N   UNL     1      26.827  22.583  25.584  0.00  0.00    +0.000 NA
ATOM      4  C   UNL     1      27.520  22.346  26.827  0.00  0.00    +0.000 C 
ATOM      5  C   UNL     1      27.276  23.422  27.847  0.00  0.00    +0.000 C 
ATOM      6  C   UNL     1      25.925  24.080  27.740  0.00  0.00    +0.000 C 
ATOM      7  N   UNL     1      25.776  24.604  26.407  0.00  0.00    +0.000 N 
ENDROOT
BRANCH   1   9
ATOM      8  O   UNL     1      27.320  23.361  22.554  0.00  0.00    +0.000 OA
ATOM      9  N   UNL     1      26.157  23.384  22.964  0.00  0.00    +0.000 N 
ATOM     10  O   UNL     1      25.194  22.657  22.338  0.00  0.00    +0.000 OA
ENDBRANCH   1   9
BRANCH   7  11
ATOM     11  C   UNL     1      25.252  25.925  26.233  0.00  0.00    +0.000 C 
BRANCH  11  12
ATOM     12  C   UNL     1      23.816  25.885  26.738  0.00  0.00    +0.000 C 
BRANCH  12  13
ATOM     13  C   UNL     1      22.914  26.535  25.719  0.00  0.00    +0.000 C 
BRANCH  13  14
ATOM     14  C   UNL     1      21.585  26.676  26.384  0.00  0.00    +0.000 A 
ATOM     15  C   UNL     1      20.563  27.425  25.856  0.00  0.00    +0.000 A 
ATOM     16  C   UNL     1      19.335  27.530  26.513  0.00  0.00    +0.000 A 
ATOM     17  C   UNL     1      19.133  26.884  27.696  0.00  0.00    +0.000 A 
ATOM     18  C   UNL     1      20.148  26.121  28.246  0.00  0.00    +0.000 A 
ATOM     19  C   UNL     1      21.342  26.034  27.587  0.00  0.00    +0.000 A 
ENDBRANCH  13  14
ENDBRANCH  12  13
ENDBRANCH  11  12
ENDBRANCH   7  11
TORSDOF 5
ENDMDL
MODEL 4
REMARK VINA RESULT:      -5.5     17.299     18.915
REMARK  Name = 
REMARK  5 active torsions:
REMARK  status: ('A' for Active; 'I' for Inactive)
REMARK    1  A    between atoms: N_2  and  C_4
REMARK    2  A    between atoms: N_10  and  C_11
REMARK    3  A    between atoms: C_11  and  C_12
REMARK    4  A    between atoms: C_12  and  C_13
REMARK    5  A    between atoms: C_13  and  C_14
REMARK                            x       y       z     vdW  Elec       q    Type
REMARK                         _______ _______ _______ _____ _____    ______ ____
ROOT
ATOM      1  C   UNL     1      16.279  11.802  37.506  0.00  0.00    +0.000 C 
ATOM      2  C   UNL     1      17.039  10.874  36.958  0.00  0.00    +0.000 C 
ATOM      3  N   UNL     1      16.519   9.959  35.986  0.00  0.00    +0.000 NA
ATOM      4  C   UNL     1      17.374   9.218  35.090  0.00  0.00    +0.000 C 
ATOM      5  C   UNL     1      18.833   9.371  35.415  0.00  0.00    +0.000 C 
ATOM      6  C   UNL     1      19.121   9.591  36.876  0.00  0.00    +0.000 C 
ATOM      7  N   UNL     1      18.381  10.744  37.321  0.00  0.00    +0.000 N 
ENDROOT
BRANCH   1   9
ATOM      8  O   UNL     1      14.050  11.436  37.879  0.00  0.00    +0.000 OA
ATOM      9  N   UNL     1      14.917  11.954  37.172  0.00  0.00    +0.000 N 
ATOM     10  O   UNL     1      14.566  12.668  36.069  0.00  0.00    +0.000 OA
ENDBRANCH   1   9
BRANCH   7  11
ATOM     11  C   UNL     1      19.037  11.721  38.135  0.00  0.00    +0.000 C 
BRANCH  11  12
ATOM     12  C   UNL     1      20.412  11.154  38.459  0.00  0.00    +0.000 C 
BRANCH  12  13
ATOM     13  C   UNL     1      21.455  12.220  38.234  0.00  0.00    +0.000 C 
BRANCH  13  14
ATOM     14  C   UNL     1      22.630  11.521  37.637  0.00  0.00    +0.000 A 
ATOM     15  C   UNL     1      23.928  11.849  37.942  0.00  0.00    +0.000 A 
ATOM     16  C   UNL     1      24.998  11.167  37.360  0.00  0.00    +0.000 A 
ATOM     17  C   UNL     1      24.766  10.156  36.474  0.00  0.00    +0.000 A 
ATOM     18  C   UNL     1      23.467   9.806  36.154  0.00  0.00    +0.000 A 
ATOM     19  C   UNL     1      22.435  10.488  36.734  0.00  0.00    +0.000 A 
ENDBRANCH  13  14
ENDBRANCH  12  13
ENDBRANCH  11  12
ENDBRANCH   7  11
TORSDOF 5
ENDMDL
MODEL 5
REMARK VINA RESULT:      -5.5     19.815     21.692
REMARK  Name = 
REMARK  5 active torsions:
REMARK  status: ('A' for Active; 'I' for Inactive)
REMARK    1  A    between atoms: N_2  and  C_4
REMARK    2  A    between atoms: N_10  and  C_11
REMARK    3  A    between atoms: C_11  and  C_12
REMARK    4  A    between atoms: C_12  and  C_13
REMARK    5  A    between atoms: C_13  and  C_14
REMARK                            x       y       z     vdW  Elec       q    Type
REMARK                         _______ _______ _______ _____ _____    ______ ____
ROOT
ATOM      1  C   UNL     1      19.006   6.922  40.250  0.00  0.00    +0.000 C 
ATOM      2  C   UNL     1      17.890   7.579  40.495  0.00  0.00    +0.000 C 
ATOM      3  N   UNL     1      16.797   6.963  41.188  0.00  0.00    +0.000 NA
ATOM      4  C   UNL     1      15.750   7.734  41.816  0.00  0.00    +0.000 C 
ATOM      5  C   UNL     1      15.839   9.202  41.507  0.00  0.00    +0.000 C 
ATOM      6  C   UNL     1      16.430   9.513  40.157  0.00  0.00    +0.000 C 
ATOM      7  N   UNL     1      17.731   8.900  40.073  0.00  0.00    +0.000 N 
ENDROOT
BRANCH   1   9
ATOM      8  O   UNL     1      19.386   4.708  39.802  0.00  0.00    +0.000 OA
ATOM      9  N   UNL     1      19.195   5.582  40.651  0.00  0.00    +0.000 N 
ATOM     10  O   UNL     1      19.164   5.261  41.971  0.00  0.00    +0.000 OA
ENDBRANCH   1   9
BRANCH   7  11
ATOM     11  C   UNL     1      18.825   9.657  39.546  0.00  0.00    +0.000 C 
BRANCH  11  12
ATOM     12  C   UNL     1      18.288  10.391  38.325  0.00  0.00    +0.000 C 
BRANCH  12  13
ATOM     13  C   UNL     1      18.555   9.563  37.092  0.00  0.00    +0.000 C 
BRANCH  13  14
ATOM     14  C   UNL     1      17.677  10.128  36.026  0.00  0.00    +0.000 A 
ATOM     15  C   UNL     1      16.608  10.947  36.295  0.00  0.00    +0.000 A 
ATOM     16  C   UNL     1      15.813  11.455  35.266  0.00  0.00    +0.000 A 
ATOM     17  C   UNL     1      16.090  11.141  33.968  0.00  0.00    +0.000 A 
ATOM     18  C   UNL     1      17.164  10.320  33.672  0.00  0.00    +0.000 A 
ATOM     19  C   UNL     1      17.927   9.834  34.695  0.00  0.00    +0.000 A 
ENDBRANCH  13  14
ENDBRANCH  12  13
ENDBRANCH  11  12
ENDBRANCH   7  11
TORSDOF 5
ENDMDL
MODEL 6
REMARK VINA RESULT:      -5.3      1.555      2.874
REMARK  Name = 
REMARK  5 active torsions:
REMARK  status: ('A' for Active; 'I' for Inactive)
REMARK    1  A    between atoms: N_2  and  C_4
REMARK    2  A    between atoms: N_10  and  C_11
REMARK    3  A    between atoms: C_11  and  C_12
REMARK    4  A    between atoms: C_12  and  C_13
REMARK    5  A    between atoms: C_13  and  C_14
REMARK                            x       y       z     vdW  Elec       q    Type
REMARK                         _______ _______ _______ _____ _____    ______ ____
ROOT
ATOM      1  C   UNL     1      27.801  22.708  30.126  0.00  0.00    +0.000 C 
ATOM      2  C   UNL     1      28.567  23.592  30.735  0.00  0.00    +0.000 C 
ATOM      3  N   UNL     1      28.017  24.571  31.624  0.00  0.00    +0.000 NA
ATOM      4  C   UNL     1      28.825  25.273  32.593  0.00  0.00    +0.000 C 
ATOM      5  C   UNL     1      30.295  25.001  32.435  0.00  0.00    +0.000 C 
ATOM      6  C   UNL     1      30.721  24.717  31.019  0.00  0.00    +0.000 C 
ATOM      7  N   UNL     1      29.947  23.610  30.520  0.00  0.00    +0.000 N 
ENDROOT
BRANCH   1   9
ATOM      8  O   UNL     1      25.888  21.720  30.905  0.00  0.00    +0.000 OA
ATOM      9  N   UNL     1      26.403  22.669  30.310  0.00  0.00    +0.000 N 
ATOM     10  O   UNL     1      25.629  23.678  29.828  0.00  0.00    +0.000 OA
ENDBRANCH   1   9
BRANCH   7  11
ATOM     11  C   UNL     1      30.609  22.563  29.804  0.00  0.00    +0.000 C 
BRANCH  11  12
ATOM     12  C   UNL     1      30.880  23.105  28.407  0.00  0.00    +0.000 C 
BRANCH  12  13
ATOM     13  C   UNL     1      30.911  21.959  27.427  0.00  0.00    +0.000 C 
BRANCH  13  14
ATOM     14  C   UNL     1      30.039  22.373  26.289  0.00  0.00    +0.000 A 
ATOM     15  C   UNL     1      30.522  22.607  25.026  0.00  0.00    +0.000 A 
ATOM     16  C   UNL     1      29.670  22.993  23.989  0.00  0.00    +0.000 A 
ATOM     17  C   UNL     1      28.335  23.143  24.221  0.00  0.00    +0.000 A 
ATOM     18  C   UNL     1      27.824  22.910  25.485  0.00  0.00    +0.000 A 
ATOM     19  C   UNL     1      28.677  22.535  26.484  0.00  0.00    +0.000 A 
ENDBRANCH  13  14
ENDBRANCH  12  13
ENDBRANCH  11  12
ENDBRANCH   7  11
TORSDOF 5
ENDMDL
MODEL 7
REMARK VINA RESULT:      -5.3      2.110      3.555
REMARK  Name = 
REMARK  5 active torsions:
REMARK  status: ('A' for Active; 'I' for Inactive)
REMARK    1  A    between atoms: N_2  and  C_4
REMARK    2  A    between atoms: N_10  and  C_11
REMARK    3  A    between atoms: C_11  and  C_12
REMARK    4  A    between atoms: C_12  and  C_13
REMARK    5  A    between atoms: C_13  and  C_14
REMARK                            x       y       z     vdW  Elec       q    Type
REMARK                         _______ _______ _______ _____ _____    ______ ____
ROOT
ATOM      1  C   UNL     1      27.166  23.415  28.821  0.00  0.00    +0.000 C 
ATOM      2  C   UNL     1      26.642  23.604  27.626  0.00  0.00    +0.000 C 
ATOM      3  N   UNL     1      25.437  24.359  27.449  0.00  0.00    +0.000 NA
ATOM      4  C   UNL     1      25.059  24.918  26.172  0.00  0.00    +0.000 C 
ATOM      5  C   UNL     1      25.952  24.468  25.050  0.00  0.00    +0.000 C 
ATOM      6  C   UNL     1      26.532  23.092  25.236  0.00  0.00    +0.000 C 
ATOM      7  N   UNL     1      27.241  23.058  26.489  0.00  0.00    +0.000 N 
ENDROOT
BRANCH   1   9
ATOM      8  O   UNL     1      25.864  23.224  30.696  0.00  0.00    +0.000 OA
ATOM      9  N   UNL     1      26.580  23.940  29.992  0.00  0.00    +0.000 N 
ATOM     10  O   UNL     1      26.806  25.235  30.338  0.00  0.00    +0.000 OA
ENDBRANCH   1   9
BRANCH   7  11
ATOM     11  C   UNL     1      28.537  22.454  26.540  0.00  0.00    +0.000 C 
BRANCH  11  12
ATOM     12  C   UNL     1      29.156  22.653  25.163  0.00  0.00    +0.000 C 
BRANCH  12  13
ATOM     13  C   UNL     1      30.089  23.837  25.205  0.00  0.00    +0.000 C 
BRANCH  13  14
ATOM     14  C   UNL     1      29.778  24.643  23.988  0.00  0.00    +0.000 A 
ATOM     15  C   UNL     1      29.827  26.015  23.970  0.00  0.00    +0.000 A 
ATOM     16  C   UNL     1      29.528  26.730  22.808  0.00  0.00    +0.000 A 
ATOM     17  C   UNL     1      29.180  26.069  21.668  0.00  0.00    +0.000 A 
ATOM     18  C   UNL     1      29.127  24.687  21.662  0.00  0.00    +0.000 A 
ATOM     19  C   UNL     1      29.422  24.008  22.809  0.00  0.00    +0.000 A 
ENDBRANCH  13  14
ENDBRANCH  12  13
ENDBRANCH  11  12
ENDBRANCH   7  11
TORSDOF 5
ENDMDL
MODEL 8
REMARK VINA RESULT:      -5.3      2.643      4.599
REMARK  Name = 
REMARK  5 active torsions:
REMARK  status: ('A' for Active; 'I' for Inactive)
REMARK    1  A    between atoms: N_2  and  C_4
REMARK    2  A    between atoms: N_10  and  C_11
REMARK    3  A    between atoms: C_11  and  C_12
REMARK    4  A    between atoms: C_12  and  C_13
REMARK    5  A    between atoms: C_13  and  C_14
REMARK                            x       y       z     vdW  Elec       q    Type
REMARK                         _______ _______ _______ _____ _____    ______ ____
ROOT
ATOM      1  C   UNL     1      26.924  23.670  28.773  0.00  0.00    +0.000 C 
ATOM      2  C   UNL     1      26.302  23.927  27.640  0.00  0.00    +0.000 C 
ATOM      3  N   UNL     1      25.234  24.880  27.573  0.00  0.00    +0.000 NA
ATOM      4  C   UNL     1      24.809  25.475  26.327  0.00  0.00    +0.000 C 
ATOM      5  C   UNL     1      25.469  24.855  25.128  0.00  0.00    +0.000 C 
ATOM      6  C   UNL     1      25.820  23.401  25.299  0.00  0.00    +0.000 C 
ATOM      7  N   UNL     1      26.657  23.265  26.463  0.00  0.00    +0.000 N 
ENDROOT
BRANCH   1   9
ATOM      8  O   UNL     1      25.837  23.748  30.788  0.00  0.00    +0.000 OA
ATOM      9  N   UNL     1      26.582  24.311  29.982  0.00  0.00    +0.000 N 
ATOM     10  O   UNL     1      27.074  25.549  30.253  0.00  0.00    +0.000 OA
ENDBRANCH   1   9
BRANCH   7  11
ATOM     11  C   UNL     1      27.826  22.442  26.388  0.00  0.00    +0.000 C 
BRANCH  11  12
ATOM     12  C   UNL     1      28.822  23.192  25.515  0.00  0.00    +0.000 C 
BRANCH  12  13
ATOM     13  C   UNL     1      30.028  22.319  25.276  0.00  0.00    +0.000 C 
BRANCH  13  14
ATOM     14  C   UNL     1      31.214  23.165  25.602  0.00  0.00    +0.000 A 
ATOM     15  C   UNL     1      31.618  23.417  26.890  0.00  0.00    +0.000 A 
ATOM     16  C   UNL     1      32.734  24.214  27.150  0.00  0.00    +0.000 A 
ATOM     17  C   UNL     1      33.444  24.756  26.121  0.00  0.00    +0.000 A 
ATOM     18  C   UNL     1      33.057  24.514  24.814  0.00  0.00    +0.000 A 
ATOM     19  C   UNL     1      31.961  23.733  24.583  0.00  0.00    +0.000 A 
ENDBRANCH  13  14
ENDBRANCH  12  13
ENDBRANCH  11  12
ENDBRANCH   7  11
TORSDOF 5
ENDMDL
MODEL 9
REMARK VINA RESULT:      -5.2      4.107      6.873
REMARK  Name = 
REMARK  5 active torsions:
REMARK  status: ('A' for Active; 'I' for Inactive)
REMARK    1  A    between atoms: N_2  and  C_4
REMARK    2  A    between atoms: N_10  and  C_11
REMARK    3  A    between atoms: C_11  and  C_12
REMARK    4  A    between atoms: C_12  and  C_13
REMARK    5  A    between atoms: C_13  and  C_14
REMARK                            x       y       z     vdW  Elec       q    Type
REMARK                         _______ _______ _______ _____ _____    ______ ____
ROOT
ATOM      1  C   UNL     1      27.346  23.597  23.351  0.00  0.00    +0.000 C 
ATOM      2  C   UNL     1      26.866  24.079  24.480  0.00  0.00    +0.000 C 
ATOM      3  N   UNL     1      25.747  24.975  24.495  0.00  0.00    +0.000 NA
ATOM      4  C   UNL     1      24.957  25.201  25.682  0.00  0.00    +0.000 C 
ATOM      5  C   UNL     1      25.541  24.554  26.905  0.00  0.00    +0.000 C 
ATOM      6  C   UNL     1      27.043  24.451  26.892  0.00  0.00    +0.000 C 
ATOM      7  N   UNL     1      27.444  23.741  25.705  0.00  0.00    +0.000 N 
ENDROOT
BRANCH   1   9
ATOM      8  O   UNL     1      25.900  23.229  21.615  0.00  0.00    +0.000 OA
ATOM      9  N   UNL     1      26.794  23.928  22.095  0.00  0.00    +0.000 N 
ATOM     10  O   UNL     1      27.254  25.015  21.421  0.00  0.00    +0.000 OA
ENDBRANCH   1   9
BRANCH   7  11
ATOM     11  C   UNL     1      28.436  22.714  25.809  0.00  0.00    +0.000 C 
BRANCH  11  12
ATOM     12  C   UNL     1      29.622  23.338  26.532  0.00  0.00    +0.000 C 
BRANCH  12  13
ATOM     13  C   UNL     1      30.695  22.294  26.718  0.00  0.00    +0.000 C 
BRANCH  13  14
ATOM     14  C   UNL     1      30.955  22.235  28.186  0.00  0.00    +0.000 A 
ATOM     15  C   UNL     1      30.110  22.789  29.116  0.00  0.00    +0.000 A 
ATOM     16  C   UNL     1      30.392  22.711  30.481  0.00  0.00    +0.000 A 
ATOM     17  C   UNL     1      31.519  22.076  30.912  0.00  0.00    +0.000 A 
ATOM     18  C   UNL     1      32.384  21.508  29.994  0.00  0.00    +0.000 A 
ATOM     19  C   UNL     1      32.089  21.599  28.663  0.00  0.00    +0.000 A 
ENDBRANCH  13  14
ENDBRANCH  12  13
ENDBRANCH  11  12
ENDBRANCH   7  11
TORSDOF 5
ENDMDL
MODEL 10
REMARK VINA RESULT:      -5.2     28.148     29.897
REMARK  Name = 
REMARK  5 active torsions:
REMARK  status: ('A' for Active; 'I' for Inactive)
REMARK    1  A    between atoms: N_2  and  C_4
REMARK    2  A    between atoms: N_10  and  C_11
REMARK    3  A    between atoms: C_11  and  C_12
REMARK    4  A    between atoms: C_12  and  C_13
REMARK    5  A    between atoms: C_13  and  C_14
REMARK                            x       y       z     vdW  Elec       q    Type
REMARK                         _______ _______ _______ _____ _____    ______ ____
ROOT
ATOM      1  C   UNL     1      34.542  -8.091  31.849  0.00  0.00    +0.000 C 
ATOM      2  C   UNL     1      34.408  -7.362  30.759  0.00  0.00    +0.000 C 
ATOM      3  N   UNL     1      34.945  -7.792  29.502  0.00  0.00    +0.000 NA
ATOM      4  C   UNL     1      34.491  -7.248  28.244  0.00  0.00    +0.000 C 
ATOM      5  C   UNL     1      33.557  -6.083  28.414  0.00  0.00    +0.000 C 
ATOM      6  C   UNL     1      33.810  -5.264  29.651  0.00  0.00    +0.000 C 
ATOM      7  N   UNL     1      33.746  -6.133  30.798  0.00  0.00    +0.000 N 
ENDROOT
BRANCH   1   9
ATOM      8  O   UNL     1      36.428  -9.371  32.070  0.00  0.00    +0.000 OA
ATOM      9  N   UNL     1      35.215  -9.331  31.849  0.00  0.00    +0.000 N 
ATOM     10  O   UNL     1      34.524 -10.475  31.601  0.00  0.00    +0.000 OA
ENDBRANCH   1   9
BRANCH   7  11
ATOM     11  C   UNL     1      33.017  -5.709  31.954  0.00  0.00    +0.000 C 
BRANCH  11  12
ATOM     12  C   UNL     1      33.473  -4.287  32.250  0.00  0.00    +0.000 C 
BRANCH  12  13
ATOM     13  C   UNL     1      33.751  -4.152  33.726  0.00  0.00    +0.000 C 
BRANCH  13  14
ATOM     14  C   UNL     1      33.321  -2.772  34.096  0.00  0.00    +0.000 A 
ATOM     15  C   UNL     1      32.413  -2.516  35.092  0.00  0.00    +0.000 A 
ATOM     16  C   UNL     1      32.039  -1.208  35.406  0.00  0.00    +0.000 A 
ATOM     17  C   UNL     1      32.576  -0.159  34.722  0.00  0.00    +0.000 A 
ATOM     18  C   UNL     1      33.496  -0.392  33.715  0.00  0.00    +0.000 A 
ATOM     19  C   UNL     1      33.846  -1.680  33.424  0.00  0.00    +0.000 A 
ENDBRANCH  13  14
ENDBRANCH  12  13
ENDBRANCH  11  12
ENDBRANCH   7  11
TORSDOF 5
ENDMDL
