MODEL 1
REMARK VINA RESULT:      -5.5      0.000      0.000
REMARK  Name = 
REMARK  3 active torsions:
REMARK  status: ('A' for Active; 'I' for Inactive)
REMARK    1  A    between atoms: N_8  and  C_9
REMARK    2  A    between atoms: C_9  and  C_10
REMARK    3  A    between atoms: C_10  and  C_11
REMARK                            x       y       z     vdW  Elec       q    Type
REMARK                         _______ _______ _______ _____ _____    ______ ____
ROOT
ATOM      1  C   UNL     1      26.089  26.131  32.119  0.00  0.00    +0.000 C 
ATOM      2  C   UNL     1      25.953  25.537  30.711  0.00  0.00    +0.000 C 
ATOM      3  C   UNL     1      24.593  26.031  30.202  0.00  0.00    +0.000 C 
ATOM      4  C   UNL     1      27.079  26.053  29.898  0.00  0.00    +0.000 C 
ATOM      5  C   UNL     1      27.664  25.098  28.923  0.00  0.00    +0.000 C 
ATOM      6  C   UNL     1      29.163  25.412  28.818  0.00  0.00    +0.000 C 
ATOM      7  O   UNL     1      27.116  25.277  27.647  0.00  0.00    +0.000 OA
ATOM      8  N   UNL     1      27.561  23.720  29.317  0.00  0.00    +0.000 N 
ATOM      9  C   UNL     1      26.592  23.256  30.245  0.00  0.00    +0.000 C 
ATOM     10  S   UNL     1      26.412  21.489  30.512  0.00  0.00    +0.000 S 
ATOM     11  N   UNL     1      25.885  24.125  30.854  0.00  0.00    +0.000 NA
ENDROOT
BRANCH   8  12
ATOM     12  C   UNL     1      28.495  22.777  28.734  0.00  0.00    +0.000 C 
BRANCH  12  13
ATOM     13  C   UNL     1      27.944  22.176  27.477  0.00  0.00    +0.000 C 
BRANCH  13  14
ATOM     14  C   UNL     1      28.833  22.528  26.340  0.00  0.00    +0.000 A 
ATOM     15  C   UNL     1      28.304  22.959  25.133  0.00  0.00    +0.000 A 
ATOM     16  C   UNL     1      29.078  23.296  24.053  0.00  0.00    +0.000 A 
ATOM     17  C   UNL     1      30.454  23.200  24.182  0.00  0.00    +0.000 A 
ATOM     18  C   UNL     1      31.003  22.772  25.381  0.00  0.00    +0.000 A 
ATOM     19  C   UNL     1      30.200  22.438  26.455  0.00  0.00    +0.000 A 
ENDBRANCH  13  14
ENDBRANCH  12  13
ENDBRANCH   8  12
TORSDOF 3
ENDMDL
MODEL 2
REMARK VINA RESULT:      -5.1     16.869     18.321
REMARK  Name = 
REMARK  3 active torsions:
REMARK  status: ('A' for Active; 'I' for Inactive)
REMARK    1  A    between atoms: N_8  and  C_9
REMARK    2  A    between atoms: C_9  and  C_10
REMARK    3  A    between atoms: C_10  and  C_11
REMARK                            x       y       z     vdW  Elec       q    Type
REMARK                         _______ _______ _______ _____ _____    ______ ____
ROOT
ATOM      1  C   UNL     1      13.236  28.356  20.589  0.00  0.00    +0.000 C 
ATOM      2  C   UNL     1      12.491  27.206  21.280  0.00  0.00    +0.000 C 
ATOM      3  C   UNL     1      11.855  27.837  22.525  0.00  0.00    +0.000 C 
ATOM      4  C   UNL     1      11.478  26.694  20.328  0.00  0.00    +0.000 C 
ATOM      5  C   UNL     1      11.261  25.226  20.342  0.00  0.00    +0.000 C 
ATOM      6  C   UNL     1      10.913  24.800  18.908  0.00  0.00    +0.000 C 
ATOM      7  O   UNL     1      10.171  24.882  21.149  0.00  0.00    +0.000 OA
ATOM      8  N   UNL     1      12.419  24.464  20.724  0.00  0.00    +0.000 N 
ATOM      9  C   UNL     1      13.484  25.014  21.485  0.00  0.00    +0.000 C 
ATOM     10  S   UNL     1      14.781  23.928  22.087  0.00  0.00    +0.000 S 
ATOM     11  N   UNL     1      13.470  26.269  21.711  0.00  0.00    +0.000 NA
ENDROOT
BRANCH   8  12
ATOM     12  C   UNL     1      12.487  23.078  20.305  0.00  0.00    +0.000 C 
BRANCH  12  13
ATOM     13  C   UNL     1      11.863  22.173  21.324  0.00  0.00    +0.000 C 
BRANCH  13  14
ATOM     14  C   UNL     1      10.987  21.194  20.631  0.00  0.00    +0.000 A 
ATOM     15  C   UNL     1       9.739  21.571  20.157  0.00  0.00    +0.000 A 
ATOM     16  C   UNL     1       8.892  20.708  19.512  0.00  0.00    +0.000 A 
ATOM     17  C   UNL     1       9.308  19.400  19.327  0.00  0.00    +0.000 A 
ATOM     18  C   UNL     1      10.553  19.003  19.793  0.00  0.00    +0.000 A 
ATOM     19  C   UNL     1      11.388  19.894  20.441  0.00  0.00    +0.000 A 
ENDBRANCH  13  14
ENDBRANCH  12  13
ENDBRANCH   8  12
TORSDOF 3
ENDMDL
MODEL 3
REMARK VINA RESULT:      -5.1      3.894      5.674
REMARK  Name = 
REMARK  3 active torsions:
REMARK  status: ('A' for Active; 'I' for Inactive)
REMARK    1  A    between atoms: N_8  and  C_9
REMARK    2  A    between atoms: C_9  and  C_10
REMARK    3  A    between atoms: C_10  and  C_11
REMARK                            x       y       z     vdW  Elec       q    Type
REMARK                         _______ _______ _______ _____ _____    ______ ____
ROOT
ATOM      1  C   UNL     1      25.838  22.921  24.957  0.00  0.00    +0.000 C 
ATOM      2  C   UNL     1      26.972  23.574  25.759  0.00  0.00    +0.000 C 
ATOM      3  C   UNL     1      26.421  23.712  27.184  0.00  0.00    +0.000 C 
ATOM      4  C   UNL     1      28.143  22.669  25.694  0.00  0.00    +0.000 C 
ATOM      5  C   UNL     1      29.468  23.333  25.601  0.00  0.00    +0.000 C 
ATOM      6  C   UNL     1      30.374  22.428  24.753  0.00  0.00    +0.000 C 
ATOM      7  O   UNL     1      30.066  23.449  26.861  0.00  0.00    +0.000 OA
ATOM      8  N   UNL     1      29.440  24.612  24.945  0.00  0.00    +0.000 N 
ATOM      9  C   UNL     1      28.263  25.399  24.847  0.00  0.00    +0.000 C 
ATOM     10  S   UNL     1      28.379  27.068  24.195  0.00  0.00    +0.000 S 
ATOM     11  N   UNL     1      27.163  24.880  25.232  0.00  0.00    +0.000 NA
ENDROOT
BRANCH   8  12
ATOM     12  C   UNL     1      30.674  25.103  24.365  0.00  0.00    +0.000 C 
BRANCH  12  13
ATOM     13  C   UNL     1      31.452  25.916  25.354  0.00  0.00    +0.000 C 
BRANCH  13  14
ATOM     14  C   UNL     1      32.903  25.744  25.090  0.00  0.00    +0.000 A 
ATOM     15  C   UNL     1      33.407  24.524  24.666  0.00  0.00    +0.000 A 
ATOM     16  C   UNL     1      34.736  24.311  24.408  0.00  0.00    +0.000 A 
ATOM     17  C   UNL     1      35.612  25.370  24.579  0.00  0.00    +0.000 A 
ATOM     18  C   UNL     1      35.128  26.599  25.001  0.00  0.00    +0.000 A 
ATOM     19  C   UNL     1      33.783  26.787  25.255  0.00  0.00    +0.000 A 
ENDBRANCH  13  14
ENDBRANCH  12  13
ENDBRANCH   8  12
TORSDOF 3
ENDMDL
MODEL 4
REMARK VINA RESULT:      -5.0     31.491     33.295
REMARK  Name = 
REMARK  3 active torsions:
REMARK  status: ('A' for Active; 'I' for Inactive)
REMARK    1  A    between atoms: N_8  and  C_9
REMARK    2  A    between atoms: C_9  and  C_10
REMARK    3  A    between atoms: C_10  and  C_11
REMARK                            x       y       z     vdW  Elec       q    Type
REMARK                         _______ _______ _______ _____ _____    ______ ____
ROOT
ATOM      1  C   UNL     1      22.648  -8.254  19.882  0.00  0.00    +0.000 C 
ATOM      2  C   UNL     1      23.001  -9.007  21.171  0.00  0.00    +0.000 C 
ATOM      3  C   UNL     1      23.731 -10.272  20.703  0.00  0.00    +0.000 C 
ATOM      4  C   UNL     1      23.872  -8.122  21.981  0.00  0.00    +0.000 C 
ATOM      5  C   UNL     1      23.662  -8.177  23.449  0.00  0.00    +0.000 C 
ATOM      6  C   UNL     1      23.942  -6.773  24.005  0.00  0.00    +0.000 C 
ATOM      7  O   UNL     1      24.570  -9.050  24.059  0.00  0.00    +0.000 OA
ATOM      8  N   UNL     1      22.318  -8.509  23.839  0.00  0.00    +0.000 N 
ATOM      9  C   UNL     1      21.419  -9.200  22.984  0.00  0.00    +0.000 C 
ATOM     10  S   UNL     1      19.839  -9.750  23.638  0.00  0.00    +0.000 S 
ATOM     11  N   UNL     1      21.778  -9.402  21.778  0.00  0.00    +0.000 NA
ENDROOT
BRANCH   8  12
ATOM     12  C   UNL     1      21.880  -8.114  25.163  0.00  0.00    +0.000 C 
BRANCH  12  13
ATOM     13  C   UNL     1      21.420  -6.688  25.178  0.00  0.00    +0.000 C 
BRANCH  13  14
ATOM     14  C   UNL     1      20.131  -6.602  25.913  0.00  0.00    +0.000 A 
ATOM     15  C   UNL     1      19.555  -7.734  26.468  0.00  0.00    +0.000 A 
ATOM     16  C   UNL     1      18.369  -7.710  27.155  0.00  0.00    +0.000 A 
ATOM     17  C   UNL     1      17.722  -6.494  27.299  0.00  0.00    +0.000 A 
ATOM     18  C   UNL     1      18.282  -5.350  26.751  0.00  0.00    +0.000 A 
ATOM     19  C   UNL     1      19.479  -5.401  26.063  0.00  0.00    +0.000 A 
ENDBRANCH  13  14
ENDBRANCH  12  13
ENDBRANCH   8  12
TORSDOF 3
ENDMDL
MODEL 5
REMARK VINA RESULT:      -5.0      3.411      6.650
REMARK  Name = 
REMARK  3 active torsions:
REMARK  status: ('A' for Active; 'I' for Inactive)
REMARK    1  A    between atoms: N_8  and  C_9
REMARK    2  A    between atoms: C_9  and  C_10
REMARK    3  A    between atoms: C_10  and  C_11
REMARK                            x       y       z     vdW  Elec       q    Type
REMARK                         _______ _______ _______ _____ _____    ______ ____
ROOT
ATOM      1  C   UNL     1      30.155  22.475  24.507  0.00  0.00    +0.000 C 
ATOM      2  C   UNL     1      29.357  23.770  24.711  0.00  0.00    +0.000 C 
ATOM      3  C   UNL     1      30.280  24.887  24.210  0.00  0.00    +0.000 C 
ATOM      4  C   UNL     1      28.117  23.661  23.906  0.00  0.00    +0.000 C 
ATOM      5  C   UNL     1      26.898  24.251  24.515  0.00  0.00    +0.000 C 
ATOM      6  C   UNL     1      25.703  23.398  24.065  0.00  0.00    +0.000 C 
ATOM      7  O   UNL     1      26.675  25.551  24.046  0.00  0.00    +0.000 OA
ATOM      8  N   UNL     1      26.892  24.236  25.952  0.00  0.00    +0.000 N 
ATOM      9  C   UNL     1      28.081  24.152  26.724  0.00  0.00    +0.000 C 
ATOM     10  S   UNL     1      27.981  24.350  28.507  0.00  0.00    +0.000 S 
ATOM     11  N   UNL     1      29.178  23.939  26.110  0.00  0.00    +0.000 NA
ENDROOT
BRANCH   8  12
ATOM     12  C   UNL     1      25.611  24.309  26.626  0.00  0.00    +0.000 C 
BRANCH  12  13
ATOM     13  C   UNL     1      25.306  25.710  27.060  0.00  0.00    +0.000 C 
BRANCH  13  14
ATOM     14  C   UNL     1      23.922  26.056  26.646  0.00  0.00    +0.000 A 
ATOM     15  C   UNL     1      22.868  25.958  27.543  0.00  0.00    +0.000 A 
ATOM     16  C   UNL     1      21.573  26.264  27.214  0.00  0.00    +0.000 A 
ATOM     17  C   UNL     1      21.312  26.692  25.923  0.00  0.00    +0.000 A 
ATOM     18  C   UNL     1      22.352  26.798  25.011  0.00  0.00    +0.000 A 
ATOM     19  C   UNL     1      23.649  26.483  25.369  0.00  0.00    +0.000 A 
ENDBRANCH  13  14
ENDBRANCH  12  13
ENDBRANCH   8  12
TORSDOF 3
ENDMDL
MODEL 6
REMARK VINA RESULT:      -5.0      2.035      2.801
REMARK  Name = 
REMARK  3 active torsions:
REMARK  status: ('A' for Active; 'I' for Inactive)
REMARK    1  A    between atoms: N_8  and  C_9
REMARK    2  A    between atoms: C_9  and  C_10
REMARK    3  A    between atoms: C_10  and  C_11
REMARK                            x       y       z     vdW  Elec       q    Type
REMARK                         _______ _______ _______ _____ _____    ______ ____
ROOT
ATOM      1  C   UNL     1      24.915  25.758  30.388  0.00  0.00    +0.000 C 
ATOM      2  C   UNL     1      26.401  25.376  30.382  0.00  0.00    +0.000 C 
ATOM      3  C   UNL     1      27.060  26.335  31.381  0.00  0.00    +0.000 C 
ATOM      4  C   UNL     1      26.500  23.961  30.812  0.00  0.00    +0.000 C 
ATOM      5  C   UNL     1      27.540  23.150  30.131  0.00  0.00    +0.000 C 
ATOM      6  C   UNL     1      27.007  21.713  30.029  0.00  0.00    +0.000 C 
ATOM      7  O   UNL     1      28.718  23.099  30.886  0.00  0.00    +0.000 OA
ATOM      8  N   UNL     1      27.831  23.574  28.788  0.00  0.00    +0.000 N 
ATOM      9  C   UNL     1      27.562  24.888  28.322  0.00  0.00    +0.000 C 
ATOM     10  S   UNL     1      28.152  25.378  26.698  0.00  0.00    +0.000 S 
ATOM     11  N   UNL     1      26.907  25.670  29.087  0.00  0.00    +0.000 NA
ENDROOT
BRANCH   8  12
ATOM     12  C   UNL     1      28.423  22.607  27.885  0.00  0.00    +0.000 C 
BRANCH  12  13
ATOM     13  C   UNL     1      29.903  22.504  28.096  0.00  0.00    +0.000 C 
BRANCH  13  14
ATOM     14  C   UNL     1      30.598  22.857  26.832  0.00  0.00    +0.000 A 
ATOM     15  C   UNL     1      31.665  23.744  26.833  0.00  0.00    +0.000 A 
ATOM     16  C   UNL     1      32.341  24.104  25.696  0.00  0.00    +0.000 A 
ATOM     17  C   UNL     1      31.935  23.551  24.493  0.00  0.00    +0.000 A 
ATOM     18  C   UNL     1      30.870  22.663  24.470  0.00  0.00    +0.000 A 
ATOM     19  C   UNL     1      30.205  22.317  25.631  0.00  0.00    +0.000 A 
ENDBRANCH  13  14
ENDBRANCH  12  13
ENDBRANCH   8  12
TORSDOF 3
ENDMDL
MODEL 7
REMARK VINA RESULT:      -4.9     33.709     35.195
REMARK  Name = 
REMARK  3 active torsions:
REMARK  status: ('A' for Active; 'I' for Inactive)
REMARK    1  A    between atoms: N_8  and  C_9
REMARK    2  A    between atoms: C_9  and  C_10
REMARK    3  A    between atoms: C_10  and  C_11
REMARK                            x       y       z     vdW  Elec       q    Type
REMARK                         _______ _______ _______ _____ _____    ______ ____
ROOT
ATOM      1  C   UNL     1      19.959 -14.255  30.362  0.00  0.00    +0.000 C 
ATOM      2  C   UNL     1      19.380 -12.837  30.456  0.00  0.00    +0.000 C 
ATOM      3  C   UNL     1      18.961 -12.677  31.923  0.00  0.00    +0.000 C 
ATOM      4  C   UNL     1      20.453 -11.890  30.071  0.00  0.00    +0.000 C 
ATOM      5  C   UNL     1      20.019 -10.704  29.292  0.00  0.00    +0.000 C 
ATOM      6  C   UNL     1      21.161 -10.345  28.330  0.00  0.00    +0.000 C 
ATOM      7  O   UNL     1      19.818  -9.596  30.123  0.00  0.00    +0.000 OA
ATOM      8  N   UNL     1      18.856 -10.929  28.477  0.00  0.00    +0.000 N 
ATOM      9  C   UNL     1      17.920 -11.962  28.744  0.00  0.00    +0.000 C 
ATOM     10  S   UNL     1      16.396 -12.028  27.795  0.00  0.00    +0.000 S 
ATOM     11  N   UNL     1      18.206 -12.806  29.655  0.00  0.00    +0.000 NA
ENDROOT
BRANCH   8  12
ATOM     12  C   UNL     1      18.645 -10.054  27.340  0.00  0.00    +0.000 C 
BRANCH  12  13
ATOM     13  C   UNL     1      17.853  -8.843  27.728  0.00  0.00    +0.000 C 
BRANCH  13  14
ATOM     14  C   UNL     1      18.479  -7.640  27.123  0.00  0.00    +0.000 A 
ATOM     15  C   UNL     1      19.573  -7.758  26.279  0.00  0.00    +0.000 A 
ATOM     16  C   UNL     1      20.188  -6.682  25.694  0.00  0.00    +0.000 A 
ATOM     17  C   UNL     1      19.687  -5.419  25.963  0.00  0.00    +0.000 A 
ATOM     18  C   UNL     1      18.594  -5.278  26.804  0.00  0.00    +0.000 A 
ATOM     19  C   UNL     1      17.992  -6.381  27.381  0.00  0.00    +0.000 A 
ENDBRANCH  13  14
ENDBRANCH  12  13
ENDBRANCH   8  12
TORSDOF 3
ENDMDL
MODEL 8
REMARK VINA RESULT:      -4.9     20.935     23.048
REMARK  Name = 
REMARK  3 active torsions:
REMARK  status: ('A' for Active; 'I' for Inactive)
REMARK    1  A    between atoms: N_8  and  C_9
REMARK    2  A    between atoms: C_9  and  C_10
REMARK    3  A    between atoms: C_10  and  C_11
REMARK                            x       y       z     vdW  Elec       q    Type
REMARK                         _______ _______ _______ _____ _____    ______ ____
ROOT
ATOM      1  C   UNL     1      29.375   7.244  12.812  0.00  0.00    +0.000 C 
ATOM      2  C   UNL     1      28.709   7.299  14.193  0.00  0.00    +0.000 C 
ATOM      3  C   UNL     1      28.838   8.761  14.637  0.00  0.00    +0.000 C 
ATOM      4  C   UNL     1      27.297   6.884  14.024  0.00  0.00    +0.000 C 
ATOM      5  C   UNL     1      26.726   6.071  15.128  0.00  0.00    +0.000 C 
ATOM      6  C   UNL     1      25.716   5.097  14.504  0.00  0.00    +0.000 C 
ATOM      7  O   UNL     1      26.020   6.871  16.034  0.00  0.00    +0.000 OA
ATOM      8  N   UNL     1      27.691   5.267  15.826  0.00  0.00    +0.000 N 
ATOM      9  C   UNL     1      29.079   5.565  15.832  0.00  0.00    +0.000 C 
ATOM     10  S   UNL     1      30.172   4.623  16.902  0.00  0.00    +0.000 S 
ATOM     11  N   UNL     1      29.492   6.500  15.070  0.00  0.00    +0.000 NA
ENDROOT
BRANCH   8  12
ATOM     12  C   UNL     1      27.211   4.105  16.548  0.00  0.00    +0.000 C 
BRANCH  12  13
ATOM     13  C   UNL     1      26.545   4.503  17.831  0.00  0.00    +0.000 C 
BRANCH  13  14
ATOM     14  C   UNL     1      25.272   3.751  17.970  0.00  0.00    +0.000 A 
ATOM     15  C   UNL     1      25.244   2.372  17.830  0.00  0.00    +0.000 A 
ATOM     16  C   UNL     1      24.097   1.630  17.948  0.00  0.00    +0.000 A 
ATOM     17  C   UNL     1      22.914   2.297  18.221  0.00  0.00    +0.000 A 
ATOM     18  C   UNL     1      22.921   3.676  18.365  0.00  0.00    +0.000 A 
ATOM     19  C   UNL     1      24.091   4.400  18.241  0.00  0.00    +0.000 A 
ENDBRANCH  13  14
ENDBRANCH  12  13
ENDBRANCH   8  12
TORSDOF 3
ENDMDL
MODEL 9
REMARK VINA RESULT:      -4.9     16.412     19.073
REMARK  Name = 
REMARK  3 active torsions:
REMARK  status: ('A' for Active; 'I' for Inactive)
REMARK    1  A    between atoms: N_8  and  C_9
REMARK    2  A    between atoms: C_9  and  C_10
REMARK    3  A    between atoms: C_10  and  C_11
REMARK                            x       y       z     vdW  Elec       q    Type
REMARK                         _______ _______ _______ _____ _____    ______ ____
ROOT
ATOM      1  C   UNL     1      37.063  21.370   8.521  0.00  0.00    +0.000 C 
ATOM      2  C   UNL     1      36.131  21.989   9.571  0.00  0.00    +0.000 C 
ATOM      3  C   UNL     1      36.823  23.290   9.996  0.00  0.00    +0.000 C 
ATOM      4  C   UNL     1      34.823  22.233   8.919  0.00  0.00    +0.000 C 
ATOM      5  C   UNL     1      33.626  22.001   9.765  0.00  0.00    +0.000 C 
ATOM      6  C   UNL     1      32.508  21.487   8.846  0.00  0.00    +0.000 C 
ATOM      7  O   UNL     1      33.171  23.193  10.339  0.00  0.00    +0.000 OA
ATOM      8  N   UNL     1      33.809  21.001  10.782  0.00  0.00    +0.000 N 
ATOM      9  C   UNL     1      35.089  20.634  11.277  0.00  0.00    +0.000 C 
ATOM     10  S   UNL     1      35.197  19.530  12.689  0.00  0.00    +0.000 S 
ATOM     11  N   UNL     1      36.115  21.112  10.690  0.00  0.00    +0.000 NA
ENDROOT
BRANCH   8  12
ATOM     12  C   UNL     1      32.628  20.349  11.313  0.00  0.00    +0.000 C 
BRANCH  12  13
ATOM     13  C   UNL     1      32.153  21.024  12.564  0.00  0.00    +0.000 C 
BRANCH  13  14
ATOM     14  C   UNL     1      30.836  21.659  12.302  0.00  0.00    +0.000 A 
ATOM     15  C   UNL     1      30.342  22.641  13.148  0.00  0.00    +0.000 A 
ATOM     16  C   UNL     1      29.134  23.258  12.953  0.00  0.00    +0.000 A 
ATOM     17  C   UNL     1      28.377  22.881  11.857  0.00  0.00    +0.000 A 
ATOM     18  C   UNL     1      28.854  21.901  10.998  0.00  0.00    +0.000 A 
ATOM     19  C   UNL     1      30.076  21.294  11.217  0.00  0.00    +0.000 A 
ENDBRANCH  13  14
ENDBRANCH  12  13
ENDBRANCH   8  12
TORSDOF 3
ENDMDL
MODEL 10
REMARK VINA RESULT:      -4.8      3.503      5.561
REMARK  Name = 
REMARK  3 active torsions:
REMARK  status: ('A' for Active; 'I' for Inactive)
REMARK    1  A    between atoms: N_8  and  C_9
REMARK    2  A    between atoms: C_9  and  C_10
REMARK    3  A    between atoms: C_10  and  C_11
REMARK                            x       y       z     vdW  Elec       q    Type
REMARK                         _______ _______ _______ _____ _____    ______ ____
ROOT
ATOM      1  C   UNL     1      27.726  25.223  22.885  0.00  0.00    +0.000 C 
ATOM      2  C   UNL     1      27.488  24.582  24.258  0.00  0.00    +0.000 C 
ATOM      3  C   UNL     1      25.980  24.309  24.311  0.00  0.00    +0.000 C 
ATOM      4  C   UNL     1      28.288  23.336  24.315  0.00  0.00    +0.000 C 
ATOM      5  C   UNL     1      28.902  23.022  25.629  0.00  0.00    +0.000 C 
ATOM      6  C   UNL     1      30.236  22.312  25.353  0.00  0.00    +0.000 C 
ATOM      7  O   UNL     1      28.107  22.132  26.361  0.00  0.00    +0.000 OA
ATOM      8  N   UNL     1      29.213  24.178  26.424  0.00  0.00    +0.000 N 
ATOM      9  C   UNL     1      28.570  25.431  26.243  0.00  0.00    +0.000 C 
ATOM     10  S   UNL     1      28.878  26.751  27.421  0.00  0.00    +0.000 S 
ATOM     11  N   UNL     1      27.793  25.563  25.240  0.00  0.00    +0.000 NA
ENDROOT
BRANCH   8  12
ATOM     12  C   UNL     1      30.228  24.042  27.451  0.00  0.00    +0.000 C 
BRANCH  12  13
ATOM     13  C   UNL     1      29.650  23.476  28.712  0.00  0.00    +0.000 C 
BRANCH  13  14
ATOM     14  C   UNL     1      30.689  22.669  29.403  0.00  0.00    +0.000 A 
ATOM     15  C   UNL     1      30.568  22.361  30.749  0.00  0.00    +0.000 A 
ATOM     16  C   UNL     1      31.497  21.621  31.434  0.00  0.00    +0.000 A 
ATOM     17  C   UNL     1      32.604  21.162  30.742  0.00  0.00    +0.000 A 
ATOM     18  C   UNL     1      32.744  21.458  29.394  0.00  0.00    +0.000 A 
ATOM     19  C   UNL     1      31.792  22.207  28.727  0.00  0.00    +0.000 A 
ENDBRANCH  13  14
ENDBRANCH  12  13
ENDBRANCH   8  12
TORSDOF 3
ENDMDL
