MODEL 1
REMARK VINA RESULT:      -7.1      0.000      0.000
REMARK  Name = 
REMARK  2 active torsions:
REMARK  status: ('A' for Active; 'I' for Inactive)
REMARK    1  A    between atoms: C_7  and  C_8
REMARK    2  A    between atoms: C_11  and  C_12
REMARK                            x       y       z     vdW  Elec       q    Type
REMARK                         _______ _______ _______ _____ _____    ______ ____
ROOT
ATOM      1  C   UNL     1      13.822  12.891  36.655  0.00  0.00    +0.000 C 
ATOM      2  C   UNL     1      14.007  13.005  35.183  0.00  0.00    +0.000 A 
ATOM      3  C   UNL     1      13.582  14.133  34.474  0.00  0.00    +0.000 A 
ATOM      4  C   UNL     1      13.743  14.260  33.112  0.00  0.00    +0.000 A 
ATOM      5  O   UNL     1      13.309  15.399  32.426  0.00  0.00    +0.000 OA
ATOM      6  C   UNL     1      14.353  13.213  32.457  0.00  0.00    +0.000 A 
ATOM      7  C   UNL     1      14.779  12.093  33.138  0.00  0.00    +0.000 A 
ATOM      8  C   UNL     1      14.612  11.978  34.497  0.00  0.00    +0.000 A 
ENDROOT
BRANCH   8   9
ATOM      9  C   UNL     1      15.101  10.727  35.255  0.00  0.00    +0.000 C 
ATOM     10  N   UNL     1      16.525  10.747  34.678  0.00  0.00    +0.000 NA
ATOM     11  C   UNL     1      17.447  10.468  35.662  0.00  0.00    +0.000 A 
ATOM     12  C   UNL     1      18.674   9.833  35.376  0.00  0.00    +0.000 A 
ATOM     13  C   UNL     1      19.552   9.571  36.392  0.00  0.00    +0.000 A 
ATOM     14  C   UNL     1      19.257   9.920  37.702  0.00  0.00    +0.000 A 
ATOM     15  C   UNL     1      18.065  10.537  37.976  0.00  0.00    +0.000 A 
ATOM     16  C   UNL     1      17.193  10.791  36.931  0.00  0.00    +0.000 A 
ATOM     17  S   UNL     1      15.570  11.580  36.895  0.00  0.00    +0.000 S 
ENDBRANCH   8   9
BRANCH   7  18
ATOM     18  C   UNL     1      15.451  10.939  32.471  0.00  0.00    +0.000 C 
ATOM     19  C   UNL     1      14.317  10.026  31.980  0.00  0.00    +0.000 C 
ATOM     20  C   UNL     1      16.165  11.388  31.212  0.00  0.00    +0.000 C 
ENDBRANCH   7  18
TORSDOF 2
ENDMDL
MODEL 2
REMARK VINA RESULT:      -6.8     27.698     30.277
REMARK  Name = 
REMARK  2 active torsions:
REMARK  status: ('A' for Active; 'I' for Inactive)
REMARK    1  A    between atoms: C_7  and  C_8
REMARK    2  A    between atoms: C_11  and  C_12
REMARK                            x       y       z     vdW  Elec       q    Type
REMARK                         _______ _______ _______ _____ _____    ______ ____
ROOT
ATOM      1  C   UNL     1      31.089  21.530  13.084  0.00  0.00    +0.000 C 
ATOM      2  C   UNL     1      31.879  21.357  11.834  0.00  0.00    +0.000 A 
ATOM      3  C   UNL     1      32.930  20.438  11.751  0.00  0.00    +0.000 A 
ATOM      4  C   UNL     1      33.674  20.262  10.606  0.00  0.00    +0.000 A 
ATOM      5  O   UNL     1      34.721  19.336  10.547  0.00  0.00    +0.000 OA
ATOM      6  C   UNL     1      33.338  21.040   9.520  0.00  0.00    +0.000 A 
ATOM      7  C   UNL     1      32.305  21.950   9.582  0.00  0.00    +0.000 A 
ATOM      8  C   UNL     1      31.571  22.117  10.731  0.00  0.00    +0.000 A 
ENDROOT
BRANCH   8   9
ATOM      9  C   UNL     1      30.409  23.130  10.791  0.00  0.00    +0.000 C 
ATOM     10  N   UNL     1      29.292  22.089  10.627  0.00  0.00    +0.000 NA
ATOM     11  C   UNL     1      28.247  22.366  11.479  0.00  0.00    +0.000 A 
ATOM     12  C   UNL     1      26.915  22.022  11.164  0.00  0.00    +0.000 A 
ATOM     13  C   UNL     1      25.912  22.326  12.043  0.00  0.00    +0.000 A 
ATOM     14  C   UNL     1      26.181  22.970  13.241  0.00  0.00    +0.000 A 
ATOM     15  C   UNL     1      27.475  23.303  13.545  0.00  0.00    +0.000 A 
ATOM     16  C   UNL     1      28.472  22.984  12.640  0.00  0.00    +0.000 A 
ATOM     17  S   UNL     1      30.258  23.244  12.689  0.00  0.00    +0.000 S 
ENDBRANCH   8   9
BRANCH   7  18
ATOM     18  C   UNL     1      31.903  22.807   8.428  0.00  0.00    +0.000 C 
ATOM     19  C   UNL     1      33.212  23.359   7.843  0.00  0.00    +0.000 C 
ATOM     20  C   UNL     1      31.301  21.967   7.319  0.00  0.00    +0.000 C 
ENDBRANCH   7  18
TORSDOF 2
ENDMDL
MODEL 3
REMARK VINA RESULT:      -6.4     21.085     22.854
REMARK  Name = 
REMARK  2 active torsions:
REMARK  status: ('A' for Active; 'I' for Inactive)
REMARK    1  A    between atoms: C_7  and  C_8
REMARK    2  A    between atoms: C_11  and  C_12
REMARK                            x       y       z     vdW  Elec       q    Type
REMARK                         _______ _______ _______ _____ _____    ______ ____
ROOT
ATOM      1  C   UNL     1      22.091 -10.204  26.501  0.00  0.00    +0.000 C 
ATOM      2  C   UNL     1      20.883  -9.583  27.109  0.00  0.00    +0.000 A 
ATOM      3  C   UNL     1      20.439  -9.939  28.388  0.00  0.00    +0.000 A 
ATOM      4  C   UNL     1      19.324  -9.378  28.970  0.00  0.00    +0.000 A 
ATOM      5  O   UNL     1      18.901  -9.751  30.250  0.00  0.00    +0.000 OA
ATOM      6  C   UNL     1      18.646  -8.433  28.233  0.00  0.00    +0.000 A 
ATOM      7  C   UNL     1      19.068  -8.069  26.972  0.00  0.00    +0.000 A 
ATOM      8  C   UNL     1      20.181  -8.636  26.402  0.00  0.00    +0.000 A 
ENDROOT
BRANCH   8   9
ATOM      9  C   UNL     1      20.655  -8.217  24.995  0.00  0.00    +0.000 C 
ATOM     10  N   UNL     1      21.762  -7.271  25.483  0.00  0.00    +0.000 NA
ATOM     11  C   UNL     1      22.898  -7.425  24.721  0.00  0.00    +0.000 A 
ATOM     12  C   UNL     1      23.801  -6.363  24.503  0.00  0.00    +0.000 A 
ATOM     13  C   UNL     1      24.911  -6.568  23.730  0.00  0.00    +0.000 A 
ATOM     14  C   UNL     1      25.166  -7.804  23.154  0.00  0.00    +0.000 A 
ATOM     15  C   UNL     1      24.287  -8.833  23.368  0.00  0.00    +0.000 A 
ATOM     16  C   UNL     1      23.172  -8.602  24.154  0.00  0.00    +0.000 A 
ATOM     17  S   UNL     1      21.822  -9.688  24.661  0.00  0.00    +0.000 S 
ENDBRANCH   8   9
BRANCH   7  18
ATOM     18  C   UNL     1      18.369  -7.045  26.142  0.00  0.00    +0.000 C 
ATOM     19  C   UNL     1      16.867  -7.325  26.313  0.00  0.00    +0.000 C 
ATOM     20  C   UNL     1      18.575  -5.656  26.715  0.00  0.00    +0.000 C 
ENDBRANCH   7  18
TORSDOF 2
ENDMDL
MODEL 4
REMARK VINA RESULT:      -6.3     18.710     20.171
REMARK  Name = 
REMARK  2 active torsions:
REMARK  status: ('A' for Active; 'I' for Inactive)
REMARK    1  A    between atoms: C_7  and  C_8
REMARK    2  A    between atoms: C_11  and  C_12
REMARK                            x       y       z     vdW  Elec       q    Type
REMARK                         _______ _______ _______ _____ _____    ______ ____
ROOT
ATOM      1  C   UNL     1      25.704  23.137  23.259  0.00  0.00    +0.000 C 
ATOM      2  C   UNL     1      27.146  23.501  23.200  0.00  0.00    +0.000 A 
ATOM      3  C   UNL     1      27.750  23.919  22.009  0.00  0.00    +0.000 A 
ATOM      4  C   UNL     1      29.082  24.260  21.932  0.00  0.00    +0.000 A 
ATOM      5  O   UNL     1      29.663  24.676  20.729  0.00  0.00    +0.000 OA
ATOM      6  C   UNL     1      29.815  24.173  23.095  0.00  0.00    +0.000 A 
ATOM      7  C   UNL     1      29.238  23.764  24.277  0.00  0.00    +0.000 A 
ATOM      8  C   UNL     1      27.909  23.426  24.342  0.00  0.00    +0.000 A 
ENDROOT
BRANCH   8   9
ATOM      9  C   UNL     1      27.266  22.978  25.671  0.00  0.00    +0.000 C 
ATOM     10  N   UNL     1      27.946  24.050  26.536  0.00  0.00    +0.000 NA
ATOM     11  C   UNL     1      27.053  24.574  27.444  0.00  0.00    +0.000 A 
ATOM     12  C   UNL     1      27.467  25.069  28.698  0.00  0.00    +0.000 A 
ATOM     13  C   UNL     1      26.538  25.572  29.567  0.00  0.00    +0.000 A 
ATOM     14  C   UNL     1      25.191  25.603  29.237  0.00  0.00    +0.000 A 
ATOM     15  C   UNL     1      24.792  25.122  28.018  0.00  0.00    +0.000 A 
ATOM     16  C   UNL     1      25.751  24.619  27.156  0.00  0.00    +0.000 A 
ATOM     17  S   UNL     1      25.617  23.922  25.496  0.00  0.00    +0.000 S 
ENDBRANCH   8   9
BRANCH   7  18
ATOM     18  C   UNL     1      29.993  23.663  25.561  0.00  0.00    +0.000 C 
ATOM     19  C   UNL     1      30.843  22.388  25.444  0.00  0.00    +0.000 C 
ATOM     20  C   UNL     1      30.996  24.792  25.685  0.00  0.00    +0.000 C 
ENDBRANCH   7  18
TORSDOF 2
ENDMDL
MODEL 5
REMARK VINA RESULT:      -6.3     17.763     19.282
REMARK  Name = 
REMARK  2 active torsions:
REMARK  status: ('A' for Active; 'I' for Inactive)
REMARK    1  A    between atoms: C_7  and  C_8
REMARK    2  A    between atoms: C_11  and  C_12
REMARK                            x       y       z     vdW  Elec       q    Type
REMARK                         _______ _______ _______ _____ _____    ______ ____
ROOT
ATOM      1  C   UNL     1      31.174  22.483  27.380  0.00  0.00    +0.000 C 
ATOM      2  C   UNL     1      30.326  22.967  28.503  0.00  0.00    +0.000 A 
ATOM      3  C   UNL     1      30.870  23.664  29.588  0.00  0.00    +0.000 A 
ATOM      4  C   UNL     1      30.103  24.120  30.637  0.00  0.00    +0.000 A 
ATOM      5  O   UNL     1      30.671  24.815  31.710  0.00  0.00    +0.000 OA
ATOM      6  C   UNL     1      28.752  23.862  30.579  0.00  0.00    +0.000 A 
ATOM      7  C   UNL     1      28.197  23.178  29.519  0.00  0.00    +0.000 A 
ATOM      8  C   UNL     1      28.972  22.727  28.479  0.00  0.00    +0.000 A 
ENDROOT
BRANCH   8   9
ATOM      9  C   UNL     1      28.344  21.971  27.289  0.00  0.00    +0.000 C 
ATOM     10  N   UNL     1      27.189  22.960  27.074  0.00  0.00    +0.000 NA
ATOM     11  C   UNL     1      26.996  23.190  25.730  0.00  0.00    +0.000 A 
ATOM     12  C   UNL     1      25.728  23.512  25.203  0.00  0.00    +0.000 A 
ATOM     13  C   UNL     1      25.589  23.723  23.858  0.00  0.00    +0.000 A 
ATOM     14  C   UNL     1      26.675  23.624  23.001  0.00  0.00    +0.000 A 
ATOM     15  C   UNL     1      27.905  23.310  23.516  0.00  0.00    +0.000 A 
ATOM     16  C   UNL     1      28.021  23.102  24.880  0.00  0.00    +0.000 A 
ATOM     17  S   UNL     1      29.445  22.691  25.909  0.00  0.00    +0.000 S 
ENDBRANCH   8   9
BRANCH   7  18
ATOM     18  C   UNL     1      26.738  22.883  29.412  0.00  0.00    +0.000 C 
ATOM     19  C   UNL     1      26.478  21.716  30.378  0.00  0.00    +0.000 C 
ATOM     20  C   UNL     1      25.916  24.033  29.958  0.00  0.00    +0.000 C 
ENDBRANCH   7  18
TORSDOF 2
ENDMDL
MODEL 6
REMARK VINA RESULT:      -6.2     17.411     18.876
REMARK  Name = 
REMARK  2 active torsions:
REMARK  status: ('A' for Active; 'I' for Inactive)
REMARK    1  A    between atoms: C_7  and  C_8
REMARK    2  A    between atoms: C_11  and  C_12
REMARK                            x       y       z     vdW  Elec       q    Type
REMARK                         _______ _______ _______ _____ _____    ______ ____
ROOT
ATOM      1  C   UNL     1      25.006  25.189  25.925  0.00  0.00    +0.000 C 
ATOM      2  C   UNL     1      25.274  24.974  27.373  0.00  0.00    +0.000 A 
ATOM      3  C   UNL     1      24.743  25.821  28.352  0.00  0.00    +0.000 A 
ATOM      4  C   UNL     1      24.978  25.641  29.697  0.00  0.00    +0.000 A 
ATOM      5  O   UNL     1      24.434  26.502  30.657  0.00  0.00    +0.000 OA
ATOM      6  C   UNL     1      25.772  24.574  30.053  0.00  0.00    +0.000 A 
ATOM      7  C   UNL     1      26.304  23.728  29.104  0.00  0.00    +0.000 A 
ATOM      8  C   UNL     1      26.063  23.918  27.765  0.00  0.00    +0.000 A 
ENDROOT
BRANCH   8   9
ATOM      9  C   UNL     1      26.653  22.962  26.708  0.00  0.00    +0.000 C 
ATOM     10  N   UNL     1      26.056  23.691  25.495  0.00  0.00    +0.000 NA
ATOM     11  C   UNL     1      26.979  23.769  24.477  0.00  0.00    +0.000 A 
ATOM     12  C   UNL     1      26.595  23.799  23.120  0.00  0.00    +0.000 A 
ATOM     13  C   UNL     1      27.554  23.869  22.147  0.00  0.00    +0.000 A 
ATOM     14  C   UNL     1      28.902  23.911  22.471  0.00  0.00    +0.000 A 
ATOM     15  C   UNL     1      29.273  23.882  23.790  0.00  0.00    +0.000 A 
ATOM     16  C   UNL     1      28.284  23.811  24.756  0.00  0.00    +0.000 A 
ATOM     17  S   UNL     1      28.376  23.766  26.558  0.00  0.00    +0.000 S 
ENDBRANCH   8   9
BRANCH   7  18
ATOM     18  C   UNL     1      27.163  22.556  29.445  0.00  0.00    +0.000 C 
ATOM     19  C   UNL     1      28.310  23.116  30.300  0.00  0.00    +0.000 C 
ATOM     20  C   UNL     1      26.426  21.597  30.358  0.00  0.00    +0.000 C 
ENDBRANCH   7  18
TORSDOF 2
ENDMDL
MODEL 7
REMARK VINA RESULT:      -6.2     21.673     23.609
REMARK  Name = 
REMARK  2 active torsions:
REMARK  status: ('A' for Active; 'I' for Inactive)
REMARK    1  A    between atoms: C_7  and  C_8
REMARK    2  A    between atoms: C_11  and  C_12
REMARK                            x       y       z     vdW  Elec       q    Type
REMARK                         _______ _______ _______ _____ _____    ______ ____
ROOT
ATOM      1  C   UNL     1      21.062 -10.375  26.632  0.00  0.00    +0.000 C 
ATOM      2  C   UNL     1      22.372 -10.140  25.965  0.00  0.00    +0.000 A 
ATOM      3  C   UNL     1      23.530 -10.816  26.362  0.00  0.00    +0.000 A 
ATOM      4  C   UNL     1      24.752 -10.614  25.760  0.00  0.00    +0.000 A 
ATOM      5  O   UNL     1      25.896 -11.303  26.175  0.00  0.00    +0.000 OA
ATOM      6  C   UNL     1      24.795  -9.702  24.729  0.00  0.00    +0.000 A 
ATOM      7  C   UNL     1      23.665  -9.026  24.323  0.00  0.00    +0.000 A 
ATOM      8  C   UNL     1      22.451  -9.235  24.932  0.00  0.00    +0.000 A 
ENDROOT
BRANCH   8   9
ATOM      9  C   UNL     1      21.187  -8.484  24.467  0.00  0.00    +0.000 C 
ATOM     10  N   UNL     1      20.390  -8.712  25.760  0.00  0.00    +0.000 NA
ATOM     11  C   UNL     1      19.716  -7.567  26.119  0.00  0.00    +0.000 A 
ATOM     12  C   UNL     1      18.497  -7.608  26.827  0.00  0.00    +0.000 A 
ATOM     13  C   UNL     1      17.864  -6.440  27.152  0.00  0.00    +0.000 A 
ATOM     14  C   UNL     1      18.399  -5.211  26.797  0.00  0.00    +0.000 A 
ATOM     15  C   UNL     1      19.584  -5.174  26.108  0.00  0.00    +0.000 A 
ATOM     16  C   UNL     1      20.206  -6.369  25.791  0.00  0.00    +0.000 A 
ATOM     17  S   UNL     1      21.748  -6.719  24.922  0.00  0.00    +0.000 S 
ENDBRANCH   8   9
BRANCH   7  18
ATOM     18  C   UNL     1      23.663  -8.035  23.207  0.00  0.00    +0.000 C 
ATOM     19  C   UNL     1      24.983  -7.258  23.338  0.00  0.00    +0.000 C 
ATOM     20  C   UNL     1      23.753  -8.736  21.866  0.00  0.00    +0.000 C 
ENDBRANCH   7  18
TORSDOF 2
ENDMDL
MODEL 8
REMARK VINA RESULT:      -6.2     21.007     22.666
REMARK  Name = 
REMARK  2 active torsions:
REMARK  status: ('A' for Active; 'I' for Inactive)
REMARK    1  A    between atoms: C_7  and  C_8
REMARK    2  A    between atoms: C_11  and  C_12
REMARK                            x       y       z     vdW  Elec       q    Type
REMARK                         _______ _______ _______ _____ _____    ______ ____
ROOT
ATOM      1  C   UNL     1      21.903  -6.939  24.853  0.00  0.00    +0.000 C 
ATOM      2  C   UNL     1      20.555  -6.837  25.477  0.00  0.00    +0.000 A 
ATOM      3  C   UNL     1      19.988  -5.600  25.799  0.00  0.00    +0.000 A 
ATOM      4  C   UNL     1      18.743  -5.482  26.377  0.00  0.00    +0.000 A 
ATOM      5  O   UNL     1      18.197  -4.233  26.690  0.00  0.00    +0.000 OA
ATOM      6  C   UNL     1      18.061  -6.651  26.631  0.00  0.00    +0.000 A 
ATOM      7  C   UNL     1      18.604  -7.879  26.320  0.00  0.00    +0.000 A 
ATOM      8  C   UNL     1      19.846  -7.984  25.745  0.00  0.00    +0.000 A 
ENDROOT
BRANCH   8   9
ATOM      9  C   UNL     1      20.444  -9.361  25.389  0.00  0.00    +0.000 C 
ATOM     10  N   UNL     1      21.862  -8.843  25.108  0.00  0.00    +0.000 NA
ATOM     11  C   UNL     1      22.801  -9.696  25.642  0.00  0.00    +0.000 A 
ATOM     12  C   UNL     1      24.082  -9.850  25.071  0.00  0.00    +0.000 A 
ATOM     13  C   UNL     1      24.975 -10.717  25.637  0.00  0.00    +0.000 A 
ATOM     14  C   UNL     1      24.644 -11.452  26.766  0.00  0.00    +0.000 A 
ATOM     15  C   UNL     1      23.399 -11.302  27.319  0.00  0.00    +0.000 A 
ATOM     16  C   UNL     1      22.513 -10.417  26.728  0.00  0.00    +0.000 A 
ATOM     17  S   UNL     1      20.825  -9.949  27.163  0.00  0.00    +0.000 S 
ENDBRANCH   8   9
BRANCH   7  18
ATOM     18  C   UNL     1      17.898  -9.170  26.571  0.00  0.00    +0.000 C 
ATOM     19  C   UNL     1      17.378  -9.086  28.015  0.00  0.00    +0.000 C 
ATOM     20  C   UNL     1      16.653  -9.278  25.713  0.00  0.00    +0.000 C 
ENDBRANCH   7  18
TORSDOF 2
ENDMDL
MODEL 9
REMARK VINA RESULT:      -6.1     21.642     23.779
REMARK  Name = 
REMARK  2 active torsions:
REMARK  status: ('A' for Active; 'I' for Inactive)
REMARK    1  A    between atoms: C_7  and  C_8
REMARK    2  A    between atoms: C_11  and  C_12
REMARK                            x       y       z     vdW  Elec       q    Type
REMARK                         _______ _______ _______ _____ _____    ______ ____
ROOT
ATOM      1  C   UNL     1      30.931  -5.932  34.864  0.00  0.00    +0.000 C 
ATOM      2  C   UNL     1      31.310  -6.193  33.449  0.00  0.00    +0.000 A 
ATOM      3  C   UNL     1      30.493  -6.942  32.596  0.00  0.00    +0.000 A 
ATOM      4  C   UNL     1      30.824  -7.197  31.283  0.00  0.00    +0.000 A 
ATOM      5  O   UNL     1      29.990  -7.948  30.450  0.00  0.00    +0.000 OA
ATOM      6  C   UNL     1      32.015  -6.674  30.829  0.00  0.00    +0.000 A 
ATOM      7  C   UNL     1      32.834  -5.934  31.654  0.00  0.00    +0.000 A 
ATOM      8  C   UNL     1      32.493  -5.688  32.962  0.00  0.00    +0.000 A 
ENDROOT
BRANCH   8   9
ATOM      9  C   UNL     1      33.408  -4.848  33.878  0.00  0.00    +0.000 C 
ATOM     10  N   UNL     1      33.442  -3.612  32.966  0.00  0.00    +0.000 NA
ATOM     11  C   UNL     1      33.329  -2.461  33.712  0.00  0.00    +0.000 A 
ATOM     12  C   UNL     1      33.914  -1.245  33.301  0.00  0.00    +0.000 A 
ATOM     13  C   UNL     1      33.778  -0.131  34.084  0.00  0.00    +0.000 A 
ATOM     14  C   UNL     1      33.074  -0.176  35.279  0.00  0.00    +0.000 A 
ATOM     15  C   UNL     1      32.507  -1.358  35.675  0.00  0.00    +0.000 A 
ATOM     16  C   UNL     1      32.658  -2.471  34.866  0.00  0.00    +0.000 A 
ATOM     17  S   UNL     1      32.060  -4.165  35.041  0.00  0.00    +0.000 S 
ENDBRANCH   8   9
BRANCH   7  18
ATOM     18  C   UNL     1      34.128  -5.343  31.203  0.00  0.00    +0.000 C 
ATOM     19  C   UNL     1      35.180  -6.445  31.404  0.00  0.00    +0.000 C 
ATOM     20  C   UNL     1      34.110  -5.087  29.709  0.00  0.00    +0.000 C 
ENDBRANCH   7  18
TORSDOF 2
ENDMDL
MODEL 10
REMARK VINA RESULT:      -6.1     17.945     19.511
REMARK  Name = 
REMARK  2 active torsions:
REMARK  status: ('A' for Active; 'I' for Inactive)
REMARK    1  A    between atoms: C_7  and  C_8
REMARK    2  A    between atoms: C_11  and  C_12
REMARK                            x       y       z     vdW  Elec       q    Type
REMARK                         _______ _______ _______ _____ _____    ______ ____
ROOT
ATOM      1  C   UNL     1      29.065  22.207  27.228  0.00  0.00    +0.000 C 
ATOM      2  C   UNL     1      27.992  22.754  28.103  0.00  0.00    +0.000 A 
ATOM      3  C   UNL     1      27.413  21.988  29.121  0.00  0.00    +0.000 A 
ATOM      4  C   UNL     1      26.419  22.474  29.941  0.00  0.00    +0.000 A 
ATOM      5  O   UNL     1      25.856  21.689  30.953  0.00  0.00    +0.000 OA
ATOM      6  C   UNL     1      26.006  23.769  29.720  0.00  0.00    +0.000 A 
ATOM      7  C   UNL     1      26.565  24.539  28.723  0.00  0.00    +0.000 A 
ATOM      8  C   UNL     1      27.555  24.043  27.910  0.00  0.00    +0.000 A 
ENDROOT
BRANCH   8   9
ATOM      9  C   UNL     1      28.184  24.913  26.802  0.00  0.00    +0.000 C 
ATOM     10  N   UNL     1      28.609  23.738  25.909  0.00  0.00    +0.000 NA
ATOM     11  C   UNL     1      28.349  24.018  24.587  0.00  0.00    +0.000 A 
ATOM     12  C   UNL     1      29.129  23.480  23.542  0.00  0.00    +0.000 A 
ATOM     13  C   UNL     1      28.833  23.798  22.244  0.00  0.00    +0.000 A 
ATOM     14  C   UNL     1      27.777  24.643  21.937  0.00  0.00    +0.000 A 
ATOM     15  C   UNL     1      27.021  25.164  22.954  0.00  0.00    +0.000 A 
ATOM     16  C   UNL     1      27.340  24.828  24.258  0.00  0.00    +0.000 A 
ATOM     17  S   UNL     1      26.587  25.296  25.830  0.00  0.00    +0.000 S 
ENDBRANCH   8   9
BRANCH   7  18
ATOM     18  C   UNL     1      26.153  25.948  28.453  0.00  0.00    +0.000 C 
ATOM     19  C   UNL     1      24.660  26.021  28.809  0.00  0.00    +0.000 C 
ATOM     20  C   UNL     1      26.833  26.900  29.416  0.00  0.00    +0.000 C 
ENDBRANCH   7  18
TORSDOF 2
ENDMDL
