MODEL 1
REMARK VINA RESULT:      -8.3      0.000      0.000
REMARK  Name = 
REMARK  7 active torsions:
REMARK  status: ('A' for Active; 'I' for Inactive)
REMARK    1  A    between atoms: C_6  and  C_7
REMARK    2  A    between atoms: C_10  and  N_11
REMARK    3  A    between atoms: C_12  and  C_14
REMARK    4  A    between atoms: C_14  and  C_15
REMARK    5  A    between atoms: C_15  and  N_16
REMARK    6  A    between atoms: C_15  and  C_25
REMARK    7  A    between atoms: C_17  and  C_19
REMARK                            x       y       z     vdW  Elec       q    Type
REMARK                         _______ _______ _______ _____ _____    ______ ____
ROOT
ATOM      1  C   UNL     1      36.381   3.642  14.906  0.00  0.00    +0.000 C 
ENDROOT
BRANCH   1   2
ATOM      2  C   UNL     1      35.880   4.715  13.821  0.00  0.00    +0.000 A 
ATOM      3  C   UNL     1      36.467   4.815  12.627  0.00  0.00    +0.000 A 
ATOM      4  C   UNL     1      36.032   5.751  11.717  0.00  0.00    +0.000 A 
ATOM      5  C   UNL     1      34.971   6.597  12.052  0.00  0.00    +0.000 A 
ATOM      6  C   UNL     1      34.386   6.466  13.295  0.00  0.00    +0.000 A 
ATOM      7  C   UNL     1      34.824   5.524  14.212  0.00  0.00    +0.000 A 
ENDBRANCH   1   2
BRANCH   1   8
ATOM      8  N   UNL     1      37.540   4.550  15.454  0.00  0.00    +0.000 NA
ATOM      9  C   UNL     1      37.950   4.285  16.783  0.00  0.00    +0.000 C 
ATOM     10  O   UNL     1      37.376   3.361  17.420  0.00  0.00    +0.000 OA
BRANCH   9  11
ATOM     11  C   UNL     1      39.010   5.077  17.373  0.00  0.00    +0.000 A 
ATOM     12  C   UNL     1      39.991   5.590  16.564  0.00  0.00    +0.000 A 
ATOM     13  C   UNL     1      40.993   6.324  17.098  0.00  0.00    +0.000 A 
ATOM     14  C   UNL     1      41.084   6.596  18.462  0.00  0.00    +0.000 A 
ATOM     15  C   UNL     1      40.067   6.055  19.246  0.00  0.00    +0.000 A 
ATOM     16  C   UNL     1      39.045   5.308  18.716  0.00  0.00    +0.000 A 
ENDBRANCH   9  11
ENDBRANCH   1   8
BRANCH   1  17
ATOM     17  C   UNL     1      37.327   2.805  13.865  0.00  0.00    +0.000 C 
BRANCH  17  19
ATOM     18  N   UNL     1      37.888   0.860  15.389  0.00  0.00    +0.000 NA
ATOM     19  C   UNL     1      37.172   1.377  14.334  0.00  0.00    +0.000 C 
ATOM     20  O   UNL     1      36.367   0.673  13.732  0.00  0.00    +0.000 OA
BRANCH  18  27
ATOM     21  C   UNL     1      40.043  -0.629  14.618  0.00  0.00    +0.000 C 
ATOM     22  C   UNL     1      38.999  -1.186  15.552  0.00  0.00    +0.000 A 
ATOM     23  C   UNL     1      39.163  -2.463  15.997  0.00  0.00    +0.000 A 
ATOM     24  C   UNL     1      38.262  -3.032  16.841  0.00  0.00    +0.000 A 
ATOM     25  C   UNL     1      37.193  -2.297  17.231  0.00  0.00    +0.000 A 
ATOM     26  C   UNL     1      37.015  -1.004  16.787  0.00  0.00    +0.000 A 
ATOM     27  C   UNL     1      37.890  -0.392  15.945  0.00  0.00    +0.000 A 
BRANCH  26  28
ATOM     28  C   UNL     1      35.797  -0.320  17.215  0.00  0.00    +0.000 C 
ATOM     29  C   UNL     1      35.853   0.025  18.691  0.00  0.00    +0.000 C 
ATOM     30  C   UNL     1      34.680  -1.381  17.057  0.00  0.00    +0.000 C 
ENDBRANCH  26  28
ENDBRANCH  18  27
ENDBRANCH  17  19
ENDBRANCH   1  17
TORSDOF 7
ENDMDL
MODEL 2
REMARK VINA RESULT:      -8.2      1.224      2.611
REMARK  Name = 
REMARK  7 active torsions:
REMARK  status: ('A' for Active; 'I' for Inactive)
REMARK    1  A    between atoms: C_6  and  C_7
REMARK    2  A    between atoms: C_10  and  N_11
REMARK    3  A    between atoms: C_12  and  C_14
REMARK    4  A    between atoms: C_14  and  C_15
REMARK    5  A    between atoms: C_15  and  N_16
REMARK    6  A    between atoms: C_15  and  C_25
REMARK    7  A    between atoms: C_17  and  C_19
REMARK                            x       y       z     vdW  Elec       q    Type
REMARK                         _______ _______ _______ _____ _____    ______ ____
ROOT
ATOM      1  C   UNL     1      37.335   4.135  15.846  0.00  0.00    +0.000 C 
ENDROOT
BRANCH   1   2
ATOM      2  C   UNL     1      36.900   5.086  14.628  0.00  0.00    +0.000 A 
ATOM      3  C   UNL     1      35.709   4.954  14.041  0.00  0.00    +0.000 A 
ATOM      4  C   UNL     1      35.360   5.769  12.989  0.00  0.00    +0.000 A 
ATOM      5  C   UNL     1      36.263   6.738  12.540  0.00  0.00    +0.000 A 
ATOM      6  C   UNL     1      37.485   6.848  13.170  0.00  0.00    +0.000 A 
ATOM      7  C   UNL     1      37.837   6.027  14.229  0.00  0.00    +0.000 A 
ENDBRANCH   1   2
BRANCH   1   8
ATOM      8  N   UNL     1      38.467   5.099  16.358  0.00  0.00    +0.000 NA
ATOM      9  C   UNL     1      38.883   4.900  17.697  0.00  0.00    +0.000 C 
ATOM     10  O   UNL     1      38.335   3.986  18.370  0.00  0.00    +0.000 OA
BRANCH   9  11
ATOM     11  C   UNL     1      39.917   5.746  18.255  0.00  0.00    +0.000 A 
ATOM     12  C   UNL     1      40.975   6.118  17.465  0.00  0.00    +0.000 A 
ATOM     13  C   UNL     1      41.955   6.900  17.971  0.00  0.00    +0.000 A 
ATOM     14  C   UNL     1      41.948   7.361  19.286  0.00  0.00    +0.000 A 
ATOM     15  C   UNL     1      40.855   6.959  20.052  0.00  0.00    +0.000 A 
ATOM     16  C   UNL     1      39.854   6.166  19.550  0.00  0.00    +0.000 A 
ENDBRANCH   9  11
ENDBRANCH   1   8
BRANCH   1  17
ATOM     17  C   UNL     1      38.333   3.194  14.955  0.00  0.00    +0.000 C 
BRANCH  17  19
ATOM     18  N   UNL     1      37.396   1.167  16.151  0.00  0.00    +0.000 NA
ATOM     19  C   UNL     1      37.650   1.847  14.982  0.00  0.00    +0.000 C 
ATOM     20  O   UNL     1      37.317   1.365  13.905  0.00  0.00    +0.000 OA
BRANCH  18  27
ATOM     21  C   UNL     1      34.764   1.392  16.840  0.00  0.00    +0.000 C 
ATOM     22  C   UNL     1      35.434   0.046  16.738  0.00  0.00    +0.000 A 
ATOM     23  C   UNL     1      34.684  -1.059  17.006  0.00  0.00    +0.000 A 
ATOM     24  C   UNL     1      35.221  -2.305  16.934  0.00  0.00    +0.000 A 
ATOM     25  C   UNL     1      36.526  -2.424  16.589  0.00  0.00    +0.000 A 
ATOM     26  C   UNL     1      37.296  -1.314  16.315  0.00  0.00    +0.000 A 
ATOM     27  C   UNL     1      36.803  -0.049  16.372  0.00  0.00    +0.000 A 
BRANCH  26  28
ATOM     28  C   UNL     1      38.707  -1.548  16.015  0.00  0.00    +0.000 C 
ATOM     29  C   UNL     1      38.916  -1.799  14.535  0.00  0.00    +0.000 C 
ATOM     30  C   UNL     1      39.043  -2.876  16.736  0.00  0.00    +0.000 C 
ENDBRANCH  26  28
ENDBRANCH  18  27
ENDBRANCH  17  19
ENDBRANCH   1  17
TORSDOF 7
ENDMDL
MODEL 3
REMARK VINA RESULT:      -8.0      1.566      4.907
REMARK  Name = 
REMARK  7 active torsions:
REMARK  status: ('A' for Active; 'I' for Inactive)
REMARK    1  A    between atoms: C_6  and  C_7
REMARK    2  A    between atoms: C_10  and  N_11
REMARK    3  A    between atoms: C_12  and  C_14
REMARK    4  A    between atoms: C_14  and  C_15
REMARK    5  A    between atoms: C_15  and  N_16
REMARK    6  A    between atoms: C_15  and  C_25
REMARK    7  A    between atoms: C_17  and  C_19
REMARK                            x       y       z     vdW  Elec       q    Type
REMARK                         _______ _______ _______ _____ _____    ______ ____
ROOT
ATOM      1  C   UNL     1      37.618   3.504  15.619  0.00  0.00    +0.000 C 
ENDROOT
BRANCH   1   2
ATOM      2  C   UNL     1      38.652   4.495  16.343  0.00  0.00    +0.000 A 
ATOM      3  C   UNL     1      39.596   5.134  15.651  0.00  0.00    +0.000 A 
ATOM      4  C   UNL     1      40.482   5.969  16.292  0.00  0.00    +0.000 A 
ATOM      5  C   UNL     1      40.385   6.144  17.676  0.00  0.00    +0.000 A 
ATOM      6  C   UNL     1      39.396   5.468  18.361  0.00  0.00    +0.000 A 
ATOM      7  C   UNL     1      38.504   4.627  17.716  0.00  0.00    +0.000 A 
ENDBRANCH   1   2
BRANCH   1   8
ATOM      8  N   UNL     1      36.762   4.659  14.983  0.00  0.00    +0.000 NA
ATOM      9  C   UNL     1      36.387   4.472  13.631  0.00  0.00    +0.000 C 
ATOM     10  O   UNL     1      36.752   3.418  13.043  0.00  0.00    +0.000 OA
BRANCH   9  11
ATOM     11  C   UNL     1      35.602   5.489  12.961  0.00  0.00    +0.000 A 
ATOM     12  C   UNL     1      34.599   6.121  13.651  0.00  0.00    +0.000 A 
ATOM     13  C   UNL     1      33.849   7.065  13.041  0.00  0.00    +0.000 A 
ATOM     14  C   UNL     1      34.046   7.443  11.714  0.00  0.00    +0.000 A 
ATOM     15  C   UNL     1      35.075   6.775  11.051  0.00  0.00    +0.000 A 
ATOM     16  C   UNL     1      35.843   5.814  11.660  0.00  0.00    +0.000 A 
ENDBRANCH   9  11
ENDBRANCH   1   8
BRANCH   1  17
ATOM     17  C   UNL     1      36.654   3.307  16.926  0.00  0.00    +0.000 C 
BRANCH  17  19
ATOM     18  N   UNL     1      37.140   0.848  16.559  0.00  0.00    +0.000 NA
ATOM     19  C   UNL     1      36.245   1.856  16.835  0.00  0.00    +0.000 C 
ATOM     20  O   UNL     1      35.061   1.594  17.020  0.00  0.00    +0.000 OA
BRANCH  18  27
ATOM     21  C   UNL     1      36.619   0.099  13.986  0.00  0.00    +0.000 C 
ATOM     22  C   UNL     1      36.679  -0.915  15.100  0.00  0.00    +0.000 A 
ATOM     23  C   UNL     1      36.460  -2.221  14.782  0.00  0.00    +0.000 A 
ATOM     24  C   UNL     1      36.498  -3.190  15.734  0.00  0.00    +0.000 A 
ATOM     25  C   UNL     1      36.760  -2.825  17.013  0.00  0.00    +0.000 A 
ATOM     26  C   UNL     1      36.984  -1.507  17.348  0.00  0.00    +0.000 A 
ATOM     27  C   UNL     1      36.958  -0.504  16.430  0.00  0.00    +0.000 A 
BRANCH  26  28
ATOM     28  C   UNL     1      37.195  -1.212  18.762  0.00  0.00    +0.000 C 
ATOM     29  C   UNL     1      37.709  -2.430  19.505  0.00  0.00    +0.000 C 
ATOM     30  C   UNL     1      35.777  -0.930  19.316  0.00  0.00    +0.000 C 
ENDBRANCH  26  28
ENDBRANCH  18  27
ENDBRANCH  17  19
ENDBRANCH   1  17
TORSDOF 7
ENDMDL
MODEL 4
REMARK VINA RESULT:      -7.9      1.386      5.268
REMARK  Name = 
REMARK  7 active torsions:
REMARK  status: ('A' for Active; 'I' for Inactive)
REMARK    1  A    between atoms: C_6  and  C_7
REMARK    2  A    between atoms: C_10  and  N_11
REMARK    3  A    between atoms: C_12  and  C_14
REMARK    4  A    between atoms: C_14  and  C_15
REMARK    5  A    between atoms: C_15  and  N_16
REMARK    6  A    between atoms: C_15  and  C_25
REMARK    7  A    between atoms: C_17  and  C_19
REMARK                            x       y       z     vdW  Elec       q    Type
REMARK                         _______ _______ _______ _____ _____    ______ ____
ROOT
ATOM      1  C   UNL     1      37.838   3.594  15.710  0.00  0.00    +0.000 C 
ENDROOT
BRANCH   1   2
ATOM      2  C   UNL     1      38.696   4.572  16.652  0.00  0.00    +0.000 A 
ATOM      3  C   UNL     1      38.463   4.648  17.963  0.00  0.00    +0.000 A 
ATOM      4  C   UNL     1      39.200   5.502  18.751  0.00  0.00    +0.000 A 
ATOM      5  C   UNL     1      40.196   6.290  18.166  0.00  0.00    +0.000 A 
ATOM      6  C   UNL     1      40.412   6.186  16.808  0.00  0.00    +0.000 A 
ATOM      7  C   UNL     1      39.670   5.326  16.014  0.00  0.00    +0.000 A 
ENDBRANCH   1   2
BRANCH   1   8
ATOM      8  N   UNL     1      36.942   4.744  15.122  0.00  0.00    +0.000 NA
ATOM      9  C   UNL     1      36.390   4.497  13.841  0.00  0.00    +0.000 C 
ATOM     10  O   UNL     1      36.645   3.400  13.275  0.00  0.00    +0.000 OA
BRANCH   9  11
ATOM     11  C   UNL     1      35.555   5.504  13.219  0.00  0.00    +0.000 A 
ATOM     12  C   UNL     1      34.536   6.068  13.943  0.00  0.00    +0.000 A 
ATOM     13  C   UNL     1      33.740   7.003  13.376  0.00  0.00    +0.000 A 
ATOM     14  C   UNL     1      33.904   7.436  12.062  0.00  0.00    +0.000 A 
ATOM     15  C   UNL     1      34.951   6.835  11.364  0.00  0.00    +0.000 A 
ATOM     16  C   UNL     1      35.765   5.885  11.928  0.00  0.00    +0.000 A 
ENDBRANCH   9  11
ENDBRANCH   1   8
BRANCH   1  17
ATOM     17  C   UNL     1      36.775   3.158  16.874  0.00  0.00    +0.000 C 
BRANCH  17  19
ATOM     18  N   UNL     1      37.049   0.640  16.799  0.00  0.00    +0.000 NA
ATOM     19  C   UNL     1      36.350   1.772  16.448  0.00  0.00    +0.000 C 
ATOM     20  O   UNL     1      35.337   1.682  15.763  0.00  0.00    +0.000 OA
BRANCH  18  27
ATOM     21  C   UNL     1      35.456  -0.592  18.642  0.00  0.00    +0.000 C 
ATOM     22  C   UNL     1      36.005  -1.342  17.456  0.00  0.00    +0.000 A 
ATOM     23  C   UNL     1      35.684  -2.660  17.334  0.00  0.00    +0.000 A 
ATOM     24  C   UNL     1      36.143  -3.399  16.290  0.00  0.00    +0.000 A 
ATOM     25  C   UNL     1      36.931  -2.793  15.369  0.00  0.00    +0.000 A 
ATOM     26  C   UNL     1      37.263  -1.460  15.480  0.00  0.00    +0.000 A 
ATOM     27  C   UNL     1      36.827  -0.680  16.505  0.00  0.00    +0.000 A 
BRANCH  26  28
ATOM     28  C   UNL     1      38.169  -0.919  14.471  0.00  0.00    +0.000 C 
ATOM     29  C   UNL     1      38.076  -1.703  13.176  0.00  0.00    +0.000 C 
ATOM     30  C   UNL     1      39.585  -1.180  15.039  0.00  0.00    +0.000 C 
ENDBRANCH  26  28
ENDBRANCH  18  27
ENDBRANCH  17  19
ENDBRANCH   1  17
TORSDOF 7
ENDMDL
MODEL 5
REMARK VINA RESULT:      -7.7      1.127      3.044
REMARK  Name = 
REMARK  7 active torsions:
REMARK  status: ('A' for Active; 'I' for Inactive)
REMARK    1  A    between atoms: C_6  and  C_7
REMARK    2  A    between atoms: C_10  and  N_11
REMARK    3  A    between atoms: C_12  and  C_14
REMARK    4  A    between atoms: C_14  and  C_15
REMARK    5  A    between atoms: C_15  and  N_16
REMARK    6  A    between atoms: C_15  and  C_25
REMARK    7  A    between atoms: C_17  and  C_19
REMARK                            x       y       z     vdW  Elec       q    Type
REMARK                         _______ _______ _______ _____ _____    ______ ____
ROOT
ATOM      1  C   UNL     1      36.878   3.324  14.386  0.00  0.00    +0.000 C 
ENDROOT
BRANCH   1   2
ATOM      2  C   UNL     1      36.092   4.529  13.673  0.00  0.00    +0.000 A 
ATOM      3  C   UNL     1      35.041   5.108  14.256  0.00  0.00    +0.000 A 
ATOM      4  C   UNL     1      34.371   6.129  13.622  0.00  0.00    +0.000 A 
ATOM      5  C   UNL     1      34.801   6.556  12.362  0.00  0.00    +0.000 A 
ATOM      6  C   UNL     1      35.892   5.936  11.788  0.00  0.00    +0.000 A 
ATOM      7  C   UNL     1      36.566   4.907  12.426  0.00  0.00    +0.000 A 
ENDBRANCH   1   2
BRANCH   1   8
ATOM      8  N   UNL     1      37.936   4.259  15.078  0.00  0.00    +0.000 NA
ATOM      9  C   UNL     1      38.032   4.139  16.486  0.00  0.00    +0.000 C 
ATOM     10  O   UNL     1      37.285   3.312  17.074  0.00  0.00    +0.000 OA
BRANCH   9  11
ATOM     11  C   UNL     1      38.977   4.966  17.208  0.00  0.00    +0.000 A 
ATOM     12  C   UNL     1      40.036   5.517  16.532  0.00  0.00    +0.000 A 
ATOM     13  C   UNL     1      40.934   6.283  17.191  0.00  0.00    +0.000 A 
ATOM     14  C   UNL     1      40.839   6.552  18.556  0.00  0.00    +0.000 A 
ATOM     15  C   UNL     1      39.748   5.972  19.202  0.00  0.00    +0.000 A 
ATOM     16  C   UNL     1      38.830   5.192  18.544  0.00  0.00    +0.000 A 
ENDBRANCH   9  11
ENDBRANCH   1   8
BRANCH   1  17
ATOM     17  C   UNL     1      37.816   2.968  13.094  0.00  0.00    +0.000 C 
BRANCH  17  19
ATOM     18  N   UNL     1      38.863   1.067  14.400  0.00  0.00    +0.000 NA
ATOM     19  C   UNL     1      38.156   1.512  13.308  0.00  0.00    +0.000 C 
ATOM     20  O   UNL     1      37.772   0.716  12.457  0.00  0.00    +0.000 OA
BRANCH  18  27
ATOM     21  C   UNL     1      37.123  -0.147  16.117  0.00  0.00    +0.000 C 
ATOM     22  C   UNL     1      38.378  -0.840  15.655  0.00  0.00    +0.000 A 
ATOM     23  C   UNL     1      38.621  -2.095  16.126  0.00  0.00    +0.000 A 
ATOM     24  C   UNL     1      39.733  -2.781  15.753  0.00  0.00    +0.000 A 
ATOM     25  C   UNL     1      40.599  -2.186  14.897  0.00  0.00    +0.000 A 
ATOM     26  C   UNL     1      40.365  -0.917  14.413  0.00  0.00    +0.000 A 
ATOM     27  C   UNL     1      39.267  -0.193  14.756  0.00  0.00    +0.000 A 
BRANCH  26  28
ATOM     28  C   UNL     1      41.392  -0.342  13.547  0.00  0.00    +0.000 C 
ATOM     29  C   UNL     1      41.531  -1.134  12.262  0.00  0.00    +0.000 C 
ATOM     30  C   UNL     1      42.714  -0.540  14.328  0.00  0.00    +0.000 C 
ENDBRANCH  26  28
ENDBRANCH  18  27
ENDBRANCH  17  19
ENDBRANCH   1  17
TORSDOF 7
ENDMDL
MODEL 6
REMARK VINA RESULT:      -7.5      2.374      3.628
REMARK  Name = 
REMARK  7 active torsions:
REMARK  status: ('A' for Active; 'I' for Inactive)
REMARK    1  A    between atoms: C_6  and  C_7
REMARK    2  A    between atoms: C_10  and  N_11
REMARK    3  A    between atoms: C_12  and  C_14
REMARK    4  A    between atoms: C_14  and  C_15
REMARK    5  A    between atoms: C_15  and  N_16
REMARK    6  A    between atoms: C_15  and  C_25
REMARK    7  A    between atoms: C_17  and  C_19
REMARK                            x       y       z     vdW  Elec       q    Type
REMARK                         _______ _______ _______ _____ _____    ______ ____
ROOT
ATOM      1  C   UNL     1      38.298   2.275  14.226  0.00  0.00    +0.000 C 
ENDROOT
BRANCH   1   2
ATOM      2  C   UNL     1      39.106   2.831  12.955  0.00  0.00    +0.000 A 
ATOM      3  C   UNL     1      38.528   2.926  11.757  0.00  0.00    +0.000 A 
ATOM      4  C   UNL     1      39.242   3.392  10.677  0.00  0.00    +0.000 A 
ATOM      5  C   UNL     1      40.578   3.767  10.845  0.00  0.00    +0.000 A 
ATOM      6  C   UNL     1      41.145   3.656  12.098  0.00  0.00    +0.000 A 
ATOM      7  C   UNL     1      40.427   3.187  13.186  0.00  0.00    +0.000 A 
ENDBRANCH   1   2
BRANCH   1   8
ATOM      8  N   UNL     1      39.148   3.078  15.276  0.00  0.00    +0.000 NA
ATOM      9  C   UNL     1      38.483   4.159  15.905  0.00  0.00    +0.000 C 
ATOM     10  O   UNL     1      37.286   4.396  15.592  0.00  0.00    +0.000 OA
BRANCH   9  11
ATOM     11  C   UNL     1      39.192   4.958  16.884  0.00  0.00    +0.000 A 
ATOM     12  C   UNL     1      40.286   5.684  16.488  0.00  0.00    +0.000 A 
ATOM     13  C   UNL     1      40.966   6.429  17.389  0.00  0.00    +0.000 A 
ATOM     14  C   UNL     1      40.604   6.501  18.733  0.00  0.00    +0.000 A 
ATOM     15  C   UNL     1      39.488   5.748  19.090  0.00  0.00    +0.000 A 
ATOM     16  C   UNL     1      38.790   4.988  18.185  0.00  0.00    +0.000 A 
ENDBRANCH   9  11
ENDBRANCH   1   8
BRANCH   1  17
ATOM     17  C   UNL     1      39.161   0.892  14.362  0.00  0.00    +0.000 C 
BRANCH  17  19
ATOM     18  N   UNL     1      36.926  -0.089  15.042  0.00  0.00    +0.000 NA
ATOM     19  C   UNL     1      38.284   0.024  15.234  0.00  0.00    +0.000 C 
ATOM     20  O   UNL     1      38.831  -0.594  16.141  0.00  0.00    +0.000 OA
BRANCH  18  27
ATOM     21  C   UNL     1      35.510   1.442  16.803  0.00  0.00    +0.000 C 
ATOM     22  C   UNL     1      35.236  -0.032  16.651  0.00  0.00    +0.000 A 
ATOM     23  C   UNL     1      34.258  -0.579  17.426  0.00  0.00    +0.000 A 
ATOM     24  C   UNL     1      33.956  -1.902  17.342  0.00  0.00    +0.000 A 
ATOM     25  C   UNL     1      34.653  -2.666  16.466  0.00  0.00    +0.000 A 
ATOM     26  C   UNL     1      35.644  -2.125  15.676  0.00  0.00    +0.000 A 
ATOM     27  C   UNL     1      35.980  -0.808  15.724  0.00  0.00    +0.000 A 
BRANCH  26  28
ATOM     28  C   UNL     1      36.377  -3.047  14.813  0.00  0.00    +0.000 C 
ATOM     29  C   UNL     1      35.501  -4.207  14.382  0.00  0.00    +0.000 C 
ATOM     30  C   UNL     1      37.476  -3.644  15.726  0.00  0.00    +0.000 C 
ENDBRANCH  26  28
ENDBRANCH  18  27
ENDBRANCH  17  19
ENDBRANCH   1  17
TORSDOF 7
ENDMDL
MODEL 7
REMARK VINA RESULT:      -7.4      2.289      7.099
REMARK  Name = 
REMARK  7 active torsions:
REMARK  status: ('A' for Active; 'I' for Inactive)
REMARK    1  A    between atoms: C_6  and  C_7
REMARK    2  A    between atoms: C_10  and  N_11
REMARK    3  A    between atoms: C_12  and  C_14
REMARK    4  A    between atoms: C_14  and  C_15
REMARK    5  A    between atoms: C_15  and  N_16
REMARK    6  A    between atoms: C_15  and  C_25
REMARK    7  A    between atoms: C_17  and  C_19
REMARK                            x       y       z     vdW  Elec       q    Type
REMARK                         _______ _______ _______ _____ _____    ______ ____
ROOT
ATOM      1  C   UNL     1      36.731   2.865  14.399  0.00  0.00    +0.000 C 
ENDROOT
BRANCH   1   2
ATOM      2  C   UNL     1      36.184   1.618  15.249  0.00  0.00    +0.000 A 
ATOM      3  C   UNL     1      36.531   0.367  14.941  0.00  0.00    +0.000 A 
ATOM      4  C   UNL     1      36.040  -0.689  15.673  0.00  0.00    +0.000 A 
ATOM      5  C   UNL     1      35.176  -0.442  16.744  0.00  0.00    +0.000 A 
ATOM      6  C   UNL     1      34.839   0.863  17.036  0.00  0.00    +0.000 A 
ATOM      7  C   UNL     1      35.332   1.928  16.299  0.00  0.00    +0.000 A 
ENDBRANCH   1   2
BRANCH   1   8
ATOM      8  N   UNL     1      37.285   3.637  15.651  0.00  0.00    +0.000 NA
ATOM      9  C   UNL     1      38.566   4.219  15.495  0.00  0.00    +0.000 C 
ATOM     10  O   UNL     1      39.160   4.086  14.392  0.00  0.00    +0.000 OA
BRANCH   9  11
ATOM     11  C   UNL     1      39.158   4.945  16.601  0.00  0.00    +0.000 A 
ATOM     12  C   UNL     1      40.287   5.692  16.382  0.00  0.00    +0.000 A 
ATOM     13  C   UNL     1      40.859   6.369  17.403  0.00  0.00    +0.000 A 
ATOM     14  C   UNL     1      40.349   6.349  18.700  0.00  0.00    +0.000 A 
ATOM     15  C   UNL     1      39.202   5.577  18.876  0.00  0.00    +0.000 A 
ATOM     16  C   UNL     1      38.612   4.886  17.848  0.00  0.00    +0.000 A 
ENDBRANCH   9  11
ENDBRANCH   1   8
BRANCH   1  17
ATOM     17  C   UNL     1      35.301   3.659  14.356  0.00  0.00    +0.000 C 
BRANCH  17  19
ATOM     18  N   UNL     1      35.294   6.192  14.314  0.00  0.00    +0.000 NA
ATOM     19  C   UNL     1      35.667   4.993  13.750  0.00  0.00    +0.000 C 
ATOM     20  O   UNL     1      36.325   4.978  12.715  0.00  0.00    +0.000 OA
BRANCH  18  27
ATOM     21  C   UNL     1      33.336   7.141  12.665  0.00  0.00    +0.000 C 
ATOM     22  C   UNL     1      34.518   7.994  13.048  0.00  0.00    +0.000 A 
ATOM     23  C   UNL     1      34.582   9.256  12.541  0.00  0.00    +0.000 A 
ATOM     24  C   UNL     1      35.619  10.081  12.843  0.00  0.00    +0.000 A 
ATOM     25  C   UNL     1      36.592   9.618  13.664  0.00  0.00    +0.000 A 
ATOM     26  C   UNL     1      36.539   8.343  14.184  0.00  0.00    +0.000 A 
ATOM     27  C   UNL     1      35.522   7.482  13.912  0.00  0.00    +0.000 A 
BRANCH  26  28
ATOM     28  C   UNL     1      37.669   7.918  15.007  0.00  0.00    +0.000 C 
ATOM     29  C   UNL     1      37.502   8.373  16.443  0.00  0.00    +0.000 C 
ATOM     30  C   UNL     1      38.879   8.701  14.439  0.00  0.00    +0.000 C 
ENDBRANCH  26  28
ENDBRANCH  18  27
ENDBRANCH  17  19
ENDBRANCH   1  17
TORSDOF 7
ENDMDL
MODEL 8
REMARK VINA RESULT:      -7.4      3.869      7.625
REMARK  Name = 
REMARK  7 active torsions:
REMARK  status: ('A' for Active; 'I' for Inactive)
REMARK    1  A    between atoms: C_6  and  C_7
REMARK    2  A    between atoms: C_10  and  N_11
REMARK    3  A    between atoms: C_12  and  C_14
REMARK    4  A    between atoms: C_14  and  C_15
REMARK    5  A    between atoms: C_15  and  N_16
REMARK    6  A    between atoms: C_15  and  C_25
REMARK    7  A    between atoms: C_17  and  C_19
REMARK                            x       y       z     vdW  Elec       q    Type
REMARK                         _______ _______ _______ _____ _____    ______ ____
ROOT
ATOM      1  C   UNL     1      37.259  -3.100  15.808  0.00  0.00    +0.000 C 
ENDROOT
BRANCH   1   2
ATOM      2  C   UNL     1      36.032  -4.110  15.584  0.00  0.00    +0.000 A 
ATOM      3  C   UNL     1      36.046  -5.340  16.101  0.00  0.00    +0.000 A 
ATOM      4  C   UNL     1      34.991  -6.196  15.886  0.00  0.00    +0.000 A 
ATOM      5  C   UNL     1      33.902  -5.767  15.120  0.00  0.00    +0.000 A 
ATOM      6  C   UNL     1      33.919  -4.489  14.601  0.00  0.00    +0.000 A 
ATOM      7  C   UNL     1      34.982  -3.627  14.817  0.00  0.00    +0.000 A 
ENDBRANCH   1   2
BRANCH   1   8
ATOM      8  N   UNL     1      36.448  -1.822  15.386  0.00  0.00    +0.000 NA
ATOM      9  C   UNL     1      36.792  -0.626  16.062  0.00  0.00    +0.000 C 
ATOM     10  O   UNL     1      37.704  -0.664  16.931  0.00  0.00    +0.000 OA
BRANCH   9  11
ATOM     11  C   UNL     1      36.091   0.601  15.741  0.00  0.00    +0.000 A 
ATOM     12  C   UNL     1      35.332   1.209  16.706  0.00  0.00    +0.000 A 
ATOM     13  C   UNL     1      34.663   2.349  16.422  0.00  0.00    +0.000 A 
ATOM     14  C   UNL     1      34.706   2.956  15.168  0.00  0.00    +0.000 A 
ATOM     15  C   UNL     1      35.490   2.304  14.218  0.00  0.00    +0.000 A 
ATOM     16  C   UNL     1      36.173   1.146  14.494  0.00  0.00    +0.000 A 
ENDBRANCH   9  11
ENDBRANCH   1   8
BRANCH   1  17
ATOM     17  C   UNL     1      37.929  -3.345  14.336  0.00  0.00    +0.000 C 
BRANCH  17  19
ATOM     18  N   UNL     1      39.907  -1.973  13.546  0.00  0.00    +0.000 NA
ATOM     19  C   UNL     1      39.321  -2.780  14.494  0.00  0.00    +0.000 C 
ATOM     20  O   UNL     1      39.930  -3.068  15.519  0.00  0.00    +0.000 OA
BRANCH  18  27
ATOM     21  C   UNL     1      39.854   0.623  14.387  0.00  0.00    +0.000 C 
ATOM     22  C   UNL     1      41.137  -0.028  13.937  0.00  0.00    +0.000 A 
ATOM     23  C   UNL     1      42.273   0.724  13.960  0.00  0.00    +0.000 A 
ATOM     24  C   UNL     1      43.465   0.203  13.569  0.00  0.00    +0.000 A 
ATOM     25  C   UNL     1      43.499  -1.087  13.155  0.00  0.00    +0.000 A 
ATOM     26  C   UNL     1      42.358  -1.858  13.127  0.00  0.00    +0.000 A 
ATOM     27  C   UNL     1      41.143  -1.382  13.510  0.00  0.00    +0.000 A 
BRANCH  26  28
ATOM     28  C   UNL     1      42.490  -3.216  12.604  0.00  0.00    +0.000 C 
ATOM     29  C   UNL     1      43.944  -3.643  12.553  0.00  0.00    +0.000 C 
ATOM     30  C   UNL     1      42.014  -3.114  11.134  0.00  0.00    +0.000 C 
ENDBRANCH  26  28
ENDBRANCH  18  27
ENDBRANCH  17  19
ENDBRANCH   1  17
TORSDOF 7
ENDMDL
MODEL 9
REMARK VINA RESULT:      -7.3      2.781      5.565
REMARK  Name = 
REMARK  7 active torsions:
REMARK  status: ('A' for Active; 'I' for Inactive)
REMARK    1  A    between atoms: C_6  and  C_7
REMARK    2  A    between atoms: C_10  and  N_11
REMARK    3  A    between atoms: C_12  and  C_14
REMARK    4  A    between atoms: C_14  and  C_15
REMARK    5  A    between atoms: C_15  and  N_16
REMARK    6  A    between atoms: C_15  and  C_25
REMARK    7  A    between atoms: C_17  and  C_19
REMARK                            x       y       z     vdW  Elec       q    Type
REMARK                         _______ _______ _______ _____ _____    ______ ____
ROOT
ATOM      1  C   UNL     1      39.473  -0.892  14.178  0.00  0.00    +0.000 C 
ENDROOT
BRANCH   1   2
ATOM      2  C   UNL     1      40.938  -0.911  13.523  0.00  0.00    +0.000 A 
ATOM      3  C   UNL     1      41.165  -0.374  12.323  0.00  0.00    +0.000 A 
ATOM      4  C   UNL     1      42.425  -0.412  11.772  0.00  0.00    +0.000 A 
ATOM      5  C   UNL     1      43.468  -1.018  12.480  0.00  0.00    +0.000 A 
ATOM      6  C   UNL     1      43.199  -1.563  13.719  0.00  0.00    +0.000 A 
ATOM      7  C   UNL     1      41.930  -1.524  14.274  0.00  0.00    +0.000 A 
ENDBRANCH   1   2
BRANCH   1   8
ATOM      8  N   UNL     1      39.633   0.543  14.800  0.00  0.00    +0.000 NA
ATOM      9  C   UNL     1      38.630   1.478  14.450  0.00  0.00    +0.000 C 
ATOM     10  O   UNL     1      37.698   1.108  13.685  0.00  0.00    +0.000 OA
BRANCH   9  11
ATOM     11  C   UNL     1      38.700   2.827  14.974  0.00  0.00    +0.000 A 
ATOM     12  C   UNL     1      37.791   3.225  15.921  0.00  0.00    +0.000 A 
ATOM     13  C   UNL     1      37.835   4.483  16.414  0.00  0.00    +0.000 A 
ATOM     14  C   UNL     1      38.779   5.422  16.002  0.00  0.00    +0.000 A 
ATOM     15  C   UNL     1      39.682   4.975  15.039  0.00  0.00    +0.000 A 
ATOM     16  C   UNL     1      39.647   3.701  14.530  0.00  0.00    +0.000 A 
ENDBRANCH   9  11
ENDBRANCH   1   8
BRANCH   1  17
ATOM     17  C   UNL     1      39.904  -1.693  15.538  0.00  0.00    +0.000 C 
BRANCH  17  19
ATOM     18  N   UNL     1      37.372  -1.752  15.612  0.00  0.00    +0.000 NA
ATOM     19  C   UNL     1      38.585  -1.905  16.243  0.00  0.00    +0.000 C 
ATOM     20  O   UNL     1      38.627  -2.225  17.427  0.00  0.00    +0.000 OA
BRANCH  18  27
ATOM     21  C   UNL     1      36.140  -3.992  14.657  0.00  0.00    +0.000 C 
ATOM     22  C   UNL     1      35.430  -3.047  15.591  0.00  0.00    +0.000 A 
ATOM     23  C   UNL     1      34.148  -3.344  15.942  0.00  0.00    +0.000 A 
ATOM     24  C   UNL     1      33.446  -2.538  16.780  0.00  0.00    +0.000 A 
ATOM     25  C   UNL     1      34.053  -1.426  17.261  0.00  0.00    +0.000 A 
ATOM     26  C   UNL     1      35.350  -1.113  16.915  0.00  0.00    +0.000 A 
ATOM     27  C   UNL     1      36.092  -1.890  16.082  0.00  0.00    +0.000 A 
BRANCH  26  28
ATOM     28  C   UNL     1      35.889   0.140  17.437  0.00  0.00    +0.000 C 
ATOM     29  C   UNL     1      35.867   0.155  18.953  0.00  0.00    +0.000 C 
ATOM     30  C   UNL     1      34.881   1.220  16.974  0.00  0.00    +0.000 C 
ENDBRANCH  26  28
ENDBRANCH  18  27
ENDBRANCH  17  19
ENDBRANCH   1  17
TORSDOF 7
ENDMDL
MODEL 10
REMARK VINA RESULT:      -7.3      3.516      7.208
REMARK  Name = 
REMARK  7 active torsions:
REMARK  status: ('A' for Active; 'I' for Inactive)
REMARK    1  A    between atoms: C_6  and  C_7
REMARK    2  A    between atoms: C_10  and  N_11
REMARK    3  A    between atoms: C_12  and  C_14
REMARK    4  A    between atoms: C_14  and  C_15
REMARK    5  A    between atoms: C_15  and  N_16
REMARK    6  A    between atoms: C_15  and  C_25
REMARK    7  A    between atoms: C_17  and  C_19
REMARK                            x       y       z     vdW  Elec       q    Type
REMARK                         _______ _______ _______ _____ _____    ______ ____
ROOT
ATOM      1  C   UNL     1      38.241  -2.678  14.913  0.00  0.00    +0.000 C 
ENDROOT
BRANCH   1   2
ATOM      2  C   UNL     1      37.076  -3.749  15.182  0.00  0.00    +0.000 A 
ATOM      3  C   UNL     1      35.961  -3.754  14.450  0.00  0.00    +0.000 A 
ATOM      4  C   UNL     1      34.967  -4.671  14.704  0.00  0.00    +0.000 A 
ATOM      5  C   UNL     1      35.135  -5.598  15.737  0.00  0.00    +0.000 A 
ATOM      6  C   UNL     1      36.301  -5.566  16.474  0.00  0.00    +0.000 A 
ATOM      7  C   UNL     1      37.301  -4.642  16.218  0.00  0.00    +0.000 A 
ENDBRANCH   1   2
BRANCH   1   8
ATOM      8  N   UNL     1      37.255  -1.475  14.684  0.00  0.00    +0.000 NA
ATOM      9  C   UNL     1      37.199  -0.521  15.728  0.00  0.00    +0.000 C 
ATOM     10  O   UNL     1      37.925  -0.693  16.744  0.00  0.00    +0.000 OA
BRANCH   9  11
ATOM     11  C   UNL     1      36.312   0.619  15.605  0.00  0.00    +0.000 A 
ATOM     12  C   UNL     1      36.128   1.192  14.373  0.00  0.00    +0.000 A 
ATOM     13  C   UNL     1      35.313   2.262  14.240  0.00  0.00    +0.000 A 
ATOM     14  C   UNL     1      34.630   2.828  15.315  0.00  0.00    +0.000 A 
ATOM     15  C   UNL     1      34.847   2.214  16.547  0.00  0.00    +0.000 A 
ATOM     16  C   UNL     1      35.673   1.128  16.695  0.00  0.00    +0.000 A 
ENDBRANCH   9  11
ENDBRANCH   1   8
BRANCH   1  17
ATOM     17  C   UNL     1      38.413  -3.035  13.326  0.00  0.00    +0.000 C 
BRANCH  17  19
ATOM     18  N   UNL     1      40.213  -1.286  13.673  0.00  0.00    +0.000 NA
ATOM     19  C   UNL     1      39.359  -1.965  12.834  0.00  0.00    +0.000 C 
ATOM     20  O   UNL     1      39.344  -1.711  11.634  0.00  0.00    +0.000 OA
BRANCH  18  27
ATOM     21  C   UNL     1      42.790  -2.184  13.738  0.00  0.00    +0.000 C 
ATOM     22  C   UNL     1      42.472  -0.739  13.452  0.00  0.00    +0.000 A 
ATOM     23  C   UNL     1      43.514   0.110  13.231  0.00  0.00    +0.000 A 
ATOM     24  C   UNL     1      43.302   1.426  12.967  0.00  0.00    +0.000 A 
ATOM     25  C   UNL     1      42.025   1.877  12.929  0.00  0.00    +0.000 A 
ATOM     26  C   UNL     1      40.961   1.029  13.151  0.00  0.00    +0.000 A 
ATOM     27  C   UNL     1      41.123  -0.295  13.416  0.00  0.00    +0.000 A 
BRANCH  26  28
ATOM     28  C   UNL     1      39.629   1.627  13.151  0.00  0.00    +0.000 C 
ATOM     29  C   UNL     1      39.541   2.768  12.155  0.00  0.00    +0.000 C 
ATOM     30  C   UNL     1      39.488   2.262  14.556  0.00  0.00    +0.000 C 
ENDBRANCH  26  28
ENDBRANCH  18  27
ENDBRANCH  17  19
ENDBRANCH   1  17
TORSDOF 7
ENDMDL
