MODEL 1
REMARK VINA RESULT:      -8.3      0.000      0.000
REMARK  Name = 
REMARK  6 active torsions:
REMARK  status: ('A' for Active; 'I' for Inactive)
REMARK    1  A    between atoms: C_6  and  C_7
REMARK    2  A    between atoms: N_9  and  C_10
REMARK    3  A    between atoms: N_9  and  C_21
REMARK    4  A    between atoms: C_10  and  C_11
REMARK    5  A    between atoms: C_11  and  C_12
REMARK    6  A    between atoms: C_21  and  C_22
REMARK                            x       y       z     vdW  Elec       q    Type
REMARK                         _______ _______ _______ _____ _____    ______ ____
ROOT
ATOM      1  C   UNL     1      35.458   4.321  14.608  0.00  0.00    +0.000 C 
ATOM      2  O   UNL     1      34.332   3.671  14.832  0.00  0.00    +0.000 OA
ATOM      3  N   UNL     1      36.516   3.945  15.376  0.00  0.00    +0.000 N 
ENDROOT
BRANCH   1   9
ATOM      4  C   UNL     1      34.092   8.628  11.461  0.00  0.00    +0.000 C 
ATOM      5  C   UNL     1      34.613   7.404  12.144  0.00  0.00    +0.000 A 
ATOM      6  N   UNL     1      35.504   6.574  11.662  0.00  0.00    +0.000 NA
ATOM      7  C   UNL     1      35.893   5.532  12.342  0.00  0.00    +0.000 A 
ATOM      8  C   UNL     1      36.960   4.598  11.772  0.00  0.00    +0.000 C 
ATOM      9  C   UNL     1      35.347   5.324  13.571  0.00  0.00    +0.000 A 
ATOM     10  S   UNL     1      34.275   6.704  13.656  0.00  0.00    +0.000 S 
ENDBRANCH   1   9
BRANCH   3  11
ATOM     11  C   UNL     1      36.312   2.902  16.413  0.00  0.00    +0.000 C 
BRANCH  11  12
ATOM     12  C   UNL     1      36.845   1.606  15.837  0.00  0.00    +0.000 C 
BRANCH  12  13
ATOM     13  C   UNL     1      35.976   0.478  16.260  0.00  0.00    +0.000 A 
ATOM     14  C   UNL     1      34.984   0.452  17.224  0.00  0.00    +0.000 A 
ATOM     15  N   UNL     1      34.443  -0.777  17.288  0.00  0.00    +0.000 NA
ATOM     16  C   UNL     1      35.058  -1.583  16.378  0.00  0.00    +0.000 A 
ATOM     17  C   UNL     1      34.862  -2.909  16.065  0.00  0.00    +0.000 A 
ATOM     18  C   UNL     1      35.637  -3.477  15.090  0.00  0.00    +0.000 A 
ATOM     19  C   UNL     1      36.582  -2.721  14.450  0.00  0.00    +0.000 A 
ATOM     20  C   UNL     1      36.767  -1.400  14.769  0.00  0.00    +0.000 A 
ATOM     21  C   UNL     1      36.015  -0.804  15.735  0.00  0.00    +0.000 A 
ENDBRANCH  12  13
ENDBRANCH  11  12
ENDBRANCH   3  11
BRANCH   3  22
ATOM     22  C   UNL     1      37.862   4.402  15.265  0.00  0.00    +0.000 C 
BRANCH  22  23
ATOM     23  C   UNL     1      38.268   5.269  16.407  0.00  0.00    +0.000 A 
ATOM     24  C   UNL     1      38.915   4.885  17.561  0.00  0.00    +0.000 A 
ATOM     25  C   UNL     1      39.108   5.977  18.359  0.00  0.00    +0.000 A 
ATOM     26  C   UNL     1      39.688   6.163  19.593  0.00  0.00    +0.000 A 
ATOM     27  C   UNL     1      39.745   7.413  20.174  0.00  0.00    +0.000 A 
ATOM     28  C   UNL     1      39.201   8.494  19.490  0.00  0.00    +0.000 A 
ATOM     29  C   UNL     1      38.619   8.297  18.250  0.00  0.00    +0.000 A 
ATOM     30  C   UNL     1      38.567   7.044  17.676  0.00  0.00    +0.000 A 
ATOM     31  N   UNL     1      38.062   6.594  16.493  0.00  0.00    +0.000 N 
ATOM     32  C   UNL     1      37.417   7.474  15.531  0.00  0.00    +0.000 C 
ENDBRANCH  22  23
ENDBRANCH   3  22
TORSDOF 6
ENDMDL
MODEL 2
REMARK VINA RESULT:      -8.2      1.949      2.386
REMARK  Name = 
REMARK  6 active torsions:
REMARK  status: ('A' for Active; 'I' for Inactive)
REMARK    1  A    between atoms: C_6  and  C_7
REMARK    2  A    between atoms: N_9  and  C_10
REMARK    3  A    between atoms: N_9  and  C_21
REMARK    4  A    between atoms: C_10  and  C_11
REMARK    5  A    between atoms: C_11  and  C_12
REMARK    6  A    between atoms: C_21  and  C_22
REMARK                            x       y       z     vdW  Elec       q    Type
REMARK                         _______ _______ _______ _____ _____    ______ ____
ROOT
ATOM      1  C   UNL     1      35.739   5.171  14.263  0.00  0.00    +0.000 C 
ATOM      2  O   UNL     1      34.428   5.318  14.266  0.00  0.00    +0.000 OA
ATOM      3  N   UNL     1      36.206   4.049  14.873  0.00  0.00    +0.000 N 
ENDROOT
BRANCH   1   9
ATOM      4  C   UNL     1      38.135   8.564  10.648  0.00  0.00    +0.000 C 
ATOM      5  C   UNL     1      37.557   7.794  11.792  0.00  0.00    +0.000 A 
ATOM      6  N   UNL     1      37.653   8.112  13.059  0.00  0.00    +0.000 NA
ATOM      7  C   UNL     1      37.110   7.370  13.983  0.00  0.00    +0.000 A 
ATOM      8  C   UNL     1      37.206   7.780  15.452  0.00  0.00    +0.000 C 
ATOM      9  C   UNL     1      36.437   6.251  13.599  0.00  0.00    +0.000 A 
ATOM     10  S   UNL     1      36.646   6.361  11.866  0.00  0.00    +0.000 S 
ENDBRANCH   1   9
BRANCH   3  11
ATOM     11  C   UNL     1      35.234   3.132  15.524  0.00  0.00    +0.000 C 
BRANCH  11  12
ATOM     12  C   UNL     1      35.392   1.783  14.852  0.00  0.00    +0.000 C 
BRANCH  12  13
ATOM     13  C   UNL     1      35.674   0.746  15.877  0.00  0.00    +0.000 A 
ATOM     14  C   UNL     1      34.915   0.370  16.971  0.00  0.00    +0.000 A 
ATOM     15  N   UNL     1      35.541  -0.613  17.643  0.00  0.00    +0.000 NA
ATOM     16  C   UNL     1      36.714  -0.906  17.014  0.00  0.00    +0.000 A 
ATOM     17  C   UNL     1      37.694  -1.826  17.310  0.00  0.00    +0.000 A 
ATOM     18  C   UNL     1      38.789  -1.908  16.492  0.00  0.00    +0.000 A 
ATOM     19  C   UNL     1      38.885  -1.082  15.405  0.00  0.00    +0.000 A 
ATOM     20  C   UNL     1      37.902  -0.169  15.120  0.00  0.00    +0.000 A 
ATOM     21  C   UNL     1      36.800  -0.060  15.913  0.00  0.00    +0.000 A 
ENDBRANCH  12  13
ENDBRANCH  11  12
ENDBRANCH   3  11
BRANCH   3  22
ATOM     22  C   UNL     1      37.556   3.594  14.916  0.00  0.00    +0.000 C 
BRANCH  22  23
ATOM     23  C   UNL     1      38.379   4.339  15.911  0.00  0.00    +0.000 A 
ATOM     24  C   UNL     1      38.123   4.503  17.254  0.00  0.00    +0.000 A 
ATOM     25  C   UNL     1      39.117   5.249  17.819  0.00  0.00    +0.000 A 
ATOM     26  C   UNL     1      39.359   5.704  19.096  0.00  0.00    +0.000 A 
ATOM     27  C   UNL     1      40.476   6.459  19.385  0.00  0.00    +0.000 A 
ATOM     28  C   UNL     1      41.364   6.761  18.359  0.00  0.00    +0.000 A 
ATOM     29  C   UNL     1      41.113   6.301  17.079  0.00  0.00    +0.000 A 
ATOM     30  C   UNL     1      39.993   5.545  16.798  0.00  0.00    +0.000 A 
ATOM     31  N   UNL     1      39.527   4.984  15.647  0.00  0.00    +0.000 N 
ATOM     32  C   UNL     1      40.224   5.110  14.376  0.00  0.00    +0.000 C 
ENDBRANCH  22  23
ENDBRANCH   3  22
TORSDOF 6
ENDMDL
MODEL 3
REMARK VINA RESULT:      -8.0      1.842      2.401
REMARK  Name = 
REMARK  6 active torsions:
REMARK  status: ('A' for Active; 'I' for Inactive)
REMARK    1  A    between atoms: C_6  and  C_7
REMARK    2  A    between atoms: N_9  and  C_10
REMARK    3  A    between atoms: N_9  and  C_21
REMARK    4  A    between atoms: C_10  and  C_11
REMARK    5  A    between atoms: C_11  and  C_12
REMARK    6  A    between atoms: C_21  and  C_22
REMARK                            x       y       z     vdW  Elec       q    Type
REMARK                         _______ _______ _______ _____ _____    ______ ____
ROOT
ATOM      1  C   UNL     1      35.378   4.127  14.710  0.00  0.00    +0.000 C 
ATOM      2  O   UNL     1      34.130   3.858  15.043  0.00  0.00    +0.000 OA
ATOM      3  N   UNL     1      36.324   3.352  15.304  0.00  0.00    +0.000 N 
ENDROOT
BRANCH   1   9
ATOM      4  C   UNL     1      35.038   8.885  11.959  0.00  0.00    +0.000 C 
ATOM      5  C   UNL     1      35.263   7.520  12.527  0.00  0.00    +0.000 A 
ATOM      6  N   UNL     1      35.935   6.551  11.958  0.00  0.00    +0.000 NA
ATOM      7  C   UNL     1      36.073   5.393  12.541  0.00  0.00    +0.000 A 
ATOM      8  C   UNL     1      36.892   4.290  11.872  0.00  0.00    +0.000 C 
ATOM      9  C   UNL     1      35.498   5.213  13.762  0.00  0.00    +0.000 A 
ATOM     10  S   UNL     1      34.776   6.791  13.984  0.00  0.00    +0.000 S 
ENDBRANCH   1   9
BRANCH   3  11
ATOM     11  C   UNL     1      35.894   2.330  16.293  0.00  0.00    +0.000 C 
BRANCH  11  12
ATOM     12  C   UNL     1      35.752   1.025  15.536  0.00  0.00    +0.000 C 
BRANCH  12  13
ATOM     13  C   UNL     1      36.783   0.064  16.002  0.00  0.00    +0.000 A 
ATOM     14  C   UNL     1      37.897  -0.414  15.335  0.00  0.00    +0.000 A 
ATOM     15  N   UNL     1      38.566  -1.273  16.125  0.00  0.00    +0.000 NA
ATOM     16  C   UNL     1      37.917  -1.380  17.318  0.00  0.00    +0.000 A 
ATOM     17  C   UNL     1      38.204  -2.123  18.441  0.00  0.00    +0.000 A 
ATOM     18  C   UNL     1      37.364  -2.039  19.518  0.00  0.00    +0.000 A 
ATOM     19  C   UNL     1      36.265  -1.224  19.459  0.00  0.00    +0.000 A 
ATOM     20  C   UNL     1      35.990  -0.488  18.335  0.00  0.00    +0.000 A 
ATOM     21  C   UNL     1      36.804  -0.548  17.245  0.00  0.00    +0.000 A 
ENDBRANCH  12  13
ENDBRANCH  11  12
ENDBRANCH   3  11
BRANCH   3  22
ATOM     22  C   UNL     1      37.725   3.357  15.042  0.00  0.00    +0.000 C 
BRANCH  22  23
ATOM     23  C   UNL     1      38.484   4.208  16.001  0.00  0.00    +0.000 A 
ATOM     24  C   UNL     1      38.206   4.419  17.334  0.00  0.00    +0.000 A 
ATOM     25  C   UNL     1      39.139   5.263  17.865  0.00  0.00    +0.000 A 
ATOM     26  C   UNL     1      39.337   5.797  19.118  0.00  0.00    +0.000 A 
ATOM     27  C   UNL     1      40.394   6.644  19.375  0.00  0.00    +0.000 A 
ATOM     28  C   UNL     1      41.266   6.959  18.339  0.00  0.00    +0.000 A 
ATOM     29  C   UNL     1      41.059   6.419  17.082  0.00  0.00    +0.000 A 
ATOM     30  C   UNL     1      39.999   5.571  16.834  0.00  0.00    +0.000 A 
ATOM     31  N   UNL     1      39.585   4.921  15.711  0.00  0.00    +0.000 N 
ATOM     32  C   UNL     1      40.281   5.034  14.438  0.00  0.00    +0.000 C 
ENDBRANCH  22  23
ENDBRANCH   3  22
TORSDOF 6
ENDMDL
MODEL 4
REMARK VINA RESULT:      -7.9      2.301      7.023
REMARK  Name = 
REMARK  6 active torsions:
REMARK  status: ('A' for Active; 'I' for Inactive)
REMARK    1  A    between atoms: C_6  and  C_7
REMARK    2  A    between atoms: N_9  and  C_10
REMARK    3  A    between atoms: N_9  and  C_21
REMARK    4  A    between atoms: C_10  and  C_11
REMARK    5  A    between atoms: C_11  and  C_12
REMARK    6  A    between atoms: C_21  and  C_22
REMARK                            x       y       z     vdW  Elec       q    Type
REMARK                         _______ _______ _______ _____ _____    ______ ____
ROOT
ATOM      1  C   UNL     1      35.501   1.826  15.923  0.00  0.00    +0.000 C 
ATOM      2  O   UNL     1      34.267   1.878  16.386  0.00  0.00    +0.000 OA
ATOM      3  N   UNL     1      35.928   2.937  15.263  0.00  0.00    +0.000 N 
ENDROOT
BRANCH   1   9
ATOM      4  C   UNL     1      38.111  -3.017  15.698  0.00  0.00    +0.000 C 
ATOM      5  C   UNL     1      37.408  -1.730  15.991  0.00  0.00    +0.000 A 
ATOM      6  N   UNL     1      37.074  -1.290  17.179  0.00  0.00    +0.000 NA
ATOM      7  C   UNL     1      36.461  -0.149  17.326  0.00  0.00    +0.000 A 
ATOM      8  C   UNL     1      36.113   0.361  18.724  0.00  0.00    +0.000 C 
ATOM      9  C   UNL     1      36.171   0.577  16.212  0.00  0.00    +0.000 A 
ATOM     10  S   UNL     1      36.835  -0.483  14.989  0.00  0.00    +0.000 S 
ENDBRANCH   1   9
BRANCH   3  11
ATOM     11  C   UNL     1      34.981   4.065  15.075  0.00  0.00    +0.000 C 
BRANCH  11  12
ATOM     12  C   UNL     1      35.444   4.822  13.847  0.00  0.00    +0.000 C 
BRANCH  12  13
ATOM     13  C   UNL     1      35.025   6.243  13.949  0.00  0.00    +0.000 A 
ATOM     14  C   UNL     1      33.839   6.835  13.557  0.00  0.00    +0.000 A 
ATOM     15  N   UNL     1      33.873   8.151  13.832  0.00  0.00    +0.000 NA
ATOM     16  C   UNL     1      35.071   8.454  14.408  0.00  0.00    +0.000 A 
ATOM     17  C   UNL     1      35.578   9.650  14.865  0.00  0.00    +0.000 A 
ATOM     18  C   UNL     1      36.835   9.667  15.408  0.00  0.00    +0.000 A 
ATOM     19  C   UNL     1      37.554   8.505  15.487  0.00  0.00    +0.000 A 
ATOM     20  C   UNL     1      37.038   7.320  15.029  0.00  0.00    +0.000 A 
ATOM     21  C   UNL     1      35.792   7.267  14.482  0.00  0.00    +0.000 A 
ENDBRANCH  12  13
ENDBRANCH  11  12
ENDBRANCH   3  11
BRANCH   3  22
ATOM     22  C   UNL     1      37.240   3.186  14.764  0.00  0.00    +0.000 C 
BRANCH  22  23
ATOM     23  C   UNL     1      38.070   3.983  15.711  0.00  0.00    +0.000 A 
ATOM     24  C   UNL     1      37.855   4.172  17.059  0.00  0.00    +0.000 A 
ATOM     25  C   UNL     1      38.842   4.965  17.571  0.00  0.00    +0.000 A 
ATOM     26  C   UNL     1      39.111   5.459  18.827  0.00  0.00    +0.000 A 
ATOM     27  C   UNL     1      40.211   6.257  19.059  0.00  0.00    +0.000 A 
ATOM     28  C   UNL     1      41.054   6.562  17.996  0.00  0.00    +0.000 A 
ATOM     29  C   UNL     1      40.775   6.062  16.737  0.00  0.00    +0.000 A 
ATOM     30  C   UNL     1      39.672   5.263  16.513  0.00  0.00    +0.000 A 
ATOM     31  N   UNL     1      39.187   4.658  15.393  0.00  0.00    +0.000 N 
ATOM     32  C   UNL     1      39.836   4.774  14.096  0.00  0.00    +0.000 C 
ENDBRANCH  22  23
ENDBRANCH   3  22
TORSDOF 6
ENDMDL
MODEL 5
REMARK VINA RESULT:      -7.9      2.106      5.787
REMARK  Name = 
REMARK  6 active torsions:
REMARK  status: ('A' for Active; 'I' for Inactive)
REMARK    1  A    between atoms: C_6  and  C_7
REMARK    2  A    between atoms: N_9  and  C_10
REMARK    3  A    between atoms: N_9  and  C_21
REMARK    4  A    between atoms: C_10  and  C_11
REMARK    5  A    between atoms: C_11  and  C_12
REMARK    6  A    between atoms: C_21  and  C_22
REMARK                            x       y       z     vdW  Elec       q    Type
REMARK                         _______ _______ _______ _____ _____    ______ ____
ROOT
ATOM      1  C   UNL     1      37.912   3.813  15.554  0.00  0.00    +0.000 C 
ATOM      2  O   UNL     1      38.780   2.821  15.496  0.00  0.00    +0.000 OA
ATOM      3  N   UNL     1      36.791   3.657  14.800  0.00  0.00    +0.000 N 
ENDROOT
BRANCH   1   9
ATOM      4  C   UNL     1      39.376   6.989  19.807  0.00  0.00    +0.000 C 
ATOM      5  C   UNL     1      39.006   6.319  18.522  0.00  0.00    +0.000 A 
ATOM      6  N   UNL     1      38.923   6.897  17.350  0.00  0.00    +0.000 NA
ATOM      7  C   UNL     1      38.591   6.220  16.287  0.00  0.00    +0.000 A 
ATOM      8  C   UNL     1      38.535   6.909  14.924  0.00  0.00    +0.000 C 
ATOM      9  C   UNL     1      38.329   4.891  16.423  0.00  0.00    +0.000 A 
ATOM     10  S   UNL     1      38.596   4.714  18.143  0.00  0.00    +0.000 S 
ENDBRANCH   1   9
BRANCH   3  11
ATOM     11  C   UNL     1      36.661   2.443  13.953  0.00  0.00    +0.000 C 
BRANCH  11  12
ATOM     12  C   UNL     1      35.579   1.588  14.581  0.00  0.00    +0.000 C 
BRANCH  12  13
ATOM     13  C   UNL     1      36.191   0.385  15.200  0.00  0.00    +0.000 A 
ATOM     14  C   UNL     1      36.832  -0.680  14.592  0.00  0.00    +0.000 A 
ATOM     15  N   UNL     1      37.237  -1.560  15.525  0.00  0.00    +0.000 NA
ATOM     16  C   UNL     1      36.878  -1.101  16.757  0.00  0.00    +0.000 A 
ATOM     17  C   UNL     1      37.065  -1.635  18.012  0.00  0.00    +0.000 A 
ATOM     18  C   UNL     1      36.592  -0.948  19.097  0.00  0.00    +0.000 A 
ATOM     19  C   UNL     1      35.948   0.246  18.914  0.00  0.00    +0.000 A 
ATOM     20  C   UNL     1      35.768   0.769  17.660  0.00  0.00    +0.000 A 
ATOM     21  C   UNL     1      36.225   0.111  16.558  0.00  0.00    +0.000 A 
ENDBRANCH  12  13
ENDBRANCH  11  12
ENDBRANCH   3  11
BRANCH   3  22
ATOM     22  C   UNL     1      35.654   4.516  14.765  0.00  0.00    +0.000 C 
BRANCH  22  23
ATOM     23  C   UNL     1      35.537   5.258  13.478  0.00  0.00    +0.000 A 
ATOM     24  C   UNL     1      36.286   5.078  12.336  0.00  0.00    +0.000 A 
ATOM     25  C   UNL     1      35.869   5.954  11.375  0.00  0.00    +0.000 A 
ATOM     26  C   UNL     1      36.259   6.202  10.079  0.00  0.00    +0.000 A 
ATOM     27  C   UNL     1      35.642   7.174   9.321  0.00  0.00    +0.000 A 
ATOM     28  C   UNL     1      34.609   7.911   9.890  0.00  0.00    +0.000 A 
ATOM     29  C   UNL     1      34.225   7.656  11.194  0.00  0.00    +0.000 A 
ATOM     30  C   UNL     1      34.847   6.680  11.945  0.00  0.00    +0.000 A 
ATOM     31  N   UNL     1      34.660   6.244  13.222  0.00  0.00    +0.000 N 
ATOM     32  C   UNL     1      33.650   6.808  14.103  0.00  0.00    +0.000 C 
ENDBRANCH  22  23
ENDBRANCH   3  22
TORSDOF 6
ENDMDL
MODEL 6
REMARK VINA RESULT:      -7.9      3.476      6.403
REMARK  Name = 
REMARK  6 active torsions:
REMARK  status: ('A' for Active; 'I' for Inactive)
REMARK    1  A    between atoms: C_6  and  C_7
REMARK    2  A    between atoms: N_9  and  C_10
REMARK    3  A    between atoms: N_9  and  C_21
REMARK    4  A    between atoms: C_10  and  C_11
REMARK    5  A    between atoms: C_11  and  C_12
REMARK    6  A    between atoms: C_21  and  C_22
REMARK                            x       y       z     vdW  Elec       q    Type
REMARK                         _______ _______ _______ _____ _____    ______ ____
ROOT
ATOM      1  C   UNL     1      36.704   1.587  16.261  0.00  0.00    +0.000 C 
ATOM      2  O   UNL     1      36.474   1.826  17.538  0.00  0.00    +0.000 OA
ATOM      3  N   UNL     1      36.929   0.285  15.939  0.00  0.00    +0.000 N 
ENDROOT
BRANCH   1   9
ATOM      4  C   UNL     1      37.903   5.986  13.173  0.00  0.00    +0.000 C 
ATOM      5  C   UNL     1      37.354   4.855  13.985  0.00  0.00    +0.000 A 
ATOM      6  N   UNL     1      36.091   4.651  14.263  0.00  0.00    +0.000 NA
ATOM      7  C   UNL     1      35.715   3.631  14.981  0.00  0.00    +0.000 A 
ATOM      8  C   UNL     1      34.232   3.394  15.263  0.00  0.00    +0.000 C 
ATOM      9  C   UNL     1      36.672   2.777  15.439  0.00  0.00    +0.000 A 
ATOM     10  S   UNL     1      38.095   3.542  14.769  0.00  0.00    +0.000 S 
ENDBRANCH   1   9
BRANCH   3  11
ATOM     11  C   UNL     1      36.951  -0.727  17.026  0.00  0.00    +0.000 C 
BRANCH  11  12
ATOM     12  C   UNL     1      35.652  -1.502  16.925  0.00  0.00    +0.000 C 
BRANCH  12  13
ATOM     13  C   UNL     1      35.945  -2.933  16.660  0.00  0.00    +0.000 A 
ATOM     14  C   UNL     1      37.062  -3.675  16.999  0.00  0.00    +0.000 A 
ATOM     15  N   UNL     1      36.919  -4.939  16.566  0.00  0.00    +0.000 NA
ATOM     16  C   UNL     1      35.715  -5.062  15.938  0.00  0.00    +0.000 A 
ATOM     17  C   UNL     1      35.116  -6.144  15.333  0.00  0.00    +0.000 A 
ATOM     18  C   UNL     1      33.880  -5.981  14.769  0.00  0.00    +0.000 A 
ATOM     19  C   UNL     1      33.269  -4.757  14.819  0.00  0.00    +0.000 A 
ATOM     20  C   UNL     1      33.875  -3.687  15.424  0.00  0.00    +0.000 A 
ATOM     21  C   UNL     1      35.106  -3.813  15.994  0.00  0.00    +0.000 A 
ENDBRANCH  12  13
ENDBRANCH  11  12
ENDBRANCH   3  11
BRANCH   3  22
ATOM     22  C   UNL     1      37.092  -0.259  14.631  0.00  0.00    +0.000 C 
BRANCH  22  23
ATOM     23  C   UNL     1      38.491  -0.699  14.365  0.00  0.00    +0.000 A 
ATOM     24  C   UNL     1      39.648   0.019  14.575  0.00  0.00    +0.000 A 
ATOM     25  C   UNL     1      40.724  -0.736  14.206  0.00  0.00    +0.000 A 
ATOM     26  C   UNL     1      42.084  -0.520  14.203  0.00  0.00    +0.000 A 
ATOM     27  C   UNL     1      42.960  -1.489  13.763  0.00  0.00    +0.000 A 
ATOM     28  C   UNL     1      42.448  -2.701  13.314  0.00  0.00    +0.000 A 
ATOM     29  C   UNL     1      41.081  -2.910  13.319  0.00  0.00    +0.000 A 
ATOM     30  C   UNL     1      40.211  -1.935  13.763  0.00  0.00    +0.000 A 
ATOM     31  N   UNL     1      38.852  -1.893  13.867  0.00  0.00    +0.000 N 
ATOM     32  C   UNL     1      38.002  -3.007  13.479  0.00  0.00    +0.000 C 
ENDBRANCH  22  23
ENDBRANCH   3  22
TORSDOF 6
ENDMDL
MODEL 7
REMARK VINA RESULT:      -7.7      2.214      6.973
REMARK  Name = 
REMARK  6 active torsions:
REMARK  status: ('A' for Active; 'I' for Inactive)
REMARK    1  A    between atoms: C_6  and  C_7
REMARK    2  A    between atoms: N_9  and  C_10
REMARK    3  A    between atoms: N_9  and  C_21
REMARK    4  A    between atoms: C_10  and  C_11
REMARK    5  A    between atoms: C_11  and  C_12
REMARK    6  A    between atoms: C_21  and  C_22
REMARK                            x       y       z     vdW  Elec       q    Type
REMARK                         _______ _______ _______ _____ _____    ______ ____
ROOT
ATOM      1  C   UNL     1      35.565   1.839  15.804  0.00  0.00    +0.000 C 
ATOM      2  O   UNL     1      34.296   1.996  16.130  0.00  0.00    +0.000 OA
ATOM      3  N   UNL     1      36.145   2.893  15.171  0.00  0.00    +0.000 N 
ENDROOT
BRANCH   1   9
ATOM      4  C   UNL     1      37.605  -3.274  15.970  0.00  0.00    +0.000 C 
ATOM      5  C   UNL     1      37.063  -1.893  16.159  0.00  0.00    +0.000 A 
ATOM      6  N   UNL     1      36.830  -1.308  17.307  0.00  0.00    +0.000 NA
ATOM      7  C   UNL     1      36.354  -0.096  17.363  0.00  0.00    +0.000 A 
ATOM      8  C   UNL     1      36.124   0.577  18.715  0.00  0.00    +0.000 C 
ATOM      9  C   UNL     1      36.102   0.553  16.192  0.00  0.00    +0.000 A 
ATOM     10  S   UNL     1      36.593  -0.685  15.058  0.00  0.00    +0.000 S 
ENDBRANCH   1   9
BRANCH   3  11
ATOM     11  C   UNL     1      35.312   4.083  14.856  0.00  0.00    +0.000 C 
BRANCH  11  12
ATOM     12  C   UNL     1      35.802   4.616  13.525  0.00  0.00    +0.000 C 
BRANCH  12  13
ATOM     13  C   UNL     1      35.138   5.912  13.232  0.00  0.00    +0.000 A 
ATOM     14  C   UNL     1      34.459   6.759  14.088  0.00  0.00    +0.000 A 
ATOM     15  N   UNL     1      34.011   7.830  13.410  0.00  0.00    +0.000 NA
ATOM     16  C   UNL     1      34.382   7.716  12.103  0.00  0.00    +0.000 A 
ATOM     17  C   UNL     1      34.165   8.546  11.025  0.00  0.00    +0.000 A 
ATOM     18  C   UNL     1      34.658   8.178   9.803  0.00  0.00    +0.000 A 
ATOM     19  C   UNL     1      35.352   7.005   9.677  0.00  0.00    +0.000 A 
ATOM     20  C   UNL     1      35.562   6.187  10.757  0.00  0.00    +0.000 A 
ATOM     21  C   UNL     1      35.084   6.521  11.989  0.00  0.00    +0.000 A 
ENDBRANCH  12  13
ENDBRANCH  11  12
ENDBRANCH   3  11
BRANCH   3  22
ATOM     22  C   UNL     1      37.517   3.030  14.812  0.00  0.00    +0.000 C 
BRANCH  22  23
ATOM     23  C   UNL     1      38.274   3.891  15.763  0.00  0.00    +0.000 A 
ATOM     24  C   UNL     1      37.998   4.112  17.095  0.00  0.00    +0.000 A 
ATOM     25  C   UNL     1      38.929   4.963  17.618  0.00  0.00    +0.000 A 
ATOM     26  C   UNL     1      39.127   5.508  18.866  0.00  0.00    +0.000 A 
ATOM     27  C   UNL     1      40.181   6.361  19.114  0.00  0.00    +0.000 A 
ATOM     28  C   UNL     1      41.051   6.670  18.075  0.00  0.00    +0.000 A 
ATOM     29  C   UNL     1      40.844   6.120  16.823  0.00  0.00    +0.000 A 
ATOM     30  C   UNL     1      39.787   5.266  16.583  0.00  0.00    +0.000 A 
ATOM     31  N   UNL     1      39.373   4.605  15.466  0.00  0.00    +0.000 N 
ATOM     32  C   UNL     1      40.066   4.710  14.191  0.00  0.00    +0.000 C 
ENDBRANCH  22  23
ENDBRANCH   3  22
TORSDOF 6
ENDMDL
MODEL 8
REMARK VINA RESULT:      -7.7      2.313      7.965
REMARK  Name = 
REMARK  6 active torsions:
REMARK  status: ('A' for Active; 'I' for Inactive)
REMARK    1  A    between atoms: C_6  and  C_7
REMARK    2  A    between atoms: N_9  and  C_10
REMARK    3  A    between atoms: N_9  and  C_21
REMARK    4  A    between atoms: C_10  and  C_11
REMARK    5  A    between atoms: C_11  and  C_12
REMARK    6  A    between atoms: C_21  and  C_22
REMARK                            x       y       z     vdW  Elec       q    Type
REMARK                         _______ _______ _______ _____ _____    ______ ____
ROOT
ATOM      1  C   UNL     1      37.599   2.813  15.352  0.00  0.00    +0.000 C 
ATOM      2  O   UNL     1      38.906   2.654  15.423  0.00  0.00    +0.000 OA
ATOM      3  N   UNL     1      37.173   4.088  15.145  0.00  0.00    +0.000 N 
ENDROOT
BRANCH   1   9
ATOM      4  C   UNL     1      34.576  -1.411  17.182  0.00  0.00    +0.000 C 
ATOM      5  C   UNL     1      35.415  -0.386  16.486  0.00  0.00    +0.000 A 
ATOM      6  N   UNL     1      35.912  -0.490  15.279  0.00  0.00    +0.000 NA
ATOM      7  C   UNL     1      36.633   0.465  14.763  0.00  0.00    +0.000 A 
ATOM      8  C   UNL     1      37.172   0.336  13.339  0.00  0.00    +0.000 C 
ATOM      9  C   UNL     1      36.860   1.579  15.511  0.00  0.00    +0.000 A 
ATOM     10  S   UNL     1      35.979   1.146  16.959  0.00  0.00    +0.000 S 
ENDBRANCH   1   9
BRANCH   3  11
ATOM     11  C   UNL     1      38.182   5.176  15.071  0.00  0.00    +0.000 C 
BRANCH  11  12
ATOM     12  C   UNL     1      38.396   5.666  16.489  0.00  0.00    +0.000 C 
BRANCH  12  13
ATOM     13  C   UNL     1      39.836   5.964  16.700  0.00  0.00    +0.000 A 
ATOM     14  C   UNL     1      40.848   6.095  15.767  0.00  0.00    +0.000 A 
ATOM     15  N   UNL     1      42.009   6.368  16.388  0.00  0.00    +0.000 NA
ATOM     16  C   UNL     1      41.792   6.423  17.733  0.00  0.00    +0.000 A 
ATOM     17  C   UNL     1      42.653   6.668  18.779  0.00  0.00    +0.000 A 
ATOM     18  C   UNL     1      42.157   6.662  20.055  0.00  0.00    +0.000 A 
ATOM     19  C   UNL     1      40.827   6.416  20.263  0.00  0.00    +0.000 A 
ATOM     20  C   UNL     1      39.979   6.174  19.213  0.00  0.00    +0.000 A 
ATOM     21  C   UNL     1      40.438   6.171  17.931  0.00  0.00    +0.000 A 
ENDBRANCH  12  13
ENDBRANCH  11  12
ENDBRANCH   3  11
BRANCH   3  22
ATOM     22  C   UNL     1      35.833   4.519  14.920  0.00  0.00    +0.000 C 
BRANCH  22  23
ATOM     23  C   UNL     1      35.655   5.164  13.589  0.00  0.00    +0.000 A 
ATOM     24  C   UNL     1      36.330   4.878  12.423  0.00  0.00    +0.000 A 
ATOM     25  C   UNL     1      35.876   5.689  11.423  0.00  0.00    +0.000 A 
ATOM     26  C   UNL     1      36.193   5.828  10.091  0.00  0.00    +0.000 A 
ATOM     27  C   UNL     1      35.552   6.756   9.297  0.00  0.00    +0.000 A 
ATOM     28  C   UNL     1      34.572   7.561   9.867  0.00  0.00    +0.000 A 
ATOM     29  C   UNL     1      34.260   7.415  11.206  0.00  0.00    +0.000 A 
ATOM     30  C   UNL     1      34.906   6.483  11.993  0.00  0.00    +0.000 A 
ATOM     31  N   UNL     1      34.786   6.150  13.309  0.00  0.00    +0.000 N 
ATOM     32  C   UNL     1      33.842   6.805  14.201  0.00  0.00    +0.000 C 
ENDBRANCH  22  23
ENDBRANCH   3  22
TORSDOF 6
ENDMDL
MODEL 9
REMARK VINA RESULT:      -7.7      2.144      2.904
REMARK  Name = 
REMARK  6 active torsions:
REMARK  status: ('A' for Active; 'I' for Inactive)
REMARK    1  A    between atoms: C_6  and  C_7
REMARK    2  A    between atoms: N_9  and  C_10
REMARK    3  A    between atoms: N_9  and  C_21
REMARK    4  A    between atoms: C_10  and  C_11
REMARK    5  A    between atoms: C_11  and  C_12
REMARK    6  A    between atoms: C_21  and  C_22
REMARK                            x       y       z     vdW  Elec       q    Type
REMARK                         _______ _______ _______ _____ _____    ______ ____
ROOT
ATOM      1  C   UNL     1      37.376   3.201  12.904  0.00  0.00    +0.000 C 
ATOM      2  O   UNL     1      36.738   2.072  12.660  0.00  0.00    +0.000 OA
ATOM      3  N   UNL     1      38.717   3.087  13.101  0.00  0.00    +0.000 N 
ENDROOT
BRANCH   1   9
ATOM      4  C   UNL     1      33.675   7.100  14.097  0.00  0.00    +0.000 C 
ATOM      5  C   UNL     1      34.715   6.161  13.575  0.00  0.00    +0.000 A 
ATOM      6  N   UNL     1      35.324   6.253  12.419  0.00  0.00    +0.000 NA
ATOM      7  C   UNL     1      36.220   5.378  12.057  0.00  0.00    +0.000 A 
ATOM      8  C   UNL     1      36.941   5.527  10.719  0.00  0.00    +0.000 C 
ATOM      9  C   UNL     1      36.510   4.360  12.913  0.00  0.00    +0.000 A 
ATOM     10  S   UNL     1      35.426   4.761  14.226  0.00  0.00    +0.000 S 
ENDBRANCH   1   9
BRANCH   3  11
ATOM     11  C   UNL     1      39.330   1.735  13.081  0.00  0.00    +0.000 C 
BRANCH  11  12
ATOM     12  C   UNL     1      39.507   1.316  14.527  0.00  0.00    +0.000 C 
BRANCH  12  13
ATOM     13  C   UNL     1      38.606   0.175  14.829  0.00  0.00    +0.000 A 
ATOM     14  C   UNL     1      38.767  -1.167  14.538  0.00  0.00    +0.000 A 
ATOM     15  N   UNL     1      37.709  -1.862  14.991  0.00  0.00    +0.000 NA
ATOM     16  C   UNL     1      36.833  -1.003  15.587  0.00  0.00    +0.000 A 
ATOM     17  C   UNL     1      35.619  -1.227  16.196  0.00  0.00    +0.000 A 
ATOM     18  C   UNL     1      34.939  -0.161  16.719  0.00  0.00    +0.000 A 
ATOM     19  C   UNL     1      35.476   1.095  16.628  0.00  0.00    +0.000 A 
ATOM     20  C   UNL     1      36.686   1.306  16.020  0.00  0.00    +0.000 A 
ATOM     21  C   UNL     1      37.390   0.268  15.487  0.00  0.00    +0.000 A 
ENDBRANCH  12  13
ENDBRANCH  11  12
ENDBRANCH   3  11
BRANCH   3  22
ATOM     22  C   UNL     1      39.652   4.150  13.270  0.00  0.00    +0.000 C 
BRANCH  22  23
ATOM     23  C   UNL     1      39.703   4.649  14.673  0.00  0.00    +0.000 A 
ATOM     24  C   UNL     1      38.872   4.302  15.716  0.00  0.00    +0.000 A 
ATOM     25  C   UNL     1      39.248   4.978  16.842  0.00  0.00    +0.000 A 
ATOM     26  C   UNL     1      38.777   5.010  18.135  0.00  0.00    +0.000 A 
ATOM     27  C   UNL     1      39.370   5.808  19.090  0.00  0.00    +0.000 A 
ATOM     28  C   UNL     1      40.460   6.590  18.727  0.00  0.00    +0.000 A 
ATOM     29  C   UNL     1      40.926   6.552  17.425  0.00  0.00    +0.000 A 
ATOM     30  C   UNL     1      40.328   5.750  16.475  0.00  0.00    +0.000 A 
ATOM     31  N   UNL     1      40.589   5.537  15.154  0.00  0.00    +0.000 N 
ATOM     32  C   UNL     1      41.674   6.204  14.452  0.00  0.00    +0.000 C 
ENDBRANCH  22  23
ENDBRANCH   3  22
TORSDOF 6
ENDMDL
MODEL 10
REMARK VINA RESULT:      -7.7      2.606      7.266
REMARK  Name = 
REMARK  6 active torsions:
REMARK  status: ('A' for Active; 'I' for Inactive)
REMARK    1  A    between atoms: C_6  and  C_7
REMARK    2  A    between atoms: N_9  and  C_10
REMARK    3  A    between atoms: N_9  and  C_21
REMARK    4  A    between atoms: C_10  and  C_11
REMARK    5  A    between atoms: C_11  and  C_12
REMARK    6  A    between atoms: C_21  and  C_22
REMARK                            x       y       z     vdW  Elec       q    Type
REMARK                         _______ _______ _______ _____ _____    ______ ____
ROOT
ATOM      1  C   UNL     1      37.170   5.251  14.744  0.00  0.00    +0.000 C 
ATOM      2  O   UNL     1      36.152   6.078  14.603  0.00  0.00    +0.000 OA
ATOM      3  N   UNL     1      38.391   5.837  14.865  0.00  0.00    +0.000 N 
ENDROOT
BRANCH   1   9
ATOM      4  C   UNL     1      35.407   0.191  16.015  0.00  0.00    +0.000 C 
ATOM      5  C   UNL     1      35.928   1.477  15.457  0.00  0.00    +0.000 A 
ATOM      6  N   UNL     1      36.396   1.657  14.247  0.00  0.00    +0.000 NA
ATOM      7  C   UNL     1      36.827   2.824  13.858  0.00  0.00    +0.000 A 
ATOM      8  C   UNL     1      37.335   3.017  12.430  0.00  0.00    +0.000 C 
ATOM      9  C   UNL     1      36.782   3.857  14.743  0.00  0.00    +0.000 A 
ATOM     10  S   UNL     1      36.091   3.033  16.123  0.00  0.00    +0.000 S 
ENDBRANCH   1   9
BRANCH   3  11
ATOM     11  C   UNL     1      38.485   7.317  14.776  0.00  0.00    +0.000 C 
BRANCH  11  12
ATOM     12  C   UNL     1      37.709   7.874  15.952  0.00  0.00    +0.000 C 
BRANCH  12  13
ATOM     13  C   UNL     1      38.599   8.732  16.775  0.00  0.00    +0.000 A 
ATOM     14  C   UNL     1      39.641   9.548  16.375  0.00  0.00    +0.000 A 
ATOM     15  N   UNL     1      40.186  10.150  17.447  0.00  0.00    +0.000 NA
ATOM     16  C   UNL     1      39.522   9.750  18.568  0.00  0.00    +0.000 A 
ATOM     17  C   UNL     1      39.701  10.082  19.892  0.00  0.00    +0.000 A 
ATOM     18  C   UNL     1      38.876   9.521  20.829  0.00  0.00    +0.000 A 
ATOM     19  C   UNL     1      37.897   8.649  20.433  0.00  0.00    +0.000 A 
ATOM     20  C   UNL     1      37.728   8.326  19.111  0.00  0.00    +0.000 A 
ATOM     21  C   UNL     1      38.532   8.865  18.153  0.00  0.00    +0.000 A 
ENDBRANCH  12  13
ENDBRANCH  11  12
ENDBRANCH   3  11
BRANCH   3  22
ATOM     22  C   UNL     1      39.631   5.189  15.137  0.00  0.00    +0.000 C 
BRANCH  22  23
ATOM     23  C   UNL     1      40.290   5.708  16.369  0.00  0.00    +0.000 A 
ATOM     24  C   UNL     1      41.443   6.456  16.449  0.00  0.00    +0.000 A 
ATOM     25  C   UNL     1      41.715   6.733  17.759  0.00  0.00    +0.000 A 
ATOM     26  C   UNL     1      42.718   7.427  18.397  0.00  0.00    +0.000 A 
ATOM     27  C   UNL     1      42.740   7.550  19.770  0.00  0.00    +0.000 A 
ATOM     28  C   UNL     1      41.725   6.954  20.511  0.00  0.00    +0.000 A 
ATOM     29  C   UNL     1      40.722   6.258  19.862  0.00  0.00    +0.000 A 
ATOM     30  C   UNL     1      40.707   6.141  18.487  0.00  0.00    +0.000 A 
ATOM     31  N   UNL     1      39.851   5.523  17.625  0.00  0.00    +0.000 N 
ATOM     32  C   UNL     1      38.672   4.800  18.075  0.00  0.00    +0.000 C 
ENDBRANCH  22  23
ENDBRANCH   3  22
TORSDOF 6
ENDMDL
