MODEL 1
REMARK VINA RESULT:      -6.2      0.000      0.000
REMARK  Name = 
REMARK  3 active torsions:
REMARK  status: ('A' for Active; 'I' for Inactive)
REMARK    1  A    between atoms: O_2  and  C_3
REMARK    2  A    between atoms: C_3  and  C_5
REMARK    3  A    between atoms: C_16  and  C_17
REMARK                            x       y       z     vdW  Elec       q    Type
REMARK                         _______ _______ _______ _____ _____    ______ ____
ROOT
ATOM      1  C   UNL     1      26.196  23.887  25.092  0.00  0.00    +0.000 C 
ATOM      2  C   UNL     1      25.520  24.771  25.659  0.00  0.00    +0.000 C 
ATOM      3  N   UNL     1      24.689  25.604  24.796  0.00  0.00    +0.000 NA
ATOM      4  O   UNL     1      25.555  24.947  27.007  0.00  0.00    +0.000 OA
ATOM      5  C   UNL     1      26.337  24.155  27.789  0.00  0.00    +0.000 C 
ATOM      6  C   UNL     1      27.065  23.226  27.331  0.00  0.00    +0.000 C 
ATOM      7  C   UNL     1      27.917  22.364  28.197  0.00  0.00    +0.000 C 
ATOM      8  O   UNL     1      29.058  22.028  27.859  0.00  0.00    +0.000 OA
ATOM      9  C   UNL     1      27.253  21.976  29.462  0.00  0.00    +0.000 C 
ATOM     10  C   UNL     1      26.367  23.036  30.017  0.00  0.00    +0.000 C 
ATOM     11  C   UNL     1      26.390  24.338  29.300  0.00  0.00    +0.000 C 
ATOM     12  C   UNL     1      27.183  22.849  25.783  0.00  0.00    +0.000 C 
ENDROOT
BRANCH  12  13
ATOM     13  C   UNL     1      28.567  23.597  25.499  0.00  0.00    +0.000 A 
ATOM     14  C   UNL     1      28.871  24.814  25.833  0.00  0.00    +0.000 A 
ATOM     15  C   UNL     1      30.094  25.344  25.533  0.00  0.00    +0.000 A 
ATOM     16  C   UNL     1      30.996  24.552  24.866  0.00  0.00    +0.000 A 
ATOM     17  C   UNL     1      30.693  23.248  24.500  0.00  0.00    +0.000 A 
ATOM     18  C   UNL     1      29.419  22.777  24.843  0.00  0.00    +0.000 A 
ENDBRANCH  12  13
BRANCH   1  19
ATOM     19  C   UNL     1      26.158  23.693  23.613  0.00  0.00    +0.000 C 
ATOM     20  O   UNL     1      25.540  22.778  23.064  0.00  0.00    +0.000 OA
BRANCH  19  22
ATOM     21  C   UNL     1      27.782  24.168  21.889  0.00  0.00    +0.000 C 
ATOM     22  O   UNL     1      26.845  24.581  22.851  0.00  0.00    +0.000 OA
ENDBRANCH  19  22
ENDBRANCH   1  19
TORSDOF 3
ENDMDL
MODEL 2
REMARK VINA RESULT:      -6.1     18.313     20.620
REMARK  Name = 
REMARK  3 active torsions:
REMARK  status: ('A' for Active; 'I' for Inactive)
REMARK    1  A    between atoms: O_2  and  C_3
REMARK    2  A    between atoms: C_3  and  C_5
REMARK    3  A    between atoms: C_16  and  C_17
REMARK                            x       y       z     vdW  Elec       q    Type
REMARK                         _______ _______ _______ _____ _____    ______ ____
ROOT
ATOM      1  C   UNL     1      17.031  10.448  37.237  0.00  0.00    +0.000 C 
ATOM      2  C   UNL     1      16.102  10.879  37.953  0.00  0.00    +0.000 C 
ATOM      3  N   UNL     1      15.194  11.836  37.329  0.00  0.00    +0.000 NA
ATOM      4  O   UNL     1      15.945  10.478  39.243  0.00  0.00    +0.000 OA
ATOM      5  C   UNL     1      16.805   9.583  39.800  0.00  0.00    +0.000 C 
ATOM      6  C   UNL     1      17.782   9.076  39.176  0.00  0.00    +0.000 C 
ATOM      7  C   UNL     1      18.718   8.096  39.795  0.00  0.00    +0.000 C 
ATOM      8  O   UNL     1      19.937   8.140  39.589  0.00  0.00    +0.000 OA
ATOM      9  C   UNL     1      18.034   7.103  40.654  0.00  0.00    +0.000 C 
ATOM     10  C   UNL     1      16.860   7.658  41.384  0.00  0.00    +0.000 C 
ATOM     11  C   UNL     1      16.646   9.122  41.243  0.00  0.00    +0.000 C 
ATOM     12  C   UNL     1      18.158   9.408  37.659  0.00  0.00    +0.000 C 
ENDROOT
BRANCH  12  13
ATOM     13  C   UNL     1      19.342  10.438  37.966  0.00  0.00    +0.000 A 
ATOM     14  C   UNL     1      19.285  11.468  38.755  0.00  0.00    +0.000 A 
ATOM     15  C   UNL     1      20.370  12.279  38.937  0.00  0.00    +0.000 A 
ATOM     16  C   UNL     1      21.526  11.973  38.261  0.00  0.00    +0.000 A 
ATOM     17  C   UNL     1      21.609  10.876  37.414  0.00  0.00    +0.000 A 
ATOM     18  C   UNL     1      20.455  10.095  37.280  0.00  0.00    +0.000 A 
ENDBRANCH  12  13
BRANCH   1  19
ATOM     19  C   UNL     1      17.203  10.888  35.822  0.00  0.00    +0.000 C 
ATOM     20  O   UNL     1      17.449  12.052  35.497  0.00  0.00    +0.000 OA
BRANCH  19  22
ATOM     21  C   UNL     1      16.863  10.276  33.510  0.00  0.00    +0.000 C 
ATOM     22  O   UNL     1      17.079   9.942  34.857  0.00  0.00    +0.000 OA
ENDBRANCH  19  22
ENDBRANCH   1  19
TORSDOF 3
ENDMDL
MODEL 3
REMARK VINA RESULT:      -5.8      2.496      3.793
REMARK  Name = 
REMARK  3 active torsions:
REMARK  status: ('A' for Active; 'I' for Inactive)
REMARK    1  A    between atoms: O_2  and  C_3
REMARK    2  A    between atoms: C_3  and  C_5
REMARK    3  A    between atoms: C_16  and  C_17
REMARK                            x       y       z     vdW  Elec       q    Type
REMARK                         _______ _______ _______ _____ _____    ______ ____
ROOT
ATOM      1  C   UNL     1      28.623  24.306  22.797  0.00  0.00    +0.000 C 
ATOM      2  C   UNL     1      27.621  23.593  23.014  0.00  0.00    +0.000 C 
ATOM      3  N   UNL     1      26.690  23.430  21.902  0.00  0.00    +0.000 NA
ATOM      4  O   UNL     1      27.408  23.001  24.219  0.00  0.00    +0.000 OA
ATOM      5  C   UNL     1      28.293  23.169  25.239  0.00  0.00    +0.000 C 
ATOM      6  C   UNL     1      29.345  23.866  25.140  0.00  0.00    +0.000 C 
ATOM      7  C   UNL     1      30.308  24.042  26.263  0.00  0.00    +0.000 C 
ATOM      8  O   UNL     1      30.840  25.134  26.499  0.00  0.00    +0.000 OA
ATOM      9  C   UNL     1      30.538  22.798  27.031  0.00  0.00    +0.000 C 
ATOM     10  C   UNL     1      29.327  21.938  27.145  0.00  0.00    +0.000 C 
ATOM     11  C   UNL     1      28.072  22.515  26.596  0.00  0.00    +0.000 C 
ATOM     12  C   UNL     1      29.788  24.654  23.823  0.00  0.00    +0.000 C 
ENDROOT
BRANCH  12  13
ATOM     13  C   UNL     1      29.291  26.104  24.279  0.00  0.00    +0.000 A 
ATOM     14  C   UNL     1      28.128  26.401  24.776  0.00  0.00    +0.000 A 
ATOM     15  C   UNL     1      27.820  27.685  25.130  0.00  0.00    +0.000 A 
ATOM     16  C   UNL     1      28.775  28.654  24.945  0.00  0.00    +0.000 A 
ATOM     17  C   UNL     1      30.024  28.358  24.416  0.00  0.00    +0.000 A 
ATOM     18  C   UNL     1      30.264  27.020  24.078  0.00  0.00    +0.000 A 
ENDBRANCH  12  13
BRANCH   1  19
ATOM     19  C   UNL     1      28.857  24.955  21.475  0.00  0.00    +0.000 C 
ATOM     20  O   UNL     1      29.696  24.560  20.662  0.00  0.00    +0.000 OA
BRANCH  19  22
ATOM     21  C   UNL     1      28.664  27.254  20.755  0.00  0.00    +0.000 C 
ATOM     22  O   UNL     1      28.097  26.037  21.169  0.00  0.00    +0.000 OA
ENDBRANCH  19  22
ENDBRANCH   1  19
TORSDOF 3
ENDMDL
MODEL 4
REMARK VINA RESULT:      -5.5     18.247     20.803
REMARK  Name = 
REMARK  3 active torsions:
REMARK  status: ('A' for Active; 'I' for Inactive)
REMARK    1  A    between atoms: O_2  and  C_3
REMARK    2  A    between atoms: C_3  and  C_5
REMARK    3  A    between atoms: C_16  and  C_17
REMARK                            x       y       z     vdW  Elec       q    Type
REMARK                         _______ _______ _______ _____ _____    ______ ____
ROOT
ATOM      1  C   UNL     1      17.956  10.521  37.423  0.00  0.00    +0.000 C 
ATOM      2  C   UNL     1      18.230  10.017  36.313  0.00  0.00    +0.000 C 
ATOM      3  N   UNL     1      17.110   9.810  35.402  0.00  0.00    +0.000 NA
ATOM      4  O   UNL     1      19.503   9.681  35.973  0.00  0.00    +0.000 OA
ATOM      5  C   UNL     1      20.530   9.887  36.841  0.00  0.00    +0.000 C 
ATOM      6  C   UNL     1      20.378  10.391  37.992  0.00  0.00    +0.000 C 
ATOM      7  C   UNL     1      21.510  10.612  38.936  0.00  0.00    +0.000 C 
ATOM      8  O   UNL     1      21.401  10.387  40.147  0.00  0.00    +0.000 OA
ATOM      9  C   UNL     1      22.731  11.115  38.267  0.00  0.00    +0.000 C 
ATOM     10  C   UNL     1      22.929  10.564  36.898  0.00  0.00    +0.000 C 
ATOM     11  C   UNL     1      21.961   9.516  36.478  0.00  0.00    +0.000 C 
ATOM     12  C   UNL     1      18.974  10.850  38.600  0.00  0.00    +0.000 C 
ENDROOT
BRANCH  12  13
ATOM     13  C   UNL     1      18.719   9.564  39.515  0.00  0.00    +0.000 A 
ATOM     14  C   UNL     1      18.820   8.322  39.147  0.00  0.00    +0.000 A 
ATOM     15  C   UNL     1      18.576   7.304  40.025  0.00  0.00    +0.000 A 
ATOM     16  C   UNL     1      18.220   7.631  41.311  0.00  0.00    +0.000 A 
ATOM     17  C   UNL     1      18.107   8.951  41.725  0.00  0.00    +0.000 A 
ATOM     18  C   UNL     1      18.373   9.937  40.767  0.00  0.00    +0.000 A 
ENDBRANCH  12  13
BRANCH   1  19
ATOM     19  C   UNL     1      16.560  10.890  37.797  0.00  0.00    +0.000 C 
ATOM     20  O   UNL     1      15.818  10.160  38.459  0.00  0.00    +0.000 OA
BRANCH  19  22
ATOM     21  C   UNL     1      14.848  12.245  36.762  0.00  0.00    +0.000 C 
ATOM     22  O   UNL     1      16.102  12.097  37.378  0.00  0.00    +0.000 OA
ENDBRANCH  19  22
ENDBRANCH   1  19
TORSDOF 3
ENDMDL
MODEL 5
REMARK VINA RESULT:      -5.5      2.363      5.246
REMARK  Name = 
REMARK  3 active torsions:
REMARK  status: ('A' for Active; 'I' for Inactive)
REMARK    1  A    between atoms: O_2  and  C_3
REMARK    2  A    between atoms: C_3  and  C_5
REMARK    3  A    between atoms: C_16  and  C_17
REMARK                            x       y       z     vdW  Elec       q    Type
REMARK                         _______ _______ _______ _____ _____    ______ ____
ROOT
ATOM      1  C   UNL     1      26.942  24.420  23.861  0.00  0.00    +0.000 C 
ATOM      2  C   UNL     1      26.717  24.087  22.678  0.00  0.00    +0.000 C 
ATOM      3  N   UNL     1      25.787  22.980  22.483  0.00  0.00    +0.000 NA
ATOM      4  O   UNL     1      27.305  24.723  21.629  0.00  0.00    +0.000 OA
ATOM      5  C   UNL     1      28.167  25.754  21.840  0.00  0.00    +0.000 C 
ATOM      6  C   UNL     1      28.472  26.182  22.991  0.00  0.00    +0.000 C 
ATOM      7  C   UNL     1      29.417  27.313  23.210  0.00  0.00    +0.000 C 
ATOM      8  O   UNL     1      30.253  27.296  24.121  0.00  0.00    +0.000 OA
ATOM      9  C   UNL     1      29.238  28.415  22.237  0.00  0.00    +0.000 C 
ATOM     10  C   UNL     1      28.851  27.950  20.877  0.00  0.00    +0.000 C 
ATOM     11  C   UNL     1      28.836  26.477  20.678  0.00  0.00    +0.000 C 
ATOM     12  C   UNL     1      27.907  25.582  24.359  0.00  0.00    +0.000 C 
ENDROOT
BRANCH  12  13
ATOM     13  C   UNL     1      29.185  24.697  24.734  0.00  0.00    +0.000 A 
ATOM     14  C   UNL     1      29.795  23.853  23.958  0.00  0.00    +0.000 A 
ATOM     15  C   UNL     1      30.884  23.152  24.396  0.00  0.00    +0.000 A 
ATOM     16  C   UNL     1      31.316  23.366  25.682  0.00  0.00    +0.000 A 
ATOM     17  C   UNL     1      30.680  24.264  26.527  0.00  0.00    +0.000 A 
ATOM     18  C   UNL     1      29.572  24.943  26.006  0.00  0.00    +0.000 A 
ENDBRANCH  12  13
BRANCH   1  19
ATOM     19  C   UNL     1      26.296  23.724  25.011  0.00  0.00    +0.000 C 
ATOM     20  O   UNL     1      25.357  24.200  25.654  0.00  0.00    +0.000 OA
BRANCH  19  22
ATOM     21  C   UNL     1      27.405  22.270  26.591  0.00  0.00    +0.000 C 
ATOM     22  O   UNL     1      26.783  22.504  25.353  0.00  0.00    +0.000 OA
ENDBRANCH  19  22
ENDBRANCH   1  19
TORSDOF 3
ENDMDL
MODEL 6
REMARK VINA RESULT:      -5.4     21.309     24.159
REMARK  Name = 
REMARK  3 active torsions:
REMARK  status: ('A' for Active; 'I' for Inactive)
REMARK    1  A    between atoms: O_2  and  C_3
REMARK    2  A    between atoms: C_3  and  C_5
REMARK    3  A    between atoms: C_16  and  C_17
REMARK                            x       y       z     vdW  Elec       q    Type
REMARK                         _______ _______ _______ _____ _____    ______ ____
ROOT
ATOM      1  C   UNL     1      34.258   3.167  37.997  0.00  0.00    +0.000 C 
ATOM      2  C   UNL     1      34.338   2.125  37.313  0.00  0.00    +0.000 C 
ATOM      3  N   UNL     1      34.586   0.887  38.045  0.00  0.00    +0.000 NA
ATOM      4  O   UNL     1      34.202   2.142  35.960  0.00  0.00    +0.000 OA
ATOM      5  C   UNL     1      33.970   3.310  35.302  0.00  0.00    +0.000 C 
ATOM      6  C   UNL     1      33.867   4.428  35.885  0.00  0.00    +0.000 C 
ATOM      7  C   UNL     1      33.612   5.702  35.154  0.00  0.00    +0.000 C 
ATOM      8  O   UNL     1      34.185   6.754  35.461  0.00  0.00    +0.000 OA
ATOM      9  C   UNL     1      32.627   5.555  34.059  0.00  0.00    +0.000 C 
ATOM     10  C   UNL     1      32.700   4.238  33.367  0.00  0.00    +0.000 C 
ATOM     11  C   UNL     1      33.815   3.349  33.787  0.00  0.00    +0.000 C 
ATOM     12  C   UNL     1      34.000   4.643  37.462  0.00  0.00    +0.000 C 
ENDROOT
BRANCH  12  13
ATOM     13  C   UNL     1      35.508   5.174  37.467  0.00  0.00    +0.000 A 
ATOM     14  C   UNL     1      36.505   4.676  36.801  0.00  0.00    +0.000 A 
ATOM     15  C   UNL     1      37.755   5.222  36.887  0.00  0.00    +0.000 A 
ATOM     16  C   UNL     1      37.928   6.316  37.700  0.00  0.00    +0.000 A 
ATOM     17  C   UNL     1      36.876   6.865  38.420  0.00  0.00    +0.000 A 
ATOM     18  C   UNL     1      35.626   6.249  38.279  0.00  0.00    +0.000 A 
ENDBRANCH  12  13
BRANCH   1  19
ATOM     19  C   UNL     1      34.407   3.149  39.481  0.00  0.00    +0.000 C 
ATOM     20  O   UNL     1      35.498   3.094  40.053  0.00  0.00    +0.000 OA
BRANCH  19  22
ATOM     21  C   UNL     1      32.886   2.139  41.063  0.00  0.00    +0.000 C 
ATOM     22  O   UNL     1      33.271   3.196  40.221  0.00  0.00    +0.000 OA
ENDBRANCH  19  22
ENDBRANCH   1  19
TORSDOF 3
ENDMDL
MODEL 7
REMARK VINA RESULT:      -5.3     17.375     19.645
REMARK  Name = 
REMARK  3 active torsions:
REMARK  status: ('A' for Active; 'I' for Inactive)
REMARK    1  A    between atoms: O_2  and  C_3
REMARK    2  A    between atoms: C_3  and  C_5
REMARK    3  A    between atoms: C_16  and  C_17
REMARK                            x       y       z     vdW  Elec       q    Type
REMARK                         _______ _______ _______ _____ _____    ______ ____
ROOT
ATOM      1  C   UNL     1      19.871  10.735  37.465  0.00  0.00    +0.000 C 
ATOM      2  C   UNL     1      19.985   9.884  36.557  0.00  0.00    +0.000 C 
ATOM      3  N   UNL     1      18.743   9.372  35.989  0.00  0.00    +0.000 NA
ATOM      4  O   UNL     1      21.201   9.459  36.122  0.00  0.00    +0.000 OA
ATOM      5  C   UNL     1      22.345   9.954  36.668  0.00  0.00    +0.000 C 
ATOM      6  C   UNL     1      22.357  10.819  37.591  0.00  0.00    +0.000 C 
ATOM      7  C   UNL     1      23.616  11.356  38.182  0.00  0.00    +0.000 C 
ATOM      8  O   UNL     1      23.730  11.557  39.397  0.00  0.00    +0.000 OA
ATOM      9  C   UNL     1      24.669  11.606  37.172  0.00  0.00    +0.000 C 
ATOM     10  C   UNL     1      24.667  10.622  36.055  0.00  0.00    +0.000 C 
ATOM     11  C   UNL     1      23.715   9.489  36.194  0.00  0.00    +0.000 C 
ATOM     12  C   UNL     1      21.049  11.452  38.256  0.00  0.00    +0.000 C 
ENDROOT
BRANCH  12  13
ATOM     13  C   UNL     1      21.042  10.553  39.579  0.00  0.00    +0.000 A 
ATOM     14  C   UNL     1      21.214   9.267  39.640  0.00  0.00    +0.000 A 
ATOM     15  C   UNL     1      21.186   8.608  40.837  0.00  0.00    +0.000 A 
ATOM     16  C   UNL     1      20.969   9.344  41.976  0.00  0.00    +0.000 A 
ATOM     17  C   UNL     1      20.783  10.719  41.933  0.00  0.00    +0.000 A 
ATOM     18  C   UNL     1      20.826  11.322  40.670  0.00  0.00    +0.000 A 
ENDBRANCH  12  13
BRANCH   1  19
ATOM     19  C   UNL     1      18.537  11.202  37.943  0.00  0.00    +0.000 C 
ATOM     20  O   UNL     1      17.813  10.541  38.691  0.00  0.00    +0.000 OA
BRANCH  19  22
ATOM     21  C   UNL     1      16.948  12.583  36.756  0.00  0.00    +0.000 C 
ATOM     22  O   UNL     1      18.116  12.421  37.520  0.00  0.00    +0.000 OA
ENDBRANCH  19  22
ENDBRANCH   1  19
TORSDOF 3
ENDMDL
MODEL 8
REMARK VINA RESULT:      -5.3      3.019      6.087
REMARK  Name = 
REMARK  3 active torsions:
REMARK  status: ('A' for Active; 'I' for Inactive)
REMARK    1  A    between atoms: O_2  and  C_3
REMARK    2  A    between atoms: C_3  and  C_5
REMARK    3  A    between atoms: C_16  and  C_17
REMARK                            x       y       z     vdW  Elec       q    Type
REMARK                         _______ _______ _______ _____ _____    ______ ____
ROOT
ATOM      1  C   UNL     1      30.841  23.290  27.947  0.00  0.00    +0.000 C 
ATOM      2  C   UNL     1      31.478  24.288  27.548  0.00  0.00    +0.000 C 
ATOM      3  N   UNL     1      32.566  24.747  28.405  0.00  0.00    +0.000 NA
ATOM      4  O   UNL     1      31.175  24.912  26.378  0.00  0.00    +0.000 OA
ATOM      5  C   UNL     1      30.157  24.462  25.597  0.00  0.00    +0.000 C 
ATOM      6  C   UNL     1      29.441  23.461  25.894  0.00  0.00    +0.000 C 
ATOM      7  C   UNL     1      28.328  22.976  25.030  0.00  0.00    +0.000 C 
ATOM      8  O   UNL     1      27.255  22.589  25.508  0.00  0.00    +0.000 OA
ATOM      9  C   UNL     1      28.655  23.015  23.587  0.00  0.00    +0.000 C 
ATOM     10  C   UNL     1      29.519  24.166  23.204  0.00  0.00    +0.000 C 
ATOM     11  C   UNL     1      29.802  25.147  24.284  0.00  0.00    +0.000 C 
ATOM     12  C   UNL     1      29.615  22.586  27.219  0.00  0.00    +0.000 C 
ENDROOT
BRANCH  12  13
ATOM     13  C   UNL     1      28.421  23.245  28.053  0.00  0.00    +0.000 A 
ATOM     14  C   UNL     1      28.140  24.511  28.134  0.00  0.00    +0.000 A 
ATOM     15  C   UNL     1      27.087  24.954  28.883  0.00  0.00    +0.000 A 
ATOM     16  C   UNL     1      26.332  24.022  29.552  0.00  0.00    +0.000 A 
ATOM     17  C   UNL     1      26.613  22.665  29.480  0.00  0.00    +0.000 A 
ATOM     18  C   UNL     1      27.708  22.290  28.691  0.00  0.00    +0.000 A 
ENDBRANCH  12  13
BRANCH   1  19
ATOM     19  C   UNL     1      31.173  22.606  29.230  0.00  0.00    +0.000 C 
ATOM     20  O   UNL     1      30.750  22.977  30.328  0.00  0.00    +0.000 OA
BRANCH  19  22
ATOM     21  C   UNL     1      33.215  21.467  29.841  0.00  0.00    +0.000 C 
ATOM     22  O   UNL     1      31.985  21.520  29.164  0.00  0.00    +0.000 OA
ENDBRANCH  19  22
ENDBRANCH   1  19
TORSDOF 3
ENDMDL
MODEL 9
REMARK VINA RESULT:      -5.3      3.748      6.312
REMARK  Name = 
REMARK  3 active torsions:
REMARK  status: ('A' for Active; 'I' for Inactive)
REMARK    1  A    between atoms: O_2  and  C_3
REMARK    2  A    between atoms: C_3  and  C_5
REMARK    3  A    between atoms: C_16  and  C_17
REMARK                            x       y       z     vdW  Elec       q    Type
REMARK                         _______ _______ _______ _____ _____    ______ ____
ROOT
ATOM      1  C   UNL     1      29.387  23.424  28.938  0.00  0.00    +0.000 C 
ATOM      2  C   UNL     1      28.638  22.613  28.354  0.00  0.00    +0.000 C 
ATOM      3  N   UNL     1      27.511  22.100  29.126  0.00  0.00    +0.000 NA
ATOM      4  O   UNL     1      28.859  22.230  27.068  0.00  0.00    +0.000 OA
ATOM      5  C   UNL     1      29.916  22.726  26.370  0.00  0.00    +0.000 C 
ATOM      6  C   UNL     1      30.743  23.552  26.853  0.00  0.00    +0.000 C 
ATOM      7  C   UNL     1      31.898  24.089  26.079  0.00  0.00    +0.000 C 
ATOM      8  O   UNL     1      33.012  24.242  26.594  0.00  0.00    +0.000 OA
ATOM      9  C   UNL     1      31.558  24.402  24.672  0.00  0.00    +0.000 C 
ATOM     10  C   UNL     1      30.565  23.464  24.078  0.00  0.00    +0.000 C 
ATOM     11  C   UNL     1      30.180  22.308  24.929  0.00  0.00    +0.000 C 
ATOM     12  C   UNL     1      30.680  24.131  28.340  0.00  0.00    +0.000 C 
ENDROOT
BRANCH  12  13
ATOM     13  C   UNL     1      31.798  23.178  28.974  0.00  0.00    +0.000 A 
ATOM     14  C   UNL     1      31.889  21.891  28.830  0.00  0.00    +0.000 A 
ATOM     15  C   UNL     1      32.895  21.183  29.424  0.00  0.00    +0.000 A 
ATOM     16  C   UNL     1      33.811  21.873  30.180  0.00  0.00    +0.000 A 
ATOM     17  C   UNL     1      33.734  23.248  30.347  0.00  0.00    +0.000 A 
ATOM     18  C   UNL     1      32.674  23.902  29.706  0.00  0.00    +0.000 A 
ENDBRANCH  12  13
BRANCH   1  19
ATOM     19  C   UNL     1      29.146  23.844  30.349  0.00  0.00    +0.000 C 
ATOM     20  O   UNL     1      28.692  24.948  30.661  0.00  0.00    +0.000 OA
BRANCH  19  22
ATOM     21  C   UNL     1      30.238  23.298  32.433  0.00  0.00    +0.000 C 
ATOM     22  O   UNL     1      29.448  22.951  31.325  0.00  0.00    +0.000 OA
ENDBRANCH  19  22
ENDBRANCH   1  19
TORSDOF 3
ENDMDL
MODEL 10
REMARK VINA RESULT:      -5.3     23.054     24.374
REMARK  Name = 
REMARK  3 active torsions:
REMARK  status: ('A' for Active; 'I' for Inactive)
REMARK    1  A    between atoms: O_2  and  C_3
REMARK    2  A    between atoms: C_3  and  C_5
REMARK    3  A    between atoms: C_16  and  C_17
REMARK                            x       y       z     vdW  Elec       q    Type
REMARK                         _______ _______ _______ _____ _____    ______ ____
ROOT
ATOM      1  C   UNL     1      24.559   0.573  16.681  0.00  0.00    +0.000 C 
ATOM      2  C   UNL     1      24.150   0.232  15.551  0.00  0.00    +0.000 C 
ATOM      3  N   UNL     1      25.059  -0.584  14.753  0.00  0.00    +0.000 NA
ATOM      4  O   UNL     1      22.925   0.599  15.090  0.00  0.00    +0.000 OA
ATOM      5  C   UNL     1      22.096   1.359  15.856  0.00  0.00    +0.000 C 
ATOM      6  C   UNL     1      22.397   1.765  17.016  0.00  0.00    +0.000 C 
ATOM      7  C   UNL     1      21.481   2.597  17.847  0.00  0.00    +0.000 C 
ATOM      8  O   UNL     1      21.897   3.543  18.525  0.00  0.00    +0.000 OA
ATOM      9  C   UNL     1      20.068   2.165  17.759  0.00  0.00    +0.000 C 
ATOM     10  C   UNL     1      19.684   1.655  16.414  0.00  0.00    +0.000 C 
ATOM     11  C   UNL     1      20.720   1.781  15.356  0.00  0.00    +0.000 C 
ATOM     12  C   UNL     1      23.783   1.459  17.750  0.00  0.00    +0.000 C 
ENDROOT
BRANCH  12  13
ATOM     13  C   UNL     1      24.481   2.868  17.457  0.00  0.00    +0.000 A 
ATOM     14  C   UNL     1      24.534   3.482  16.314  0.00  0.00    +0.000 A 
ATOM     15  C   UNL     1      25.163   4.689  16.189  0.00  0.00    +0.000 A 
ATOM     16  C   UNL     1      25.739   5.236  17.309  0.00  0.00    +0.000 A 
ATOM     17  C   UNL     1      25.693   4.598  18.541  0.00  0.00    +0.000 A 
ATOM     18  C   UNL     1      25.031   3.365  18.588  0.00  0.00    +0.000 A 
ENDBRANCH  12  13
BRANCH   1  19
ATOM     19  C   UNL     1      25.903   0.171  17.187  0.00  0.00    +0.000 C 
ATOM     20  O   UNL     1      26.930   0.824  16.984  0.00  0.00    +0.000 OA
BRANCH  19  22
ATOM     21  C   UNL     1      27.180  -1.692  18.046  0.00  0.00    +0.000 C 
ATOM     22  O   UNL     1      25.979  -0.977  17.906  0.00  0.00    +0.000 OA
ENDBRANCH  19  22
ENDBRANCH   1  19
TORSDOF 3
ENDMDL
