MODEL 1
REMARK VINA RESULT:      -8.5      0.000      0.000
REMARK  Name = 
REMARK  6 active torsions:
REMARK  status: ('A' for Active; 'I' for Inactive)
REMARK    1  A    between atoms: C_2  and  C_3
REMARK    2  A    between atoms: C_8  and  C_9
REMARK    3  A    between atoms: N_11  and  C_12
REMARK    4  A    between atoms: C_17  and  C_18
REMARK    5  A    between atoms: C_18  and  C_19
REMARK    6  A    between atoms: C_28  and  C_29
REMARK                            x       y       z     vdW  Elec       q    Type
REMARK                         _______ _______ _______ _____ _____    ______ ____
ROOT
ATOM      1  C   UNL     1      14.812  -0.301  27.064  0.00  0.00    +0.000 C 
ATOM      2  O   UNL     1      14.057  -1.242  26.799  0.00  0.00    +0.000 OA
ATOM      3  N   UNL     1      14.480   0.596  28.094  0.00  0.00    +0.000 NA
ENDROOT
BRANCH   1   9
ATOM      4  C   UNL     1      20.180  -0.399  23.527  0.00  0.00    +0.000 A 
ATOM      5  N   UNL     1      19.619   0.564  24.258  0.00  0.00    +0.000 NA
ATOM      6  C   UNL     1      18.465   0.365  24.936  0.00  0.00    +0.000 A 
ATOM      7  C   UNL     1      17.894   1.365  25.686  0.00  0.00    +0.000 A 
ATOM      8  C   UNL     1      16.719   1.126  26.361  0.00  0.00    +0.000 A 
ATOM      9  C   UNL     1      16.062  -0.083  26.333  0.00  0.00    +0.000 A 
ATOM     10  C   UNL     1      16.646  -1.083  25.575  0.00  0.00    +0.000 A 
ATOM     11  C   UNL     1      17.821  -0.877  24.887  0.00  0.00    +0.000 A 
ATOM     12  N   UNL     1      18.394  -1.832  24.151  0.00  0.00    +0.000 NA
ATOM     13  C   UNL     1      19.539  -1.642  23.475  0.00  0.00    +0.000 A 
BRANCH   4  15
ATOM     14  C   UNL     1      21.121   0.349  21.389  0.00  0.00    +0.000 C 
ATOM     15  C   UNL     1      21.459  -0.178  22.775  0.00  0.00    +0.000 C 
ENDBRANCH   4  15
BRANCH  13  16
ATOM     16  C   UNL     1      20.198  -2.688  22.653  0.00  0.00    +0.000 C 
ATOM     17  C   UNL     1      19.771  -4.078  22.994  0.00  0.00    +0.000 C 
ENDBRANCH  13  16
ENDBRANCH   1   9
BRANCH   3  18
ATOM     18  C   UNL     1      13.322   0.525  28.884  0.00  0.00    +0.000 A 
ATOM     19  C   UNL     1      13.314  -0.232  30.050  0.00  0.00    +0.000 A 
ATOM     20  C   UNL     1      12.158  -0.295  30.820  0.00  0.00    +0.000 A 
ATOM     21  C   UNL     1      11.012   0.377  30.458  0.00  0.00    +0.000 A 
ATOM     22  C   UNL     1      11.004   1.126  29.313  0.00  0.00    +0.000 A 
ATOM     23  C   UNL     1      12.170   1.187  28.541  0.00  0.00    +0.000 A 
BRANCH  23  24
ATOM     24  C   UNL     1      12.200   2.000  27.283  0.00  0.00    +0.000 C 
BRANCH  24  25
ATOM     25  C   UNL     1      11.088   1.529  26.424  0.00  0.00    +0.000 A 
ATOM     26  C   UNL     1      10.088   2.398  25.970  0.00  0.00    +0.000 A 
ATOM     27  C   UNL     1       9.079   1.893  25.171  0.00  0.00    +0.000 A 
ATOM     28  C   UNL     1       9.006   0.564  24.795  0.00  0.00    +0.000 A 
ATOM     29  C   UNL     1      10.007  -0.289  25.252  0.00  0.00    +0.000 A 
ATOM     30  C   UNL     1      11.017   0.206  26.050  0.00  0.00    +0.000 A 
ENDBRANCH  24  25
ENDBRANCH  23  24
ENDBRANCH   3  18
TORSDOF 6
ENDMDL
MODEL 2
REMARK VINA RESULT:      -8.2     22.616     25.870
REMARK  Name = 
REMARK  6 active torsions:
REMARK  status: ('A' for Active; 'I' for Inactive)
REMARK    1  A    between atoms: C_2  and  C_3
REMARK    2  A    between atoms: C_8  and  C_9
REMARK    3  A    between atoms: N_11  and  C_12
REMARK    4  A    between atoms: C_17  and  C_18
REMARK    5  A    between atoms: C_18  and  C_19
REMARK    6  A    between atoms: C_28  and  C_29
REMARK                            x       y       z     vdW  Elec       q    Type
REMARK                         _______ _______ _______ _____ _____    ______ ____
ROOT
ATOM      1  C   UNL     1      36.116  -0.317  16.393  0.00  0.00    +0.000 C 
ATOM      2  O   UNL     1      35.289  -1.234  16.433  0.00  0.00    +0.000 OA
ATOM      3  N   UNL     1      37.420  -0.528  16.877  0.00  0.00    +0.000 NA
ENDROOT
BRANCH   1   9
ATOM      4  C   UNL     1      35.490   5.282  13.297  0.00  0.00    +0.000 A 
ATOM      5  N   UNL     1      34.819   4.758  14.322  0.00  0.00    +0.000 NA
ATOM      6  C   UNL     1      35.123   3.540  14.826  0.00  0.00    +0.000 A 
ATOM      7  C   UNL     1      34.424   3.007  15.883  0.00  0.00    +0.000 A 
ATOM      8  C   UNL     1      34.763   1.765  16.369  0.00  0.00    +0.000 A 
ATOM      9  C   UNL     1      35.784   1.002  15.851  0.00  0.00    +0.000 A 
ATOM     10  C   UNL     1      36.482   1.547  14.787  0.00  0.00    +0.000 A 
ATOM     11  C   UNL     1      36.169   2.788  14.276  0.00  0.00    +0.000 A 
ATOM     12  N   UNL     1      36.832   3.326  13.250  0.00  0.00    +0.000 NA
ATOM     13  C   UNL     1      36.535   4.534  12.744  0.00  0.00    +0.000 A 
BRANCH   4  15
ATOM     14  C   UNL     1      33.845   7.100  13.360  0.00  0.00    +0.000 C 
ATOM     15  C   UNL     1      35.150   6.632  12.737  0.00  0.00    +0.000 C 
ENDBRANCH   4  15
BRANCH  13  16
ATOM     16  C   UNL     1      37.259   5.155  11.606  0.00  0.00    +0.000 C 
ATOM     17  C   UNL     1      36.914   4.561  10.279  0.00  0.00    +0.000 C 
ENDBRANCH  13  16
ENDBRANCH   1   9
BRANCH   3  18
ATOM     18  C   UNL     1      37.892  -1.729  17.427  0.00  0.00    +0.000 A 
ATOM     19  C   UNL     1      37.881  -1.922  18.804  0.00  0.00    +0.000 A 
ATOM     20  C   UNL     1      38.355  -3.116  19.334  0.00  0.00    +0.000 A 
ATOM     21  C   UNL     1      38.840  -4.122  18.527  0.00  0.00    +0.000 A 
ATOM     22  C   UNL     1      38.858  -3.947  17.171  0.00  0.00    +0.000 A 
ATOM     23  C   UNL     1      38.379  -2.743  16.641  0.00  0.00    +0.000 A 
BRANCH  23  24
ATOM     24  C   UNL     1      38.380  -2.517  15.160  0.00  0.00    +0.000 C 
BRANCH  24  25
ATOM     25  C   UNL     1      39.650  -1.837  14.816  0.00  0.00    +0.000 A 
ATOM     26  C   UNL     1      39.696  -0.470  14.513  0.00  0.00    +0.000 A 
ATOM     27  C   UNL     1      40.915   0.103  14.200  0.00  0.00    +0.000 A 
ATOM     28  C   UNL     1      42.099  -0.611  14.170  0.00  0.00    +0.000 A 
ATOM     29  C   UNL     1      42.040  -1.969  14.474  0.00  0.00    +0.000 A 
ATOM     30  C   UNL     1      40.828  -2.548  14.787  0.00  0.00    +0.000 A 
ENDBRANCH  24  25
ENDBRANCH  23  24
ENDBRANCH   3  18
TORSDOF 6
ENDMDL
MODEL 3
REMARK VINA RESULT:      -8.0     22.299     26.598
REMARK  Name = 
REMARK  6 active torsions:
REMARK  status: ('A' for Active; 'I' for Inactive)
REMARK    1  A    between atoms: C_2  and  C_3
REMARK    2  A    between atoms: C_8  and  C_9
REMARK    3  A    between atoms: N_11  and  C_12
REMARK    4  A    between atoms: C_17  and  C_18
REMARK    5  A    between atoms: C_18  and  C_19
REMARK    6  A    between atoms: C_28  and  C_29
REMARK                            x       y       z     vdW  Elec       q    Type
REMARK                         _______ _______ _______ _____ _____    ______ ____
ROOT
ATOM      1  C   UNL     1      38.551   5.728  16.830  0.00  0.00    +0.000 C 
ATOM      2  O   UNL     1      38.948   6.657  16.120  0.00  0.00    +0.000 OA
ATOM      3  N   UNL     1      38.348   5.934  18.206  0.00  0.00    +0.000 NA
ENDROOT
BRANCH   1   9
ATOM      4  C   UNL     1      36.576  -0.173  15.216  0.00  0.00    +0.000 A 
ATOM      5  N   UNL     1      37.521   0.614  14.705  0.00  0.00    +0.000 NA
ATOM      6  C   UNL     1      37.776   1.843  15.209  0.00  0.00    +0.000 A 
ATOM      7  C   UNL     1      38.753   2.648  14.674  0.00  0.00    +0.000 A 
ATOM      8  C   UNL     1      38.984   3.893  15.213  0.00  0.00    +0.000 A 
ATOM      9  C   UNL     1      38.279   4.397  16.283  0.00  0.00    +0.000 A 
ATOM     10  C   UNL     1      37.298   3.578  16.815  0.00  0.00    +0.000 A 
ATOM     11  C   UNL     1      37.042   2.327  16.298  0.00  0.00    +0.000 A 
ATOM     12  N   UNL     1      36.098   1.527  16.801  0.00  0.00    +0.000 NA
ATOM     13  C   UNL     1      35.839   0.306  16.305  0.00  0.00    +0.000 A 
BRANCH   4  15
ATOM     14  C   UNL     1      37.559  -2.062  13.998  0.00  0.00    +0.000 C 
ATOM     15  C   UNL     1      36.293  -1.536  14.656  0.00  0.00    +0.000 C 
ENDBRANCH   4  15
BRANCH  13  16
ATOM     16  C   UNL     1      34.798  -0.603  16.846  0.00  0.00    +0.000 C 
ATOM     17  C   UNL     1      35.032  -1.007  18.265  0.00  0.00    +0.000 C 
ENDBRANCH  13  16
ENDBRANCH   1   9
BRANCH   3  18
ATOM     18  C   UNL     1      38.564   7.145  18.881  0.00  0.00    +0.000 A 
ATOM     19  C   UNL     1      37.702   8.219  18.686  0.00  0.00    +0.000 A 
ATOM     20  C   UNL     1      37.930   9.414  19.359  0.00  0.00    +0.000 A 
ATOM     21  C   UNL     1      38.994   9.564  20.223  0.00  0.00    +0.000 A 
ATOM     22  C   UNL     1      39.849   8.517  20.425  0.00  0.00    +0.000 A 
ATOM     23  C   UNL     1      39.616   7.315  19.745  0.00  0.00    +0.000 A 
BRANCH  23  24
ATOM     24  C   UNL     1      40.530   6.145  19.944  0.00  0.00    +0.000 C 
BRANCH  24  25
ATOM     25  C   UNL     1      41.829   6.486  19.319  0.00  0.00    +0.000 A 
ATOM     26  C   UNL     1      42.963   6.779  20.087  0.00  0.00    +0.000 A 
ATOM     27  C   UNL     1      44.145   7.088  19.439  0.00  0.00    +0.000 A 
ATOM     28  C   UNL     1      44.264   7.124  18.062  0.00  0.00    +0.000 A 
ATOM     29  C   UNL     1      43.130   6.829  17.310  0.00  0.00    +0.000 A 
ATOM     30  C   UNL     1      41.947   6.520  17.948  0.00  0.00    +0.000 A 
ENDBRANCH  24  25
ENDBRANCH  23  24
ENDBRANCH   3  18
TORSDOF 6
ENDMDL
MODEL 4
REMARK VINA RESULT:      -7.9     22.529     26.127
REMARK  Name = 
REMARK  6 active torsions:
REMARK  status: ('A' for Active; 'I' for Inactive)
REMARK    1  A    between atoms: C_2  and  C_3
REMARK    2  A    between atoms: C_8  and  C_9
REMARK    3  A    between atoms: N_11  and  C_12
REMARK    4  A    between atoms: C_17  and  C_18
REMARK    5  A    between atoms: C_18  and  C_19
REMARK    6  A    between atoms: C_28  and  C_29
REMARK                            x       y       z     vdW  Elec       q    Type
REMARK                         _______ _______ _______ _____ _____    ______ ____
ROOT
ATOM      1  C   UNL     1      36.272   2.305  16.257  0.00  0.00    +0.000 C 
ATOM      2  O   UNL     1      35.057   2.327  16.032  0.00  0.00    +0.000 OA
ATOM      3  N   UNL     1      36.935   1.073  16.405  0.00  0.00    +0.000 NA
ENDROOT
BRANCH   1   9
ATOM      4  C   UNL     1      39.920   7.361  17.823  0.00  0.00    +0.000 A 
ATOM      5  N   UNL     1      39.301   7.034  16.690  0.00  0.00    +0.000 NA
ATOM      6  C   UNL     1      38.571   5.901  16.576  0.00  0.00    +0.000 A 
ATOM      7  C   UNL     1      37.936   5.572  15.402  0.00  0.00    +0.000 A 
ATOM      8  C   UNL     1      37.203   4.410  15.324  0.00  0.00    +0.000 A 
ATOM      9  C   UNL     1      37.060   3.533  16.376  0.00  0.00    +0.000 A 
ATOM     10  C   UNL     1      37.702   3.874  17.554  0.00  0.00    +0.000 A 
ATOM     11  C   UNL     1      38.444   5.029  17.665  0.00  0.00    +0.000 A 
ATOM     12  N   UNL     1      39.070   5.370  18.794  0.00  0.00    +0.000 NA
ATOM     13  C   UNL     1      39.797   6.493  18.913  0.00  0.00    +0.000 A 
BRANCH   4  15
ATOM     14  C   UNL     1      41.968   8.484  17.074  0.00  0.00    +0.000 C 
ATOM     15  C   UNL     1      40.731   8.617  17.948  0.00  0.00    +0.000 C 
ENDBRANCH   4  15
BRANCH  13  16
ATOM     16  C   UNL     1      40.499   6.895  20.158  0.00  0.00    +0.000 C 
ATOM     17  C   UNL     1      41.823   6.228  20.343  0.00  0.00    +0.000 C 
ENDBRANCH  13  16
ENDBRANCH   1   9
BRANCH   3  18
ATOM     18  C   UNL     1      36.324  -0.187  16.321  0.00  0.00    +0.000 A 
ATOM     19  C   UNL     1      35.557  -0.666  17.378  0.00  0.00    +0.000 A 
ATOM     20  C   UNL     1      34.961  -1.919  17.282  0.00  0.00    +0.000 A 
ATOM     21  C   UNL     1      35.109  -2.704  16.159  0.00  0.00    +0.000 A 
ATOM     22  C   UNL     1      35.861  -2.246  15.112  0.00  0.00    +0.000 A 
ATOM     23  C   UNL     1      36.459  -0.984  15.213  0.00  0.00    +0.000 A 
BRANCH  23  24
ATOM     24  C   UNL     1      37.286  -0.449  14.085  0.00  0.00    +0.000 C 
BRANCH  24  25
ATOM     25  C   UNL     1      38.513  -1.276  14.002  0.00  0.00    +0.000 A 
ATOM     26  C   UNL     1      38.811  -2.042  12.869  0.00  0.00    +0.000 A 
ATOM     27  C   UNL     1      39.973  -2.791  12.857  0.00  0.00    +0.000 A 
ATOM     28  C   UNL     1      40.862  -2.822  13.916  0.00  0.00    +0.000 A 
ATOM     29  C   UNL     1      40.555  -2.055  15.037  0.00  0.00    +0.000 A 
ATOM     30  C   UNL     1      39.397  -1.305  15.057  0.00  0.00    +0.000 A 
ENDBRANCH  24  25
ENDBRANCH  23  24
ENDBRANCH   3  18
TORSDOF 6
ENDMDL
MODEL 5
REMARK VINA RESULT:      -7.7     22.694     27.035
REMARK  Name = 
REMARK  6 active torsions:
REMARK  status: ('A' for Active; 'I' for Inactive)
REMARK    1  A    between atoms: C_2  and  C_3
REMARK    2  A    between atoms: C_8  and  C_9
REMARK    3  A    between atoms: N_11  and  C_12
REMARK    4  A    between atoms: C_17  and  C_18
REMARK    5  A    between atoms: C_18  and  C_19
REMARK    6  A    between atoms: C_28  and  C_29
REMARK                            x       y       z     vdW  Elec       q    Type
REMARK                         _______ _______ _______ _____ _____    ______ ____
ROOT
ATOM      1  C   UNL     1      38.790  -0.861  14.675  0.00  0.00    +0.000 C 
ATOM      2  O   UNL     1      39.281  -0.366  15.695  0.00  0.00    +0.000 OA
ATOM      3  N   UNL     1      37.423  -0.682  14.398  0.00  0.00    +0.000 NA
ENDROOT
BRANCH   1   9
ATOM      4  C   UNL     1      41.758  -3.708   9.735  0.00  0.00    +0.000 A 
ATOM      5  N   UNL     1      41.889  -3.860  11.052  0.00  0.00    +0.000 NA
ATOM      6  C   UNL     1      41.149  -3.145  11.930  0.00  0.00    +0.000 A 
ATOM      7  C   UNL     1      41.292  -3.308  13.287  0.00  0.00    +0.000 A 
ATOM      8  C   UNL     1      40.522  -2.562  14.149  0.00  0.00    +0.000 A 
ATOM      9  C   UNL     1      39.592  -1.638  13.728  0.00  0.00    +0.000 A 
ATOM     10  C   UNL     1      39.455  -1.482  12.360  0.00  0.00    +0.000 A 
ATOM     11  C   UNL     1      40.211  -2.213  11.469  0.00  0.00    +0.000 A 
ATOM     12  N   UNL     1      40.091  -2.071  10.147  0.00  0.00    +0.000 NA
ATOM     13  C   UNL     1      40.822  -2.778   9.270  0.00  0.00    +0.000 A 
BRANCH   4  15
ATOM     14  C   UNL     1      42.293  -5.978   8.976  0.00  0.00    +0.000 C 
ATOM     15  C   UNL     1      42.580  -4.501   8.762  0.00  0.00    +0.000 C 
ENDBRANCH   4  15
BRANCH  13  16
ATOM     16  C   UNL     1      40.706  -2.641   7.796  0.00  0.00    +0.000 C 
ATOM     17  C   UNL     1      40.329  -1.267   7.348  0.00  0.00    +0.000 C 
ENDBRANCH  13  16
ENDBRANCH   1   9
BRANCH   3  18
ATOM     18  C   UNL     1      36.522   0.032  15.203  0.00  0.00    +0.000 A 
ATOM     19  C   UNL     1      36.469   1.420  15.133  0.00  0.00    +0.000 A 
ATOM     20  C   UNL     1      35.574   2.115  15.939  0.00  0.00    +0.000 A 
ATOM     21  C   UNL     1      34.731   1.461  16.812  0.00  0.00    +0.000 A 
ATOM     22  C   UNL     1      34.773   0.096  16.892  0.00  0.00    +0.000 A 
ATOM     23  C   UNL     1      35.676  -0.599  16.078  0.00  0.00    +0.000 A 
BRANCH  23  24
ATOM     24  C   UNL     1      35.747  -2.094  16.137  0.00  0.00    +0.000 C 
BRANCH  24  25
ATOM     25  C   UNL     1      36.747  -2.451  17.170  0.00  0.00    +0.000 A 
ATOM     26  C   UNL     1      37.745  -3.405  16.932  0.00  0.00    +0.000 A 
ATOM     27  C   UNL     1      38.647  -3.691  17.939  0.00  0.00    +0.000 A 
ATOM     28  C   UNL     1      38.614  -3.079  19.179  0.00  0.00    +0.000 A 
ATOM     29  C   UNL     1      37.618  -2.132  19.403  0.00  0.00    +0.000 A 
ATOM     30  C   UNL     1      36.713  -1.841  18.403  0.00  0.00    +0.000 A 
ENDBRANCH  24  25
ENDBRANCH  23  24
ENDBRANCH   3  18
TORSDOF 6
ENDMDL
MODEL 6
REMARK VINA RESULT:      -7.7     22.643     27.243
REMARK  Name = 
REMARK  6 active torsions:
REMARK  status: ('A' for Active; 'I' for Inactive)
REMARK    1  A    between atoms: C_2  and  C_3
REMARK    2  A    between atoms: C_8  and  C_9
REMARK    3  A    between atoms: N_11  and  C_12
REMARK    4  A    between atoms: C_17  and  C_18
REMARK    5  A    between atoms: C_18  and  C_19
REMARK    6  A    between atoms: C_28  and  C_29
REMARK                            x       y       z     vdW  Elec       q    Type
REMARK                         _______ _______ _______ _____ _____    ______ ____
ROOT
ATOM      1  C   UNL     1      38.766  -0.834  14.674  0.00  0.00    +0.000 C 
ATOM      2  O   UNL     1      39.243  -0.413  15.733  0.00  0.00    +0.000 OA
ATOM      3  N   UNL     1      37.404  -0.632  14.389  0.00  0.00    +0.000 NA
ENDROOT
BRANCH   1   9
ATOM      4  C   UNL     1      43.149  -3.907  11.114  0.00  0.00    +0.000 A 
ATOM      5  N   UNL     1      41.878  -3.590  10.872  0.00  0.00    +0.000 NA
ATOM      6  C   UNL     1      41.122  -2.927  11.779  0.00  0.00    +0.000 A 
ATOM      7  C   UNL     1      39.811  -2.605  11.521  0.00  0.00    +0.000 A 
ATOM      8  C   UNL     1      39.075  -1.932  12.468  0.00  0.00    +0.000 A 
ATOM      9  C   UNL     1      39.580  -1.550  13.690  0.00  0.00    +0.000 A 
ATOM     10  C   UNL     1      40.901  -1.878  13.939  0.00  0.00    +0.000 A 
ATOM     11  C   UNL     1      41.667  -2.552  13.013  0.00  0.00    +0.000 A 
ATOM     12  N   UNL     1      42.942  -2.877  13.241  0.00  0.00    +0.000 NA
ATOM     13  C   UNL     1      43.697  -3.534  12.346  0.00  0.00    +0.000 A 
BRANCH   4  15
ATOM     14  C   UNL     1      43.062  -5.446   9.205  0.00  0.00    +0.000 C 
ATOM     15  C   UNL     1      43.985  -4.642  10.108  0.00  0.00    +0.000 C 
ENDBRANCH   4  15
BRANCH  13  16
ATOM     16  C   UNL     1      45.116  -3.904  12.574  0.00  0.00    +0.000 C 
ATOM     17  C   UNL     1      45.755  -3.167  13.705  0.00  0.00    +0.000 C 
ENDBRANCH  13  16
ENDBRANCH   1   9
BRANCH   3  18
ATOM     18  C   UNL     1      36.494   0.030  15.226  0.00  0.00    +0.000 A 
ATOM     19  C   UNL     1      36.392   1.417  15.193  0.00  0.00    +0.000 A 
ATOM     20  C   UNL     1      35.488   2.060  16.031  0.00  0.00    +0.000 A 
ATOM     21  C   UNL     1      34.682   1.355  16.900  0.00  0.00    +0.000 A 
ATOM     22  C   UNL     1      34.771  -0.009  16.943  0.00  0.00    +0.000 A 
ATOM     23  C   UNL     1      35.684  -0.652  16.098  0.00  0.00    +0.000 A 
BRANCH  23  24
ATOM     24  C   UNL     1      35.806  -2.145  16.116  0.00  0.00    +0.000 C 
BRANCH  24  25
ATOM     25  C   UNL     1      36.774  -2.498  17.180  0.00  0.00    +0.000 A 
ATOM     26  C   UNL     1      36.756  -1.868  18.431  0.00  0.00    +0.000 A 
ATOM     27  C   UNL     1      37.688  -2.245  19.380  0.00  0.00    +0.000 A 
ATOM     28  C   UNL     1      38.643  -3.220  19.155  0.00  0.00    +0.000 A 
ATOM     29  C   UNL     1      38.649  -3.839  17.908  0.00  0.00    +0.000 A 
ATOM     30  C   UNL     1      37.723  -3.468  16.955  0.00  0.00    +0.000 A 
ENDBRANCH  24  25
ENDBRANCH  23  24
ENDBRANCH   3  18
TORSDOF 6
ENDMDL
MODEL 7
REMARK VINA RESULT:      -7.6     22.828     25.873
REMARK  Name = 
REMARK  6 active torsions:
REMARK  status: ('A' for Active; 'I' for Inactive)
REMARK    1  A    between atoms: C_2  and  C_3
REMARK    2  A    between atoms: C_8  and  C_9
REMARK    3  A    between atoms: N_11  and  C_12
REMARK    4  A    between atoms: C_17  and  C_18
REMARK    5  A    between atoms: C_18  and  C_19
REMARK    6  A    between atoms: C_28  and  C_29
REMARK                            x       y       z     vdW  Elec       q    Type
REMARK                         _______ _______ _______ _____ _____    ______ ____
ROOT
ATOM      1  C   UNL     1      38.358   1.767  14.253  0.00  0.00    +0.000 C 
ATOM      2  O   UNL     1      38.881   1.959  15.356  0.00  0.00    +0.000 OA
ATOM      3  N   UNL     1      38.414   0.492  13.663  0.00  0.00    +0.000 NA
ENDROOT
BRANCH   1   9
ATOM      4  C   UNL     1      34.827   6.656  12.027  0.00  0.00    +0.000 A 
ATOM      5  N   UNL     1      35.730   5.876  11.435  0.00  0.00    +0.000 NA
ATOM      6  C   UNL     1      36.366   4.886  12.103  0.00  0.00    +0.000 A 
ATOM      7  C   UNL     1      37.296   4.086  11.484  0.00  0.00    +0.000 A 
ATOM      8  C   UNL     1      37.923   3.090  12.196  0.00  0.00    +0.000 A 
ATOM      9  C   UNL     1      37.671   2.836  13.526  0.00  0.00    +0.000 A 
ATOM     10  C   UNL     1      36.732   3.646  14.140  0.00  0.00    +0.000 A 
ATOM     11  C   UNL     1      36.086   4.653  13.455  0.00  0.00    +0.000 A 
ATOM     12  N   UNL     1      35.179   5.443  14.035  0.00  0.00    +0.000 NA
ATOM     13  C   UNL     1      34.545   6.427  13.378  0.00  0.00    +0.000 A 
BRANCH   4  15
ATOM     14  C   UNL     1      34.466   7.639   9.809  0.00  0.00    +0.000 C 
ATOM     15  C   UNL     1      34.124   7.754  11.285  0.00  0.00    +0.000 C 
ENDBRANCH   4  15
BRANCH  13  16
ATOM     16  C   UNL     1      33.531   7.317  13.999  0.00  0.00    +0.000 C 
ATOM     17  C   UNL     1      34.120   8.397  14.847  0.00  0.00    +0.000 C 
ENDBRANCH  13  16
ENDBRANCH   1   9
BRANCH   3  18
ATOM     18  C   UNL     1      39.034  -0.633  14.229  0.00  0.00    +0.000 A 
ATOM     19  C   UNL     1      40.420  -0.747  14.219  0.00  0.00    +0.000 A 
ATOM     20  C   UNL     1      41.020  -1.869  14.781  0.00  0.00    +0.000 A 
ATOM     21  C   UNL     1      40.274  -2.877  15.351  0.00  0.00    +0.000 A 
ATOM     22  C   UNL     1      38.910  -2.778  15.368  0.00  0.00    +0.000 A 
ATOM     23  C   UNL     1      38.310  -1.647  14.801  0.00  0.00    +0.000 A 
BRANCH  23  24
ATOM     24  C   UNL     1      36.819  -1.503  14.805  0.00  0.00    +0.000 C 
BRANCH  24  25
ATOM     25  C   UNL     1      36.437  -0.865  16.086  0.00  0.00    +0.000 A 
ATOM     26  C   UNL     1      35.664   0.302  16.127  0.00  0.00    +0.000 A 
ATOM     27  C   UNL     1      35.343   0.846  17.357  0.00  0.00    +0.000 A 
ATOM     28  C   UNL     1      35.751   0.293  18.557  0.00  0.00    +0.000 A 
ATOM     29  C   UNL     1      36.519  -0.867  18.503  0.00  0.00    +0.000 A 
ATOM     30  C   UNL     1      36.843  -1.417  17.280  0.00  0.00    +0.000 A 
ENDBRANCH  24  25
ENDBRANCH  23  24
ENDBRANCH   3  18
TORSDOF 6
ENDMDL
MODEL 8
REMARK VINA RESULT:      -7.6     22.747     27.041
REMARK  Name = 
REMARK  6 active torsions:
REMARK  status: ('A' for Active; 'I' for Inactive)
REMARK    1  A    between atoms: C_2  and  C_3
REMARK    2  A    between atoms: C_8  and  C_9
REMARK    3  A    between atoms: N_11  and  C_12
REMARK    4  A    between atoms: C_17  and  C_18
REMARK    5  A    between atoms: C_18  and  C_19
REMARK    6  A    between atoms: C_28  and  C_29
REMARK                            x       y       z     vdW  Elec       q    Type
REMARK                         _______ _______ _______ _____ _____    ______ ____
ROOT
ATOM      1  C   UNL     1      38.285  -1.074  14.173  0.00  0.00    +0.000 C 
ATOM      2  O   UNL     1      37.268  -1.320  13.516  0.00  0.00    +0.000 OA
ATOM      3  N   UNL     1      38.207  -0.228  15.294  0.00  0.00    +0.000 NA
ENDROOT
BRANCH   1   9
ATOM      4  C   UNL     1      44.409  -2.875  13.418  0.00  0.00    +0.000 A 
ATOM      5  N   UNL     1      43.291  -3.264  12.807  0.00  0.00    +0.000 NA
ATOM      6  C   UNL     1      42.084  -2.744  13.128  0.00  0.00    +0.000 A 
ATOM      7  C   UNL     1      40.936  -3.152  12.492  0.00  0.00    +0.000 A 
ATOM      8  C   UNL     1      39.727  -2.600  12.846  0.00  0.00    +0.000 A 
ATOM      9  C   UNL     1      39.589  -1.639  13.822  0.00  0.00    +0.000 A 
ATOM     10  C   UNL     1      40.751  -1.234  14.455  0.00  0.00    +0.000 A 
ATOM     11  C   UNL     1      41.978  -1.767  14.125  0.00  0.00    +0.000 A 
ATOM     12  N   UNL     1      43.107  -1.387  14.729  0.00  0.00    +0.000 NA
ATOM     13  C   UNL     1      44.308  -1.900  14.416  0.00  0.00    +0.000 A 
BRANCH   4  15
ATOM     14  C   UNL     1      45.562  -4.432  11.913  0.00  0.00    +0.000 C 
ATOM     15  C   UNL     1      45.747  -3.454  13.063  0.00  0.00    +0.000 C 
ENDBRANCH   4  15
BRANCH  13  16
ATOM     16  C   UNL     1      45.577  -1.493  15.070  0.00  0.00    +0.000 C 
ATOM     17  C   UNL     1      45.500  -0.170  15.759  0.00  0.00    +0.000 C 
ENDBRANCH  13  16
ENDBRANCH   1   9
BRANCH   3  18
ATOM     18  C   UNL     1      37.037   0.391  15.759  0.00  0.00    +0.000 A 
ATOM     19  C   UNL     1      36.560   1.542  15.140  0.00  0.00    +0.000 A 
ATOM     20  C   UNL     1      35.401   2.146  15.614  0.00  0.00    +0.000 A 
ATOM     21  C   UNL     1      34.705   1.631  16.687  0.00  0.00    +0.000 A 
ATOM     22  C   UNL     1      35.162   0.500  17.305  0.00  0.00    +0.000 A 
ATOM     23  C   UNL     1      36.330  -0.105  16.825  0.00  0.00    +0.000 A 
BRANCH  23  24
ATOM     24  C   UNL     1      36.858  -1.347  17.475  0.00  0.00    +0.000 C 
BRANCH  24  25
ATOM     25  C   UNL     1      36.307  -2.505  16.732  0.00  0.00    +0.000 A 
ATOM     26  C   UNL     1      35.000  -2.504  16.229  0.00  0.00    +0.000 A 
ATOM     27  C   UNL     1      34.548  -3.617  15.545  0.00  0.00    +0.000 A 
ATOM     28  C   UNL     1      35.327  -4.739  15.331  0.00  0.00    +0.000 A 
ATOM     29  C   UNL     1      36.625  -4.727  15.835  0.00  0.00    +0.000 A 
ATOM     30  C   UNL     1      37.084  -3.621  16.519  0.00  0.00    +0.000 A 
ENDBRANCH  24  25
ENDBRANCH  23  24
ENDBRANCH   3  18
TORSDOF 6
ENDMDL
MODEL 9
REMARK VINA RESULT:      -7.5     22.977     26.112
REMARK  Name = 
REMARK  6 active torsions:
REMARK  status: ('A' for Active; 'I' for Inactive)
REMARK    1  A    between atoms: C_2  and  C_3
REMARK    2  A    between atoms: C_8  and  C_9
REMARK    3  A    between atoms: N_11  and  C_12
REMARK    4  A    between atoms: C_17  and  C_18
REMARK    5  A    between atoms: C_18  and  C_19
REMARK    6  A    between atoms: C_28  and  C_29
REMARK                            x       y       z     vdW  Elec       q    Type
REMARK                         _______ _______ _______ _____ _____    ______ ____
ROOT
ATOM      1  C   UNL     1      36.444   3.490  15.549  0.00  0.00    +0.000 C 
ATOM      2  O   UNL     1      35.499   4.087  15.023  0.00  0.00    +0.000 OA
ATOM      3  N   UNL     1      37.580   4.205  15.966  0.00  0.00    +0.000 NA
ENDROOT
BRANCH   1   9
ATOM      4  C   UNL     1      37.425  -2.835  16.150  0.00  0.00    +0.000 A 
ATOM      5  N   UNL     1      36.344  -2.084  16.357  0.00  0.00    +0.000 NA
ATOM      6  C   UNL     1      36.358  -0.745  16.165  0.00  0.00    +0.000 A 
ATOM      7  C   UNL     1      35.239   0.022  16.383  0.00  0.00    +0.000 A 
ATOM      8  C   UNL     1      35.291   1.381  16.178  0.00  0.00    +0.000 A 
ATOM      9  C   UNL     1      36.424   2.040  15.756  0.00  0.00    +0.000 A 
ATOM     10  C   UNL     1      37.545   1.259  15.539  0.00  0.00    +0.000 A 
ATOM     11  C   UNL     1      37.527  -0.105  15.736  0.00  0.00    +0.000 A 
ATOM     12  N   UNL     1      38.602  -0.870  15.531  0.00  0.00    +0.000 NA
ATOM     13  C   UNL     1      38.594  -2.200  15.720  0.00  0.00    +0.000 A 
BRANCH   4  15
ATOM     14  C   UNL     1      36.103  -4.875  15.816  0.00  0.00    +0.000 C 
ATOM     15  C   UNL     1      37.408  -4.320  16.364  0.00  0.00    +0.000 C 
ENDBRANCH   4  15
BRANCH  13  16
ATOM     16  C   UNL     1      39.775  -3.073  15.498  0.00  0.00    +0.000 C 
ATOM     17  C   UNL     1      40.976  -2.342  14.995  0.00  0.00    +0.000 C 
ENDBRANCH  13  16
ENDBRANCH   1   9
BRANCH   3  18
ATOM     18  C   UNL     1      37.754   5.591  15.837  0.00  0.00    +0.000 A 
ATOM     19  C   UNL     1      37.421   6.231  14.647  0.00  0.00    +0.000 A 
ATOM     20  C   UNL     1      37.602   7.605  14.533  0.00  0.00    +0.000 A 
ATOM     21  C   UNL     1      38.104   8.356  15.574  0.00  0.00    +0.000 A 
ATOM     22  C   UNL     1      38.436   7.740  16.749  0.00  0.00    +0.000 A 
ATOM     23  C   UNL     1      38.252   6.356  16.860  0.00  0.00    +0.000 A 
BRANCH  23  24
ATOM     24  C   UNL     1      38.601   5.649  18.134  0.00  0.00    +0.000 C 
BRANCH  24  25
ATOM     25  C   UNL     1      39.985   6.037  18.492  0.00  0.00    +0.000 A 
ATOM     26  C   UNL     1      41.000   6.121  17.530  0.00  0.00    +0.000 A 
ATOM     27  C   UNL     1      42.270   6.490  17.932  0.00  0.00    +0.000 A 
ATOM     28  C   UNL     1      42.592   6.780  19.245  0.00  0.00    +0.000 A 
ATOM     29  C   UNL     1      41.574   6.694  20.191  0.00  0.00    +0.000 A 
ATOM     30  C   UNL     1      40.304   6.327  19.799  0.00  0.00    +0.000 A 
ENDBRANCH  24  25
ENDBRANCH  23  24
ENDBRANCH   3  18
TORSDOF 6
ENDMDL
MODEL 10
REMARK VINA RESULT:      -7.5     22.714     27.030
REMARK  Name = 
REMARK  6 active torsions:
REMARK  status: ('A' for Active; 'I' for Inactive)
REMARK    1  A    between atoms: C_2  and  C_3
REMARK    2  A    between atoms: C_8  and  C_9
REMARK    3  A    between atoms: N_11  and  C_12
REMARK    4  A    between atoms: C_17  and  C_18
REMARK    5  A    between atoms: C_18  and  C_19
REMARK    6  A    between atoms: C_28  and  C_29
REMARK                            x       y       z     vdW  Elec       q    Type
REMARK                         _______ _______ _______ _____ _____    ______ ____
ROOT
ATOM      1  C   UNL     1      38.422  -0.941  14.137  0.00  0.00    +0.000 C 
ATOM      2  O   UNL     1      37.466  -0.998  13.357  0.00  0.00    +0.000 OA
ATOM      3  N   UNL     1      38.270  -0.317  15.388  0.00  0.00    +0.000 NA
ENDROOT
BRANCH   1   9
ATOM      4  C   UNL     1      43.676  -3.744  11.715  0.00  0.00    +0.000 A 
ATOM      5  N   UNL     1      43.463  -3.111  12.868  0.00  0.00    +0.000 NA
ATOM      6  C   UNL     1      42.256  -2.587  13.182  0.00  0.00    +0.000 A 
ATOM      7  C   UNL     1      42.046  -1.934  14.373  0.00  0.00    +0.000 A 
ATOM      8  C   UNL     1      40.805  -1.414  14.657  0.00  0.00    +0.000 A 
ATOM      9  C   UNL     1      39.730  -1.508  13.802  0.00  0.00    +0.000 A 
ATOM     10  C   UNL     1      39.952  -2.167  12.606  0.00  0.00    +0.000 A 
ATOM     11  C   UNL     1      41.183  -2.700  12.290  0.00  0.00    +0.000 A 
ATOM     12  N   UNL     1      41.411  -3.337  11.139  0.00  0.00    +0.000 NA
ATOM     13  C   UNL     1      42.607  -3.859  10.821  0.00  0.00    +0.000 A 
BRANCH   4  15
ATOM     14  C   UNL     1      45.924  -4.208  12.582  0.00  0.00    +0.000 C 
ATOM     15  C   UNL     1      45.016  -4.323  11.368  0.00  0.00    +0.000 C 
ENDBRANCH   4  15
BRANCH  13  16
ATOM     16  C   UNL     1      42.886  -4.574   9.550  0.00  0.00    +0.000 C 
ATOM     17  C   UNL     1      42.066  -5.809   9.363  0.00  0.00    +0.000 C 
ENDBRANCH  13  16
ENDBRANCH   1   9
BRANCH   3  18
ATOM     18  C   UNL     1      37.086   0.274  15.857  0.00  0.00    +0.000 A 
ATOM     19  C   UNL     1      36.689   1.519  15.381  0.00  0.00    +0.000 A 
ATOM     20  C   UNL     1      35.515   2.093  15.856  0.00  0.00    +0.000 A 
ATOM     21  C   UNL     1      34.729   1.458  16.793  0.00  0.00    +0.000 A 
ATOM     22  C   UNL     1      35.107   0.233  17.270  0.00  0.00    +0.000 A 
ATOM     23  C   UNL     1      36.290  -0.342  16.788  0.00  0.00    +0.000 A 
BRANCH  23  24
ATOM     24  C   UNL     1      36.733  -1.683  17.285  0.00  0.00    +0.000 C 
BRANCH  24  25
ATOM     25  C   UNL     1      36.119  -2.707  16.408  0.00  0.00    +0.000 A 
ATOM     26  C   UNL     1      36.896  -3.637  15.705  0.00  0.00    +0.000 A 
ATOM     27  C   UNL     1      36.259  -4.566  14.904  0.00  0.00    +0.000 A 
ATOM     28  C   UNL     1      34.885  -4.623  14.759  0.00  0.00    +0.000 A 
ATOM     29  C   UNL     1      34.125  -3.693  15.463  0.00  0.00    +0.000 A 
ATOM     30  C   UNL     1      34.752  -2.763  16.265  0.00  0.00    +0.000 A 
ENDBRANCH  24  25
ENDBRANCH  23  24
ENDBRANCH   3  18
TORSDOF 6
ENDMDL
