MODEL 1
REMARK VINA RESULT:      -6.5      0.000      0.000
REMARK  Name = 
REMARK  4 active torsions:
REMARK  status: ('A' for Active; 'I' for Inactive)
REMARK    1  A    between atoms: O_2  and  C_3
REMARK    2  A    between atoms: C_6  and  C_7
REMARK    3  A    between atoms: C_7  and  N_8
REMARK    4  A    between atoms: N_8  and  C_9
REMARK                            x       y       z     vdW  Elec       q    Type
REMARK                         _______ _______ _______ _____ _____    ______ ____
ROOT
ATOM      1  C   UNL     1      17.651  10.351  37.192  0.00  0.00    +0.000 C 
ENDROOT
BRANCH   1   5
ATOM      2  C   UNL     1      16.069  11.210  33.333  0.00  0.00    +0.000 A 
ATOM      3  C   UNL     1      17.132  10.340  33.471  0.00  0.00    +0.000 A 
ATOM      4  C   UNL     1      17.652  10.058  34.745  0.00  0.00    +0.000 A 
ATOM      5  C   UNL     1      17.104  10.648  35.860  0.00  0.00    +0.000 A 
ATOM      6  C   UNL     1      16.053  11.507  35.714  0.00  0.00    +0.000 A 
ATOM      7  O   UNL     1      15.456  12.133  36.791  0.00  0.00    +0.000 OA
ATOM      8  C   UNL     1      15.521  11.801  34.450  0.00  0.00    +0.000 A 
BRANCH   2  10
ATOM      9  C   UNL     1      14.552  10.630  31.568  0.00  0.00    +0.000 C 
ATOM     10  O   UNL     1      15.520  11.520  32.093  0.00  0.00    +0.000 OA
ENDBRANCH   2  10
ENDBRANCH   1   5
BRANCH   1  11
ATOM     11  N   UNL     1      18.818   9.513  37.149  0.00  0.00    +0.000 NA
BRANCH  11  12
ATOM     12  C   UNL     1      20.106  10.136  37.302  0.00  0.00    +0.000 A 
ATOM     13  C   UNL     1      20.293  11.174  38.194  0.00  0.00    +0.000 A 
ATOM     14  C   UNL     1      21.511  11.788  38.362  0.00  0.00    +0.000 A 
ATOM     15  C   UNL     1      22.609  11.374  37.625  0.00  0.00    +0.000 A 
ATOM     16 BR   UNL     1      24.276  12.238  37.875  0.00  0.00    +0.000 Br
ATOM     17  C   UNL     1      22.411  10.338  36.738  0.00  0.00    +0.000 A 
ATOM     18  C   UNL     1      23.616   9.903  35.947  0.00  0.00    +0.000 C 
ATOM     19  C   UNL     1      21.190   9.724  36.572  0.00  0.00    +0.000 A 
ENDBRANCH  11  12
ENDBRANCH   1  11
TORSDOF 4
ENDMDL
MODEL 2
REMARK VINA RESULT:      -6.4      3.509      6.844
REMARK  Name = 
REMARK  4 active torsions:
REMARK  status: ('A' for Active; 'I' for Inactive)
REMARK    1  A    between atoms: O_2  and  C_3
REMARK    2  A    between atoms: C_6  and  C_7
REMARK    3  A    between atoms: C_7  and  N_8
REMARK    4  A    between atoms: N_8  and  C_9
REMARK                            x       y       z     vdW  Elec       q    Type
REMARK                         _______ _______ _______ _____ _____    ______ ____
ROOT
ATOM      1  C   UNL     1      18.625  10.597  37.983  0.00  0.00    +0.000 C 
ENDROOT
BRANCH   1   5
ATOM      2  C   UNL     1      22.799  10.976  37.227  0.00  0.00    +0.000 A 
ATOM      3  C   UNL     1      22.074   9.961  36.636  0.00  0.00    +0.000 A 
ATOM      4  C   UNL     1      20.698   9.837  36.887  0.00  0.00    +0.000 A 
ATOM      5  C   UNL     1      20.066  10.728  37.723  0.00  0.00    +0.000 A 
ATOM      6  C   UNL     1      20.791  11.730  38.303  0.00  0.00    +0.000 A 
ATOM      7  O   UNL     1      20.219  12.658  39.151  0.00  0.00    +0.000 OA
ATOM      8  C   UNL     1      22.165  11.868  38.064  0.00  0.00    +0.000 A 
BRANCH   2  10
ATOM      9  C   UNL     1      24.854  10.076  36.378  0.00  0.00    +0.000 C 
ATOM     10  O   UNL     1      24.163  11.139  37.009  0.00  0.00    +0.000 OA
ENDBRANCH   2  10
ENDBRANCH   1   5
BRANCH   1  11
ATOM     11  N   UNL     1      17.964   9.710  37.065  0.00  0.00    +0.000 NA
BRANCH  11  12
ATOM     12  C   UNL     1      17.267  10.286  35.947  0.00  0.00    +0.000 A 
ATOM     13  C   UNL     1      17.561   9.903  34.652  0.00  0.00    +0.000 A 
ATOM     14  C   UNL     1      16.911  10.436  33.564  0.00  0.00    +0.000 A 
ATOM     15  C   UNL     1      15.924  11.392  33.738  0.00  0.00    +0.000 A 
ATOM     16 BR   UNL     1      15.046  12.110  32.221  0.00  0.00    +0.000 Br
ATOM     17  C   UNL     1      15.640  11.766  35.034  0.00  0.00    +0.000 A 
ATOM     18  C   UNL     1      14.565  12.806  35.203  0.00  0.00    +0.000 C 
ATOM     19  C   UNL     1      16.291  11.231  36.123  0.00  0.00    +0.000 A 
ENDBRANCH  11  12
ENDBRANCH   1  11
TORSDOF 4
ENDMDL
MODEL 3
REMARK VINA RESULT:      -6.3      4.288      7.351
REMARK  Name = 
REMARK  4 active torsions:
REMARK  status: ('A' for Active; 'I' for Inactive)
REMARK    1  A    between atoms: O_2  and  C_3
REMARK    2  A    between atoms: C_6  and  C_7
REMARK    3  A    between atoms: C_7  and  N_8
REMARK    4  A    between atoms: N_8  and  C_9
REMARK                            x       y       z     vdW  Elec       q    Type
REMARK                         _______ _______ _______ _____ _____    ______ ____
ROOT
ATOM      1  C   UNL     1      17.048  11.393  36.864  0.00  0.00    +0.000 C 
ENDROOT
BRANCH   1   5
ATOM      2  C   UNL     1      17.937   8.616  39.968  0.00  0.00    +0.000 A 
ATOM      3  C   UNL     1      16.832   9.438  40.065  0.00  0.00    +0.000 A 
ATOM      4  C   UNL     1      16.541  10.353  39.040  0.00  0.00    +0.000 A 
ATOM      5  C   UNL     1      17.356  10.434  37.936  0.00  0.00    +0.000 A 
ATOM      6  C   UNL     1      18.447   9.617  37.847  0.00  0.00    +0.000 A 
ATOM      7  O   UNL     1      19.305   9.646  36.766  0.00  0.00    +0.000 OA
ATOM      8  C   UNL     1      18.753   8.698  38.861  0.00  0.00    +0.000 A 
BRANCH   2  10
ATOM      9  C   UNL     1      17.414   6.576  41.114  0.00  0.00    +0.000 C 
ATOM     10  O   UNL     1      18.267   7.695  40.957  0.00  0.00    +0.000 OA
ENDBRANCH   2  10
ENDBRANCH   1   5
BRANCH   1  11
ATOM     11  N   UNL     1      15.640  11.516  36.605  0.00  0.00    +0.000 NA
BRANCH  11  12
ATOM     12  C   UNL     1      15.227  12.017  35.321  0.00  0.00    +0.000 A 
ATOM     13  C   UNL     1      14.325  13.059  35.221  0.00  0.00    +0.000 A 
ATOM     14  C   UNL     1      13.912  13.559  34.009  0.00  0.00    +0.000 A 
ATOM     15  C   UNL     1      14.399  13.020  32.828  0.00  0.00    +0.000 A 
ATOM     16 BR   UNL     1      13.813  13.728  31.172  0.00  0.00    +0.000 Br
ATOM     17  C   UNL     1      15.297  11.982  32.941  0.00  0.00    +0.000 A 
ATOM     18  C   UNL     1      15.815  11.410  31.648  0.00  0.00    +0.000 C 
ATOM     19  C   UNL     1      15.711  11.483  34.156  0.00  0.00    +0.000 A 
ENDBRANCH  11  12
ENDBRANCH   1  11
TORSDOF 4
ENDMDL
MODEL 4
REMARK VINA RESULT:      -6.3     18.393     19.390
REMARK  Name = 
REMARK  4 active torsions:
REMARK  status: ('A' for Active; 'I' for Inactive)
REMARK    1  A    between atoms: O_2  and  C_3
REMARK    2  A    between atoms: C_6  and  C_7
REMARK    3  A    between atoms: C_7  and  N_8
REMARK    4  A    between atoms: N_8  and  C_9
REMARK                            x       y       z     vdW  Elec       q    Type
REMARK                         _______ _______ _______ _____ _____    ______ ____
ROOT
ATOM      1  C   UNL     1      26.391  22.841  25.216  0.00  0.00    +0.000 C 
ENDROOT
BRANCH   1   5
ATOM      2  C   UNL     1      28.873  24.150  22.013  0.00  0.00    +0.000 A 
ATOM      3  C   UNL     1      29.372  24.086  23.298  0.00  0.00    +0.000 A 
ATOM      4  C   UNL     1      28.551  23.655  24.353  0.00  0.00    +0.000 A 
ATOM      5  C   UNL     1      27.247  23.293  24.110  0.00  0.00    +0.000 A 
ATOM      6  C   UNL     1      26.762  23.359  22.835  0.00  0.00    +0.000 A 
ATOM      7  O   UNL     1      25.463  23.010  22.521  0.00  0.00    +0.000 OA
ATOM      8  C   UNL     1      27.566  23.787  21.769  0.00  0.00    +0.000 A 
BRANCH   2  10
ATOM      9  C   UNL     1      29.484  25.907  20.500  0.00  0.00    +0.000 C 
ATOM     10  O   UNL     1      29.646  24.571  20.936  0.00  0.00    +0.000 OA
ENDBRANCH   2  10
ENDBRANCH   1   5
BRANCH   1  11
ATOM     11  N   UNL     1      27.045  22.895  26.495  0.00  0.00    +0.000 NA
BRANCH  11  12
ATOM     12  C   UNL     1      26.439  23.682  27.535  0.00  0.00    +0.000 A 
ATOM     13  C   UNL     1      26.707  23.427  28.867  0.00  0.00    +0.000 A 
ATOM     14  C   UNL     1      26.143  24.161  29.882  0.00  0.00    +0.000 A 
ATOM     15  C   UNL     1      25.271  25.199  29.594  0.00  0.00    +0.000 A 
ATOM     16 BR   UNL     1      24.508  26.194  31.014  0.00  0.00    +0.000 Br
ATOM     17  C   UNL     1      25.011  25.443  28.263  0.00  0.00    +0.000 A 
ATOM     18  C   UNL     1      24.061  26.574  27.971  0.00  0.00    +0.000 C 
ATOM     19  C   UNL     1      25.577  24.707  27.247  0.00  0.00    +0.000 A 
ENDBRANCH  11  12
ENDBRANCH   1  11
TORSDOF 4
ENDMDL
MODEL 5
REMARK VINA RESULT:      -6.2      2.570      3.563
REMARK  Name = 
REMARK  4 active torsions:
REMARK  status: ('A' for Active; 'I' for Inactive)
REMARK    1  A    between atoms: O_2  and  C_3
REMARK    2  A    between atoms: C_6  and  C_7
REMARK    3  A    between atoms: C_7  and  N_8
REMARK    4  A    between atoms: N_8  and  C_9
REMARK                            x       y       z     vdW  Elec       q    Type
REMARK                         _______ _______ _______ _____ _____    ______ ____
ROOT
ATOM      1  C   UNL     1      15.191  11.703  35.917  0.00  0.00    +0.000 C 
ENDROOT
BRANCH   1   5
ATOM      2  C   UNL     1      15.195  12.612  31.757  0.00  0.00    +0.000 A 
ATOM      3  C   UNL     1      14.288  13.220  32.601  0.00  0.00    +0.000 A 
ATOM      4  C   UNL     1      14.288  12.919  33.973  0.00  0.00    +0.000 A 
ATOM      5  C   UNL     1      15.193  12.016  34.481  0.00  0.00    +0.000 A 
ATOM      6  C   UNL     1      16.087  11.419  33.639  0.00  0.00    +0.000 A 
ATOM      7  O   UNL     1      17.022  10.505  34.083  0.00  0.00    +0.000 OA
ATOM      8  C   UNL     1      16.101  11.708  32.267  0.00  0.00    +0.000 A 
BRANCH   2  10
ATOM      9  C   UNL     1      16.220  13.784  29.933  0.00  0.00    +0.000 C 
ATOM     10  O   UNL     1      15.234  12.878  30.392  0.00  0.00    +0.000 OA
ENDBRANCH   2  10
ENDBRANCH   1   5
BRANCH   1  11
ATOM     11  N   UNL     1      16.080  12.536  36.678  0.00  0.00    +0.000 NA
BRANCH  11  12
ATOM     12  C   UNL     1      17.189  11.912  37.348  0.00  0.00    +0.000 A 
ATOM     13  C   UNL     1      17.091  10.621  37.833  0.00  0.00    +0.000 A 
ATOM     14  C   UNL     1      18.134   9.998  38.477  0.00  0.00    +0.000 A 
ATOM     15  C   UNL     1      19.337  10.660  38.663  0.00  0.00    +0.000 A 
ATOM     16 BR   UNL     1      20.756   9.778  39.555  0.00  0.00    +0.000 Br
ATOM     17  C   UNL     1      19.422  11.947  38.177  0.00  0.00    +0.000 A 
ATOM     18  C   UNL     1      20.736  12.649  38.388  0.00  0.00    +0.000 C 
ATOM     19  C   UNL     1      18.377  12.569  37.530  0.00  0.00    +0.000 A 
ENDBRANCH  11  12
ENDBRANCH   1  11
TORSDOF 4
ENDMDL
MODEL 6
REMARK VINA RESULT:      -6.2      3.495      6.857
REMARK  Name = 
REMARK  4 active torsions:
REMARK  status: ('A' for Active; 'I' for Inactive)
REMARK    1  A    between atoms: O_2  and  C_3
REMARK    2  A    between atoms: C_6  and  C_7
REMARK    3  A    between atoms: C_7  and  N_8
REMARK    4  A    between atoms: N_8  and  C_9
REMARK                            x       y       z     vdW  Elec       q    Type
REMARK                         _______ _______ _______ _____ _____    ______ ____
ROOT
ATOM      1  C   UNL     1      16.974   9.972  36.237  0.00  0.00    +0.000 C 
ENDROOT
BRANCH   1   5
ATOM      2  C   UNL     1      20.496  11.513  38.069  0.00  0.00    +0.000 A 
ATOM      3  C   UNL     1      20.491  10.243  37.530  0.00  0.00    +0.000 A 
ATOM      4  C   UNL     1      19.329   9.737  36.926  0.00  0.00    +0.000 A 
ATOM      5  C   UNL     1      18.190  10.505  36.870  0.00  0.00    +0.000 A 
ATOM      6  C   UNL     1      18.203  11.761  37.406  0.00  0.00    +0.000 A 
ATOM      7  O   UNL     1      17.095  12.585  37.383  0.00  0.00    +0.000 OA
ATOM      8  C   UNL     1      19.355  12.283  38.013  0.00  0.00    +0.000 A 
BRANCH   2  10
ATOM      9  C   UNL     1      21.715  13.470  38.732  0.00  0.00    +0.000 C 
ATOM     10  O   UNL     1      21.622  12.058  38.677  0.00  0.00    +0.000 OA
ENDBRANCH   2  10
ENDBRANCH   1   5
BRANCH   1  11
ATOM     11  N   UNL     1      17.048   9.951  34.802  0.00  0.00    +0.000 NA
BRANCH  11  12
ATOM     12  C   UNL     1      16.282  10.922  34.068  0.00  0.00    +0.000 A 
ATOM     13  C   UNL     1      15.302  11.672  34.690  0.00  0.00    +0.000 A 
ATOM     14  C   UNL     1      14.554  12.607  34.015  0.00  0.00    +0.000 A 
ATOM     15  C   UNL     1      14.766  12.829  32.664  0.00  0.00    +0.000 A 
ATOM     16 BR   UNL     1      13.721  14.123  31.758  0.00  0.00    +0.000 Br
ATOM     17  C   UNL     1      15.746  12.075  32.055  0.00  0.00    +0.000 A 
ATOM     18  C   UNL     1      15.961  12.331  30.587  0.00  0.00    +0.000 C 
ATOM     19  C   UNL     1      16.495  11.139  32.732  0.00  0.00    +0.000 A 
ENDBRANCH  11  12
ENDBRANCH   1  11
TORSDOF 4
ENDMDL
MODEL 7
REMARK VINA RESULT:      -6.2      4.110      7.308
REMARK  Name = 
REMARK  4 active torsions:
REMARK  status: ('A' for Active; 'I' for Inactive)
REMARK    1  A    between atoms: O_2  and  C_3
REMARK    2  A    between atoms: C_6  and  C_7
REMARK    3  A    between atoms: C_7  and  N_8
REMARK    4  A    between atoms: N_8  and  C_9
REMARK                            x       y       z     vdW  Elec       q    Type
REMARK                         _______ _______ _______ _____ _____    ______ ____
ROOT
ATOM      1  C   UNL     1      17.438  11.092  36.607  0.00  0.00    +0.000 C 
ENDROOT
BRANCH   1   5
ATOM      2  C   UNL     1      17.470   8.813  40.204  0.00  0.00    +0.000 A 
ATOM      3  C   UNL     1      18.547   8.767  39.342  0.00  0.00    +0.000 A 
ATOM      4  C   UNL     1      18.534   9.520  38.156  0.00  0.00    +0.000 A 
ATOM      5  C   UNL     1      17.448  10.305  37.849  0.00  0.00    +0.000 A 
ATOM      6  C   UNL     1      16.387  10.345  38.708  0.00  0.00    +0.000 A 
ATOM      7  O   UNL     1      15.266  11.114  38.461  0.00  0.00    +0.000 OA
ATOM      8  C   UNL     1      16.382   9.601  39.896  0.00  0.00    +0.000 A 
BRANCH   2  10
ATOM      9  C   UNL     1      17.631   6.687  41.302  0.00  0.00    +0.000 C 
ATOM     10  O   UNL     1      17.436   8.087  41.390  0.00  0.00    +0.000 OA
ENDBRANCH   2  10
ENDBRANCH   1   5
BRANCH   1  11
ATOM     11  N   UNL     1      16.818  10.404  35.508  0.00  0.00    +0.000 NA
BRANCH  11  12
ATOM     12  C   UNL     1      16.091  11.183  34.542  0.00  0.00    +0.000 A 
ATOM     13  C   UNL     1      16.223  10.939  33.187  0.00  0.00    +0.000 A 
ATOM     14  C   UNL     1      15.541  11.667  32.242  0.00  0.00    +0.000 A 
ATOM     15  C   UNL     1      14.685  12.686  32.626  0.00  0.00    +0.000 A 
ATOM     16 BR   UNL     1      13.758  13.673  31.301  0.00  0.00    +0.000 Br
ATOM     17  C   UNL     1      14.562  12.920  33.979  0.00  0.00    +0.000 A 
ATOM     18  C   UNL     1      13.628  14.031  34.377  0.00  0.00    +0.000 C 
ATOM     19  C   UNL     1      15.245  12.190  34.926  0.00  0.00    +0.000 A 
ENDBRANCH  11  12
ENDBRANCH   1  11
TORSDOF 4
ENDMDL
MODEL 8
REMARK VINA RESULT:      -6.1     17.563     20.513
REMARK  Name = 
REMARK  4 active torsions:
REMARK  status: ('A' for Active; 'I' for Inactive)
REMARK    1  A    between atoms: O_2  and  C_3
REMARK    2  A    between atoms: C_6  and  C_7
REMARK    3  A    between atoms: C_7  and  N_8
REMARK    4  A    between atoms: N_8  and  C_9
REMARK                            x       y       z     vdW  Elec       q    Type
REMARK                         _______ _______ _______ _____ _____    ______ ____
ROOT
ATOM      1  C   UNL     1      33.119  -2.670  34.419  0.00  0.00    +0.000 C 
ENDROOT
BRANCH   1   5
ATOM      2  C   UNL     1      33.761   1.333  33.114  0.00  0.00    +0.000 A 
ATOM      3  C   UNL     1      34.378   0.282  32.465  0.00  0.00    +0.000 A 
ATOM      4  C   UNL     1      34.165  -1.037  32.897  0.00  0.00    +0.000 A 
ATOM      5  C   UNL     1      33.341  -1.287  33.969  0.00  0.00    +0.000 A 
ATOM      6  C   UNL     1      32.734  -0.242  34.605  0.00  0.00    +0.000 A 
ATOM      7  O   UNL     1      31.895  -0.423  35.687  0.00  0.00    +0.000 OA
ATOM      8  C   UNL     1      32.936   1.081  34.188  0.00  0.00    +0.000 A 
BRANCH   2  10
ATOM      9  C   UNL     1      33.209   3.646  33.420  0.00  0.00    +0.000 C 
ATOM     10  O   UNL     1      33.942   2.656  32.724  0.00  0.00    +0.000 OA
ENDBRANCH   2  10
ENDBRANCH   1   5
BRANCH   1  11
ATOM     11  N   UNL     1      33.950  -3.625  33.738  0.00  0.00    +0.000 NA
BRANCH  11  12
ATOM     12  C   UNL     1      33.312  -4.608  32.905  0.00  0.00    +0.000 A 
ATOM     13  C   UNL     1      32.352  -5.460  33.417  0.00  0.00    +0.000 A 
ATOM     14  C   UNL     1      31.725  -6.408  32.645  0.00  0.00    +0.000 A 
ATOM     15  C   UNL     1      32.045  -6.541  31.303  0.00  0.00    +0.000 A 
ATOM     16 BR   UNL     1      31.165  -7.857  30.263  0.00  0.00    +0.000 Br
ATOM     17  C   UNL     1      33.003  -5.686  30.804  0.00  0.00    +0.000 A 
ATOM     18  C   UNL     1      33.337  -5.845  29.344  0.00  0.00    +0.000 C 
ATOM     19  C   UNL     1      33.630  -4.736  31.578  0.00  0.00    +0.000 A 
ENDBRANCH  11  12
ENDBRANCH   1  11
TORSDOF 4
ENDMDL
MODEL 9
REMARK VINA RESULT:      -6.1      4.014      7.212
REMARK  Name = 
REMARK  4 active torsions:
REMARK  status: ('A' for Active; 'I' for Inactive)
REMARK    1  A    between atoms: O_2  and  C_3
REMARK    2  A    between atoms: C_6  and  C_7
REMARK    3  A    between atoms: C_7  and  N_8
REMARK    4  A    between atoms: N_8  and  C_9
REMARK                            x       y       z     vdW  Elec       q    Type
REMARK                         _______ _______ _______ _____ _____    ______ ____
ROOT
ATOM      1  C   UNL     1      16.626  12.051  37.072  0.00  0.00    +0.000 C 
ENDROOT
BRANCH   1   5
ATOM      2  C   UNL     1      19.760   9.773  38.840  0.00  0.00    +0.000 A 
ATOM      3  C   UNL     1      18.552   9.177  38.537  0.00  0.00    +0.000 A 
ATOM      4  C   UNL     1      17.520   9.930  37.954  0.00  0.00    +0.000 A 
ATOM      5  C   UNL     1      17.709  11.265  37.683  0.00  0.00    +0.000 A 
ATOM      6  C   UNL     1      18.907  11.847  37.986  0.00  0.00    +0.000 A 
ATOM      7  O   UNL     1      19.163  13.181  37.739  0.00  0.00    +0.000 OA
ATOM      8  C   UNL     1      19.948  11.110  38.568  0.00  0.00    +0.000 A 
BRANCH   2  10
ATOM      9  C   UNL     1      20.483   8.059  40.355  0.00  0.00    +0.000 C 
ATOM     10  O   UNL     1      20.811   9.069  39.418  0.00  0.00    +0.000 OA
ENDBRANCH   2  10
ENDBRANCH   1   5
BRANCH   1  11
ATOM     11  N   UNL     1      15.752  11.262  36.249  0.00  0.00    +0.000 NA
BRANCH  11  12
ATOM     12  C   UNL     1      15.315  11.817  34.996  0.00  0.00    +0.000 A 
ATOM     13  C   UNL     1      14.494  12.929  34.958  0.00  0.00    +0.000 A 
ATOM     14  C   UNL     1      14.062  13.481  33.776  0.00  0.00    +0.000 A 
ATOM     15  C   UNL     1      14.443  12.927  32.564  0.00  0.00    +0.000 A 
ATOM     16 BR   UNL     1      13.831  13.709  30.950  0.00  0.00    +0.000 Br
ATOM     17  C   UNL     1      15.261  11.819  32.615  0.00  0.00    +0.000 A 
ATOM     18  C   UNL     1      15.664  11.232  31.288  0.00  0.00    +0.000 C 
ATOM     19  C   UNL     1      15.694  11.268  33.800  0.00  0.00    +0.000 A 
ENDBRANCH  11  12
ENDBRANCH   1  11
TORSDOF 4
ENDMDL
MODEL 10
REMARK VINA RESULT:      -6.1     18.634     19.579
REMARK  Name = 
REMARK  4 active torsions:
REMARK  status: ('A' for Active; 'I' for Inactive)
REMARK    1  A    between atoms: O_2  and  C_3
REMARK    2  A    between atoms: C_6  and  C_7
REMARK    3  A    between atoms: C_7  and  N_8
REMARK    4  A    between atoms: N_8  and  C_9
REMARK                            x       y       z     vdW  Elec       q    Type
REMARK                         _______ _______ _______ _____ _____    ______ ____
ROOT
ATOM      1  C   UNL     1      25.747  24.133  24.732  0.00  0.00    +0.000 C 
ENDROOT
BRANCH   1   5
ATOM      2  C   UNL     1      28.687  24.734  21.710  0.00  0.00    +0.000 A 
ATOM      3  C   UNL     1      28.807  25.364  22.932  0.00  0.00    +0.000 A 
ATOM      4  C   UNL     1      27.836  25.164  23.927  0.00  0.00    +0.000 A 
ATOM      5  C   UNL     1      26.762  24.340  23.688  0.00  0.00    +0.000 A 
ATOM      6  C   UNL     1      26.651  23.720  22.476  0.00  0.00    +0.000 A 
ATOM      7  O   UNL     1      25.599  22.880  22.171  0.00  0.00    +0.000 OA
ATOM      8  C   UNL     1      27.611  23.908  21.471  0.00  0.00    +0.000 A 
BRANCH   2  10
ATOM      9  C   UNL     1      29.738  26.189  20.119  0.00  0.00    +0.000 C 
ATOM     10  O   UNL     1      29.622  24.900  20.694  0.00  0.00    +0.000 OA
ENDBRANCH   2  10
ENDBRANCH   1   5
BRANCH   1  11
ATOM     11  N   UNL     1      25.963  22.937  25.499  0.00  0.00    +0.000 NA
BRANCH  11  12
ATOM     12  C   UNL     1      26.950  22.970  26.545  0.00  0.00    +0.000 A 
ATOM     13  C   UNL     1      26.645  23.474  27.795  0.00  0.00    +0.000 A 
ATOM     14  C   UNL     1      27.567  23.518  28.813  0.00  0.00    +0.000 A 
ATOM     15  C   UNL     1      28.856  23.049  28.611  0.00  0.00    +0.000 A 
ATOM     16 BR   UNL     1      30.106  23.123  30.032  0.00  0.00    +0.000 Br
ATOM     17  C   UNL     1      29.148  22.550  27.361  0.00  0.00    +0.000 A 
ATOM     18  C   UNL     1      30.552  22.045  27.161  0.00  0.00    +0.000 C 
ATOM     19  C   UNL     1      28.223  22.505  26.342  0.00  0.00    +0.000 A 
ENDBRANCH  11  12
ENDBRANCH   1  11
TORSDOF 4
ENDMDL
