MODEL 1
REMARK VINA RESULT:      -6.1      0.000      0.000
REMARK  Name = 
REMARK  4 active torsions:
REMARK  status: ('A' for Active; 'I' for Inactive)
REMARK    1  A    between atoms: O_2  and  C_3
REMARK    2  A    between atoms: N_5  and  N_6
REMARK    3  A    between atoms: N_6  and  C_7
REMARK    4  A    between atoms: C_7  and  C_14
REMARK                            x       y       z     vdW  Elec       q    Type
REMARK                         _______ _______ _______ _____ _____    ______ ____
ROOT
ATOM      1  C   UNL     1      17.679  -9.098  27.300  0.00  0.00    +0.000 C 
ATOM      2  C   UNL     1      18.011  -9.676  28.425  0.00  0.00    +0.000 C 
ATOM      3  C   UNL     1      17.359 -10.918  28.857  0.00  0.00    +0.000 C 
ATOM      4  C   UNL     1      16.689 -10.675  30.191  0.00  0.00    +0.000 C 
ATOM      5  C   UNL     1      17.626  -9.958  31.120  0.00  0.00    +0.000 C 
ATOM      6  C   UNL     1      19.024  -9.861  30.593  0.00  0.00    +0.000 C 
ATOM      7  C   UNL     1      19.050  -9.076  29.275  0.00  0.00    +0.000 C 
ENDROOT
BRANCH   1   8
ATOM      8  C   UNL     1      18.331  -7.849  26.865  0.00  0.00    +0.000 A 
ATOM      9  C   UNL     1      17.825  -6.614  27.247  0.00  0.00    +0.000 A 
ATOM     10  C   UNL     1      18.396  -5.420  26.868  0.00  0.00    +0.000 A 
ATOM     11  C   UNL     1      19.518  -5.463  26.077  0.00  0.00    +0.000 A 
ATOM     12  C   UNL     1      20.036  -6.681  25.687  0.00  0.00    +0.000 A 
ATOM     13  C   UNL     1      19.454  -7.868  26.073  0.00  0.00    +0.000 A 
ENDBRANCH   1   8
BRANCH   1  14
ATOM     14  N   UNL     1      16.666  -9.697  26.490  0.00  0.00    +0.000 NA
BRANCH  14  17
ATOM     15  C   UNL     1      14.654  -8.460  25.750  0.00  0.00    +0.000 C 
ATOM     16  O   UNL     1      15.244  -8.095  24.710  0.00  0.00    +0.000 OA
ATOM     17  N   UNL     1      15.368  -9.277  26.665  0.00  0.00    +0.000 NA
BRANCH  15  19
ATOM     18  C   UNL     1      12.272  -8.426  25.118  0.00  0.00    +0.000 C 
ATOM     19  O   UNL     1      13.349  -8.055  25.960  0.00  0.00    +0.000 OA
ENDBRANCH  15  19
ENDBRANCH  14  17
ENDBRANCH   1  14
TORSDOF 4
ENDMDL
MODEL 2
REMARK VINA RESULT:      -6.1     33.630     35.235
REMARK  Name = 
REMARK  4 active torsions:
REMARK  status: ('A' for Active; 'I' for Inactive)
REMARK    1  A    between atoms: O_2  and  C_3
REMARK    2  A    between atoms: N_5  and  N_6
REMARK    3  A    between atoms: N_6  and  C_7
REMARK    4  A    between atoms: C_7  and  C_14
REMARK                            x       y       z     vdW  Elec       q    Type
REMARK                         _______ _______ _______ _____ _____    ______ ____
ROOT
ATOM      1  C   UNL     1      28.517  23.569  23.752  0.00  0.00    +0.000 C 
ATOM      2  C   UNL     1      27.550  23.442  24.624  0.00  0.00    +0.000 C 
ATOM      3  C   UNL     1      26.195  23.071  24.199  0.00  0.00    +0.000 C 
ATOM      4  C   UNL     1      25.241  24.172  24.610  0.00  0.00    +0.000 C 
ATOM      5  C   UNL     1      25.497  24.576  26.033  0.00  0.00    +0.000 C 
ATOM      6  C   UNL     1      26.451  23.669  26.745  0.00  0.00    +0.000 C 
ATOM      7  C   UNL     1      27.819  23.673  26.051  0.00  0.00    +0.000 C 
ENDROOT
BRANCH   1   8
ATOM      8  C   UNL     1      29.878  23.943  24.175  0.00  0.00    +0.000 A 
ATOM      9  C   UNL     1      30.860  22.975  24.343  0.00  0.00    +0.000 A 
ATOM     10  C   UNL     1      32.146  23.271  24.736  0.00  0.00    +0.000 A 
ATOM     11  C   UNL     1      32.463  24.587  24.970  0.00  0.00    +0.000 A 
ATOM     12  C   UNL     1      31.501  25.562  24.809  0.00  0.00    +0.000 A 
ATOM     13  C   UNL     1      30.219  25.253  24.415  0.00  0.00    +0.000 A 
ENDBRANCH   1   8
BRANCH   1  14
ATOM     14  N   UNL     1      28.233  23.341  22.370  0.00  0.00    +0.000 NA
BRANCH  14  17
ATOM     15  C   UNL     1      29.032  25.189  20.931  0.00  0.00    +0.000 C 
ATOM     16  O   UNL     1      28.122  25.933  21.357  0.00  0.00    +0.000 OA
ATOM     17  N   UNL     1      29.098  23.865  21.439  0.00  0.00    +0.000 NA
BRANCH  15  19
ATOM     18  C   UNL     1      29.901  27.019  19.528  0.00  0.00    +0.000 C 
ATOM     19  O   UNL     1      29.921  25.683  19.994  0.00  0.00    +0.000 OA
ENDBRANCH  15  19
ENDBRANCH  14  17
ENDBRANCH   1  14
TORSDOF 4
ENDMDL
MODEL 3
REMARK VINA RESULT:      -5.9     33.756     35.840
REMARK  Name = 
REMARK  4 active torsions:
REMARK  status: ('A' for Active; 'I' for Inactive)
REMARK    1  A    between atoms: O_2  and  C_3
REMARK    2  A    between atoms: N_5  and  N_6
REMARK    3  A    between atoms: N_6  and  C_7
REMARK    4  A    between atoms: C_7  and  C_14
REMARK                            x       y       z     vdW  Elec       q    Type
REMARK                         _______ _______ _______ _____ _____    ______ ____
ROOT
ATOM      1  C   UNL     1      31.384  23.830  24.816  0.00  0.00    +0.000 C 
ATOM      2  C   UNL     1      31.019  23.108  25.845  0.00  0.00    +0.000 C 
ATOM      3  C   UNL     1      29.897  22.169  25.749  0.00  0.00    +0.000 C 
ATOM      4  C   UNL     1      28.845  22.566  26.762  0.00  0.00    +0.000 C 
ATOM      5  C   UNL     1      29.484  22.837  28.093  0.00  0.00    +0.000 C 
ATOM      6  C   UNL     1      30.928  22.446  28.149  0.00  0.00    +0.000 C 
ATOM      7  C   UNL     1      31.743  23.239  27.119  0.00  0.00    +0.000 C 
ENDROOT
BRANCH   1   8
ATOM      8  C   UNL     1      32.511  24.775  24.910  0.00  0.00    +0.000 A 
ATOM      9  C   UNL     1      33.805  24.370  24.609  0.00  0.00    +0.000 A 
ATOM     10  C   UNL     1      34.891  25.213  24.681  0.00  0.00    +0.000 A 
ATOM     11  C   UNL     1      34.675  26.513  25.068  0.00  0.00    +0.000 A 
ATOM     12  C   UNL     1      33.396  26.934  25.370  0.00  0.00    +0.000 A 
ATOM     13  C   UNL     1      32.319  26.080  25.295  0.00  0.00    +0.000 A 
ENDBRANCH   1   8
BRANCH   1  14
ATOM     14  N   UNL     1      30.667  23.688  23.588  0.00  0.00    +0.000 NA
BRANCH  14  17
ATOM     15  C   UNL     1      29.236  24.910  21.980  0.00  0.00    +0.000 C 
ATOM     16  O   UNL     1      29.722  24.257  21.030  0.00  0.00    +0.000 OA
ATOM     17  N   UNL     1      29.711  24.630  23.288  0.00  0.00    +0.000 NA
BRANCH  15  19
ATOM     18  C   UNL     1      27.429  26.417  22.709  0.00  0.00    +0.000 C 
ATOM     19  O   UNL     1      28.272  25.865  21.715  0.00  0.00    +0.000 OA
ENDBRANCH  15  19
ENDBRANCH  14  17
ENDBRANCH   1  14
TORSDOF 4
ENDMDL
MODEL 4
REMARK VINA RESULT:      -5.8     32.607     33.876
REMARK  Name = 
REMARK  4 active torsions:
REMARK  status: ('A' for Active; 'I' for Inactive)
REMARK    1  A    between atoms: O_2  and  C_3
REMARK    2  A    between atoms: N_5  and  N_6
REMARK    3  A    between atoms: N_6  and  C_7
REMARK    4  A    between atoms: C_7  and  C_14
REMARK                            x       y       z     vdW  Elec       q    Type
REMARK                         _______ _______ _______ _____ _____    ______ ____
ROOT
ATOM      1  C   UNL     1      28.265  22.802  26.757  0.00  0.00    +0.000 C 
ATOM      2  C   UNL     1      29.495  22.677  26.331  0.00  0.00    +0.000 C 
ATOM      3  C   UNL     1      30.516  22.017  27.153  0.00  0.00    +0.000 C 
ATOM      4  C   UNL     1      31.634  23.002  27.419  0.00  0.00    +0.000 C 
ATOM      5  C   UNL     1      32.029  23.694  26.146  0.00  0.00    +0.000 C 
ATOM      6  C   UNL     1      31.395  23.100  24.926  0.00  0.00    +0.000 C 
ATOM      7  C   UNL     1      29.866  23.204  25.009  0.00  0.00    +0.000 C 
ENDROOT
BRANCH   1   8
ATOM      8  C   UNL     1      27.238  23.465  25.933  0.00  0.00    +0.000 A 
ATOM      9  C   UNL     1      26.379  22.721  25.134  0.00  0.00    +0.000 A 
ATOM     10  C   UNL     1      25.404  23.292  24.347  0.00  0.00    +0.000 A 
ATOM     11  C   UNL     1      25.282  24.660  24.360  0.00  0.00    +0.000 A 
ATOM     12  C   UNL     1      26.126  25.415  25.148  0.00  0.00    +0.000 A 
ATOM     13  C   UNL     1      27.097  24.832  25.930  0.00  0.00    +0.000 A 
ENDBRANCH   1   8
BRANCH   1  14
ATOM     14  N   UNL     1      27.926  22.284  28.045  0.00  0.00    +0.000 NA
BRANCH  14  17
ATOM     15  C   UNL     1      26.565  22.738  30.061  0.00  0.00    +0.000 C 
ATOM     16  O   UNL     1      26.364  21.514  30.218  0.00  0.00    +0.000 OA
ATOM     17  N   UNL     1      27.359  23.143  28.956  0.00  0.00    +0.000 NA
BRANCH  15  19
ATOM     18  C   UNL     1      25.736  24.984  30.644  0.00  0.00    +0.000 C 
ATOM     19  O   UNL     1      26.009  23.631  30.958  0.00  0.00    +0.000 OA
ENDBRANCH  15  19
ENDBRANCH  14  17
ENDBRANCH   1  14
TORSDOF 4
ENDMDL
MODEL 5
REMARK VINA RESULT:      -5.6     15.131     17.310
REMARK  Name = 
REMARK  4 active torsions:
REMARK  status: ('A' for Active; 'I' for Inactive)
REMARK    1  A    between atoms: O_2  and  C_3
REMARK    2  A    between atoms: N_5  and  N_6
REMARK    3  A    between atoms: N_6  and  C_7
REMARK    4  A    between atoms: C_7  and  C_14
REMARK                            x       y       z     vdW  Elec       q    Type
REMARK                         _______ _______ _______ _____ _____    ______ ____
ROOT
ATOM      1  C   UNL     1      25.393   3.090  17.808  0.00  0.00    +0.000 C 
ATOM      2  C   UNL     1      25.936   2.170  17.053  0.00  0.00    +0.000 C 
ATOM      3  C   UNL     1      25.422   0.795  17.049  0.00  0.00    +0.000 C 
ATOM      4  C   UNL     1      26.533  -0.138  17.477  0.00  0.00    +0.000 C 
ATOM      5  C   UNL     1      27.799   0.190  16.740  0.00  0.00    +0.000 C 
ATOM      6  C   UNL     1      27.603   1.183  15.636  0.00  0.00    +0.000 C 
ATOM      7  C   UNL     1      27.079   2.513  16.193  0.00  0.00    +0.000 C 
ENDROOT
BRANCH   1   8
ATOM      8  C   UNL     1      25.908   4.471  17.814  0.00  0.00    +0.000 A 
ATOM      9  C   UNL     1      26.877   4.863  18.729  0.00  0.00    +0.000 A 
ATOM     10  C   UNL     1      27.391   6.139  18.776  0.00  0.00    +0.000 A 
ATOM     11  C   UNL     1      26.919   7.060  17.873  0.00  0.00    +0.000 A 
ATOM     12  C   UNL     1      25.957   6.688  16.956  0.00  0.00    +0.000 A 
ATOM     13  C   UNL     1      25.451   5.409  16.920  0.00  0.00    +0.000 A 
ENDBRANCH   1   8
BRANCH   1  14
ATOM     14  N   UNL     1      24.284   2.735  18.636  0.00  0.00    +0.000 NA
BRANCH  14  17
ATOM     15  C   UNL     1      21.932   2.339  17.974  0.00  0.00    +0.000 C 
ATOM     16  O   UNL     1      22.103   1.103  18.052  0.00  0.00    +0.000 OA
ATOM     17  N   UNL     1      23.036   3.181  18.268  0.00  0.00    +0.000 NA
BRANCH  15  19
ATOM     18  C   UNL     1      19.540   2.009  17.481  0.00  0.00    +0.000 C 
ATOM     19  O   UNL     1      20.691   2.825  17.606  0.00  0.00    +0.000 OA
ENDBRANCH  15  19
ENDBRANCH  14  17
ENDBRANCH   1  14
TORSDOF 4
ENDMDL
MODEL 6
REMARK VINA RESULT:      -5.5     20.256     21.942
REMARK  Name = 
REMARK  4 active torsions:
REMARK  status: ('A' for Active; 'I' for Inactive)
REMARK    1  A    between atoms: O_2  and  C_3
REMARK    2  A    between atoms: N_5  and  N_6
REMARK    3  A    between atoms: N_6  and  C_7
REMARK    4  A    between atoms: C_7  and  C_14
REMARK                            x       y       z     vdW  Elec       q    Type
REMARK                         _______ _______ _______ _____ _____    ______ ____
ROOT
ATOM      1  C   UNL     1      18.465   9.607  38.641  0.00  0.00    +0.000 C 
ATOM      2  C   UNL     1      17.701   9.544  39.701  0.00  0.00    +0.000 C 
ATOM      3  C   UNL     1      18.235   9.089  40.990  0.00  0.00    +0.000 C 
ATOM      4  C   UNL     1      17.458   7.869  41.433  0.00  0.00    +0.000 C 
ATOM      5  C   UNL     1      15.984   8.107  41.274  0.00  0.00    +0.000 C 
ATOM      6  C   UNL     1      15.645   9.526  40.938  0.00  0.00    +0.000 C 
ATOM      7  C   UNL     1      16.286   9.933  39.605  0.00  0.00    +0.000 C 
ENDROOT
BRANCH   1   8
ATOM      8  C   UNL     1      17.930  10.062  37.345  0.00  0.00    +0.000 A 
ATOM      9  C   UNL     1      17.820   9.183  36.274  0.00  0.00    +0.000 A 
ATOM     10  C   UNL     1      17.328   9.558  35.044  0.00  0.00    +0.000 A 
ATOM     11  C   UNL     1      16.929  10.861  34.878  0.00  0.00    +0.000 A 
ATOM     12  C   UNL     1      17.031  11.748  35.930  0.00  0.00    +0.000 A 
ATOM     13  C   UNL     1      17.525  11.361  37.154  0.00  0.00    +0.000 A 
ENDBRANCH   1   8
BRANCH   1  14
ATOM     14  N   UNL     1      19.836   9.223  38.756  0.00  0.00    +0.000 NA
BRANCH  14  17
ATOM     15  C   UNL     1      21.590  10.357  37.428  0.00  0.00    +0.000 C 
ATOM     16  O   UNL     1      21.411   9.557  36.483  0.00  0.00    +0.000 OA
ATOM     17  N   UNL     1      20.793  10.196  38.592  0.00  0.00    +0.000 NA
BRANCH  15  19
ATOM     18  C   UNL     1      23.217  11.933  38.398  0.00  0.00    +0.000 C 
ATOM     19  O   UNL     1      22.545  11.349  37.298  0.00  0.00    +0.000 OA
ENDBRANCH  15  19
ENDBRANCH  14  17
ENDBRANCH   1  14
TORSDOF 4
ENDMDL
MODEL 7
REMARK VINA RESULT:      -5.5     32.694     34.242
REMARK  Name = 
REMARK  4 active torsions:
REMARK  status: ('A' for Active; 'I' for Inactive)
REMARK    1  A    between atoms: O_2  and  C_3
REMARK    2  A    between atoms: N_5  and  N_6
REMARK    3  A    between atoms: N_6  and  C_7
REMARK    4  A    between atoms: C_7  and  C_14
REMARK                            x       y       z     vdW  Elec       q    Type
REMARK                         _______ _______ _______ _____ _____    ______ ____
ROOT
ATOM      1  C   UNL     1      27.824  23.251  25.297  0.00  0.00    +0.000 C 
ATOM      2  C   UNL     1      28.640  22.683  26.148  0.00  0.00    +0.000 C 
ATOM      3  C   UNL     1      28.128  21.971  27.324  0.00  0.00    +0.000 C 
ATOM      4  C   UNL     1      28.685  22.629  28.568  0.00  0.00    +0.000 C 
ATOM      5  C   UNL     1      30.160  22.862  28.416  0.00  0.00    +0.000 C 
ATOM      6  C   UNL     1      30.742  22.207  27.202  0.00  0.00    +0.000 C 
ATOM      7  C   UNL     1      30.092  22.759  25.927  0.00  0.00    +0.000 C 
ENDROOT
BRANCH   1   8
ATOM      8  C   UNL     1      28.335  23.968  24.115  0.00  0.00    +0.000 A 
ATOM      9  C   UNL     1      28.333  23.366  22.864  0.00  0.00    +0.000 A 
ATOM     10  C   UNL     1      28.799  23.993  21.729  0.00  0.00    +0.000 A 
ATOM     11  C   UNL     1      29.285  25.272  21.851  0.00  0.00    +0.000 A 
ATOM     12  C   UNL     1      29.294  25.886  23.086  0.00  0.00    +0.000 A 
ATOM     13  C   UNL     1      28.826  25.248  24.213  0.00  0.00    +0.000 A 
ENDBRANCH   1   8
BRANCH   1  14
ATOM     14  N   UNL     1      26.417  23.166  25.531  0.00  0.00    +0.000 NA
BRANCH  14  17
ATOM     15  C   UNL     1      25.239  24.830  26.934  0.00  0.00    +0.000 C 
ATOM     16  O   UNL     1      25.465  24.148  27.957  0.00  0.00    +0.000 OA
ATOM     17  N   UNL     1      25.719  24.340  25.691  0.00  0.00    +0.000 NA
BRANCH  15  19
ATOM     18  C   UNL     1      23.133  26.081  27.205  0.00  0.00    +0.000 C 
ATOM     19  O   UNL     1      24.539  26.017  27.057  0.00  0.00    +0.000 OA
ENDBRANCH  15  19
ENDBRANCH  14  17
ENDBRANCH   1  14
TORSDOF 4
ENDMDL
MODEL 8
REMARK VINA RESULT:      -5.5     36.563     37.698
REMARK  Name = 
REMARK  4 active torsions:
REMARK  status: ('A' for Active; 'I' for Inactive)
REMARK    1  A    between atoms: O_2  and  C_3
REMARK    2  A    between atoms: N_5  and  N_6
REMARK    3  A    between atoms: N_6  and  C_7
REMARK    4  A    between atoms: C_7  and  C_14
REMARK                            x       y       z     vdW  Elec       q    Type
REMARK                         _______ _______ _______ _____ _____    ______ ____
ROOT
ATOM      1  C   UNL     1      31.199  20.601   9.187  0.00  0.00    +0.000 C 
ATOM      2  C   UNL     1      32.430  20.381   9.570  0.00  0.00    +0.000 C 
ATOM      3  C   UNL     1      32.770  20.272  10.993  0.00  0.00    +0.000 C 
ATOM      4  C   UNL     1      33.782  21.345  11.333  0.00  0.00    +0.000 C 
ATOM      5  C   UNL     1      34.873  21.374  10.301  0.00  0.00    +0.000 C 
ATOM      6  C   UNL     1      34.814  20.226   9.343  0.00  0.00    +0.000 C 
ATOM      7  C   UNL     1      33.493  20.241   8.563  0.00  0.00    +0.000 C 
ENDROOT
BRANCH   1   8
ATOM      8  C   UNL     1      30.855  20.712   7.758  0.00  0.00    +0.000 A 
ATOM      9  C   UNL     1      30.231  19.664   7.095  0.00  0.00    +0.000 A 
ATOM     10  C   UNL     1      29.889  19.717   5.762  0.00  0.00    +0.000 A 
ATOM     11  C   UNL     1      30.181  20.865   5.065  0.00  0.00    +0.000 A 
ATOM     12  C   UNL     1      30.800  21.917   5.708  0.00  0.00    +0.000 A 
ATOM     13  C   UNL     1      31.138  21.850   7.041  0.00  0.00    +0.000 A 
ENDBRANCH   1   8
BRANCH   1  14
ATOM     14  N   UNL     1      30.182  20.736  10.182  0.00  0.00    +0.000 NA
BRANCH  14  17
ATOM     15  C   UNL     1      29.784  22.449  11.922  0.00  0.00    +0.000 C 
ATOM     16  O   UNL     1      30.085  21.630  12.818  0.00  0.00    +0.000 OA
ATOM     17  N   UNL     1      29.829  22.005  10.575  0.00  0.00    +0.000 NA
BRANCH  15  19
ATOM     18  C   UNL     1      28.840  24.062  13.528  0.00  0.00    +0.000 C 
ATOM     19  O   UNL     1      29.423  23.735  12.281  0.00  0.00    +0.000 OA
ENDBRANCH  15  19
ENDBRANCH  14  17
ENDBRANCH   1  14
TORSDOF 4
ENDMDL
MODEL 9
REMARK VINA RESULT:      -5.5     33.610     34.787
REMARK  Name = 
REMARK  4 active torsions:
REMARK  status: ('A' for Active; 'I' for Inactive)
REMARK    1  A    between atoms: O_2  and  C_3
REMARK    2  A    between atoms: N_5  and  N_6
REMARK    3  A    between atoms: N_6  and  C_7
REMARK    4  A    between atoms: C_7  and  C_14
REMARK                            x       y       z     vdW  Elec       q    Type
REMARK                         _______ _______ _______ _____ _____    ______ ____
ROOT
ATOM      1  C   UNL     1      28.684  23.671  25.398  0.00  0.00    +0.000 C 
ATOM      2  C   UNL     1      29.545  23.737  26.381  0.00  0.00    +0.000 C 
ATOM      3  C   UNL     1      30.841  23.053  26.297  0.00  0.00    +0.000 C 
ATOM      4  C   UNL     1      30.940  22.061  27.435  0.00  0.00    +0.000 C 
ATOM      5  C   UNL     1      30.514  22.706  28.723  0.00  0.00    +0.000 C 
ATOM      6  C   UNL     1      30.316  24.185  28.609  0.00  0.00    +0.000 C 
ATOM      7  C   UNL     1      29.213  24.505  27.591  0.00  0.00    +0.000 C 
ENDROOT
BRANCH   1   8
ATOM      8  C   UNL     1      27.382  24.356  25.481  0.00  0.00    +0.000 A 
ATOM      9  C   UNL     1      27.163  25.550  24.805  0.00  0.00    +0.000 A 
ATOM     10  C   UNL     1      25.965  26.228  24.849  0.00  0.00    +0.000 A 
ATOM     11  C   UNL     1      24.946  25.691  25.598  0.00  0.00    +0.000 A 
ATOM     12  C   UNL     1      25.145  24.506  26.276  0.00  0.00    +0.000 A 
ATOM     13  C   UNL     1      26.348  23.838  26.223  0.00  0.00    +0.000 A 
ENDBRANCH   1   8
BRANCH   1  14
ATOM     14  N   UNL     1      29.026  22.919  24.232  0.00  0.00    +0.000 NA
BRANCH  14  17
ATOM     15  C   UNL     1      28.971  23.867  21.947  0.00  0.00    +0.000 C 
ATOM     16  O   UNL     1      27.792  23.478  21.799  0.00  0.00    +0.000 OA
ATOM     17  N   UNL     1      29.611  23.587  23.183  0.00  0.00    +0.000 NA
BRANCH  15  19
ATOM     18  C   UNL     1      29.393  25.919  20.650  0.00  0.00    +0.000 C 
ATOM     19  O   UNL     1      29.591  24.542  20.912  0.00  0.00    +0.000 OA
ENDBRANCH  15  19
ENDBRANCH  14  17
ENDBRANCH   1  14
TORSDOF 4
ENDMDL
MODEL 10
REMARK VINA RESULT:      -5.4     30.827     32.573
REMARK  Name = 
REMARK  4 active torsions:
REMARK  status: ('A' for Active; 'I' for Inactive)
REMARK    1  A    between atoms: O_2  and  C_3
REMARK    2  A    between atoms: N_5  and  N_6
REMARK    3  A    between atoms: N_6  and  C_7
REMARK    4  A    between atoms: C_7  and  C_14
REMARK                            x       y       z     vdW  Elec       q    Type
REMARK                         _______ _______ _______ _____ _____    ______ ____
ROOT
ATOM      1  C   UNL     1      19.330  22.182  36.190  0.00  0.00    +0.000 C 
ATOM      2  C   UNL     1      19.405  21.501  37.304  0.00  0.00    +0.000 C 
ATOM      3  C   UNL     1      20.290  21.930  38.393  0.00  0.00    +0.000 C 
ATOM      4  C   UNL     1      21.284  20.824  38.673  0.00  0.00    +0.000 C 
ATOM      5  C   UNL     1      20.578  19.501  38.757  0.00  0.00    +0.000 C 
ATOM      6  C   UNL     1      19.086  19.625  38.766  0.00  0.00    +0.000 C 
ATOM      7  C   UNL     1      18.592  20.287  37.473  0.00  0.00    +0.000 C 
ENDROOT
BRANCH   1   8
ATOM      8  C   UNL     1      18.442  21.753  35.094  0.00  0.00    +0.000 A 
ATOM      9  C   UNL     1      18.900  20.891  34.106  0.00  0.00    +0.000 A 
ATOM     10  C   UNL     1      18.112  20.460  33.062  0.00  0.00    +0.000 A 
ATOM     11  C   UNL     1      16.815  20.908  33.005  0.00  0.00    +0.000 A 
ATOM     12  C   UNL     1      16.342  21.765  33.978  0.00  0.00    +0.000 A 
ATOM     13  C   UNL     1      17.141  22.188  35.016  0.00  0.00    +0.000 A 
ENDBRANCH   1   8
BRANCH   1  14
ATOM     14  N   UNL     1      20.129  23.358  36.046  0.00  0.00    +0.000 NA
BRANCH  14  17
ATOM     15  C   UNL     1      20.121  25.807  35.687  0.00  0.00    +0.000 C 
ATOM     16  O   UNL     1      21.355  25.796  35.487  0.00  0.00    +0.000 OA
ATOM     17  N   UNL     1      19.485  24.570  35.974  0.00  0.00    +0.000 NA
BRANCH  15  19
ATOM     18  C   UNL     1      18.933  27.680  36.762  0.00  0.00    +0.000 C 
ATOM     19  O   UNL     1      19.439  27.008  35.623  0.00  0.00    +0.000 OA
ENDBRANCH  15  19
ENDBRANCH  14  17
ENDBRANCH   1  14
TORSDOF 4
ENDMDL
