MODEL 1
REMARK VINA RESULT:      -6.1      0.000      0.000
REMARK  Name = 
REMARK  2 active torsions:
REMARK  status: ('A' for Active; 'I' for Inactive)
REMARK    1  A    between atoms: C_5  and  N_6
REMARK    2  A    between atoms: C_7  and  C_9
REMARK                            x       y       z     vdW  Elec       q    Type
REMARK                         _______ _______ _______ _____ _____    ______ ____
ROOT
ATOM      1  C   UNL     1      22.319  -9.538  24.806  0.00  0.00    +0.000 C 
ATOM      2  C   UNL     1      21.323  -8.573  25.318  0.00  0.00    +0.000 A 
ATOM      3  N   UNL     1      20.190  -8.881  25.976  0.00  0.00    +0.000 NA
ATOM      4  C   UNL     1      19.526  -7.753  26.290  0.00  0.00    +0.000 A 
ATOM      5  C   UNL     1      18.344  -7.549  26.948  0.00  0.00    +0.000 A 
ATOM      6  C   UNL     1      17.901  -6.255  27.128  0.00  0.00    +0.000 A 
ATOM      7  C   UNL     1      18.616  -5.170  26.663  0.00  0.00    +0.000 A 
ATOM      8  C   UNL     1      19.810  -5.363  25.998  0.00  0.00    +0.000 A 
ATOM      9  C   UNL     1      20.244  -6.663  25.824  0.00  0.00    +0.000 A 
ATOM     10  C   UNL     1      21.369  -7.200  25.216  0.00  0.00    +0.000 A 
ATOM     11  C   UNL     1      22.456  -6.438  24.558  0.00  0.00    +0.000 C 
ENDROOT
BRANCH   5  12
ATOM     12  N   UNL     1      17.563  -8.651  27.451  0.00  0.00    +0.000 NA
ATOM     13  C   UNL     1      17.879  -9.260  28.671  0.00  0.00    +0.000 C 
ATOM     14  O   UNL     1      18.864  -8.820  29.319  0.00  0.00    +0.000 OA
BRANCH  13  15
ATOM     15  C   UNL     1      17.097 -10.381  29.199  0.00  0.00    +0.000 A 
ATOM     16  C   UNL     1      16.154 -11.164  28.612  0.00  0.00    +0.000 A 
ATOM     17  C   UNL     1      15.595 -12.126  29.337  0.00  0.00    +0.000 A 
ATOM     18  C   UNL     1      16.006 -12.267  30.634  0.00  0.00    +0.000 A 
ATOM     19  S   UNL     1      17.177 -11.019  30.771  0.00  0.00    +0.000 S 
ENDBRANCH  13  15
ENDBRANCH   5  12
TORSDOF 2
ENDMDL
MODEL 2
REMARK VINA RESULT:      -6.0     21.471     22.610
REMARK  Name = 
REMARK  2 active torsions:
REMARK  status: ('A' for Active; 'I' for Inactive)
REMARK    1  A    between atoms: C_5  and  N_6
REMARK    2  A    between atoms: C_7  and  C_9
REMARK                            x       y       z     vdW  Elec       q    Type
REMARK                         _______ _______ _______ _____ _____    ______ ____
ROOT
ATOM      1  C   UNL     1      18.563   8.501  42.276  0.00  0.00    +0.000 C 
ATOM      2  C   UNL     1      18.273   9.023  40.924  0.00  0.00    +0.000 A 
ATOM      3  N   UNL     1      19.162   9.166  39.924  0.00  0.00    +0.000 NA
ATOM      4  C   UNL     1      18.547   9.670  38.838  0.00  0.00    +0.000 A 
ATOM      5  C   UNL     1      19.020   9.987  37.594  0.00  0.00    +0.000 A 
ATOM      6  C   UNL     1      18.139  10.498  36.662  0.00  0.00    +0.000 A 
ATOM      7  C   UNL     1      16.805  10.695  36.954  0.00  0.00    +0.000 A 
ATOM      8  C   UNL     1      16.317  10.379  38.205  0.00  0.00    +0.000 A 
ATOM      9  C   UNL     1      17.208   9.868  39.130  0.00  0.00    +0.000 A 
ATOM     10  C   UNL     1      17.056   9.456  40.446  0.00  0.00    +0.000 A 
ATOM     11  C   UNL     1      15.797   9.471  41.228  0.00  0.00    +0.000 C 
ENDROOT
BRANCH   5  12
ATOM     12  N   UNL     1      20.405   9.798  37.243  0.00  0.00    +0.000 NA
ATOM     13  C   UNL     1      21.353  10.797  37.493  0.00  0.00    +0.000 C 
ATOM     14  O   UNL     1      20.965  11.865  38.033  0.00  0.00    +0.000 OA
BRANCH  13  15
ATOM     15  C   UNL     1      22.766  10.623  37.144  0.00  0.00    +0.000 A 
ATOM     16  C   UNL     1      23.357  10.269  35.973  0.00  0.00    +0.000 A 
ATOM     17  C   UNL     1      24.682  10.186  35.937  0.00  0.00    +0.000 A 
ATOM     18  C   UNL     1      25.369  10.463  37.087  0.00  0.00    +0.000 A 
ATOM     19  S   UNL     1      24.096  10.833  38.178  0.00  0.00    +0.000 S 
ENDBRANCH  13  15
ENDBRANCH   5  12
TORSDOF 2
ENDMDL
MODEL 3
REMARK VINA RESULT:      -6.0      2.471      2.673
REMARK  Name = 
REMARK  2 active torsions:
REMARK  status: ('A' for Active; 'I' for Inactive)
REMARK    1  A    between atoms: C_5  and  N_6
REMARK    2  A    between atoms: C_7  and  C_9
REMARK                            x       y       z     vdW  Elec       q    Type
REMARK                         _______ _______ _______ _____ _____    ______ ____
ROOT
ATOM      1  C   UNL     1      21.641  -9.745  24.350  0.00  0.00    +0.000 C 
ATOM      2  C   UNL     1      20.787  -8.710  24.970  0.00  0.00    +0.000 A 
ATOM      3  N   UNL     1      19.586  -8.914  25.542  0.00  0.00    +0.000 NA
ATOM      4  C   UNL     1      19.097  -7.747  26.001  0.00  0.00    +0.000 A 
ATOM      5  C   UNL     1      17.929  -7.444  26.647  0.00  0.00    +0.000 A 
ATOM      6  C   UNL     1      17.692  -6.132  27.004  0.00  0.00    +0.000 A 
ATOM      7  C   UNL     1      18.596  -5.128  26.728  0.00  0.00    +0.000 A 
ATOM      8  C   UNL     1      19.777  -5.421  26.076  0.00  0.00    +0.000 A 
ATOM      9  C   UNL     1      20.004  -6.737  25.723  0.00  0.00    +0.000 A 
ATOM     10  C   UNL     1      21.059  -7.363  25.075  0.00  0.00    +0.000 A 
ATOM     11  C   UNL     1      22.288  -6.708  24.570  0.00  0.00    +0.000 C 
ENDROOT
BRANCH   5  12
ATOM     12  N   UNL     1      16.955  -8.460  26.958  0.00  0.00    +0.000 NA
ATOM     13  C   UNL     1      15.831  -8.650  26.147  0.00  0.00    +0.000 C 
ATOM     14  O   UNL     1      15.691  -7.912  25.138  0.00  0.00    +0.000 OA
BRANCH  13  15
ATOM     15  C   UNL     1      14.829  -9.678  26.447  0.00  0.00    +0.000 A 
ATOM     16  C   UNL     1      14.931 -10.850  27.127  0.00  0.00    +0.000 A 
ATOM     17  C   UNL     1      13.844 -11.602  27.250  0.00  0.00    +0.000 A 
ATOM     18  C   UNL     1      12.686 -11.147  26.682  0.00  0.00    +0.000 A 
ATOM     19  S   UNL     1      13.193  -9.659  25.992  0.00  0.00    +0.000 S 
ENDBRANCH  13  15
ENDBRANCH   5  12
TORSDOF 2
ENDMDL
MODEL 4
REMARK VINA RESULT:      -5.8     33.547     35.585
REMARK  Name = 
REMARK  2 active torsions:
REMARK  status: ('A' for Active; 'I' for Inactive)
REMARK    1  A    between atoms: C_5  and  N_6
REMARK    2  A    between atoms: C_7  and  C_9
REMARK                            x       y       z     vdW  Elec       q    Type
REMARK                         _______ _______ _______ _____ _____    ______ ____
ROOT
ATOM      1  C   UNL     1      28.186  24.594  21.463  0.00  0.00    +0.000 C 
ATOM      2  C   UNL     1      28.669  24.033  22.743  0.00  0.00    +0.000 A 
ATOM      3  N   UNL     1      29.951  23.982  23.150  0.00  0.00    +0.000 NA
ATOM      4  C   UNL     1      30.018  23.405  24.364  0.00  0.00    +0.000 A 
ATOM      5  C   UNL     1      31.082  23.132  25.181  0.00  0.00    +0.000 A 
ATOM      6  C   UNL     1      30.845  22.521  26.395  0.00  0.00    +0.000 A 
ATOM      7  C   UNL     1      29.571  22.181  26.801  0.00  0.00    +0.000 A 
ATOM      8  C   UNL     1      28.490  22.450  25.986  0.00  0.00    +0.000 A 
ATOM      9  C   UNL     1      28.739  23.063  24.773  0.00  0.00    +0.000 A 
ATOM     10  C   UNL     1      27.906  23.466  23.740  0.00  0.00    +0.000 A 
ATOM     11  C   UNL     1      26.432  23.319  23.697  0.00  0.00    +0.000 C 
ENDROOT
BRANCH   5  12
ATOM     12  N   UNL     1      32.431  23.470  24.799  0.00  0.00    +0.000 NA
ATOM     13  C   UNL     1      33.004  24.686  25.185  0.00  0.00    +0.000 C 
ATOM     14  O   UNL     1      32.314  25.480  25.874  0.00  0.00    +0.000 OA
BRANCH  13  15
ATOM     15  C   UNL     1      34.374  25.046  24.806  0.00  0.00    +0.000 A 
ATOM     16  C   UNL     1      35.337  24.335  24.163  0.00  0.00    +0.000 A 
ATOM     17  C   UNL     1      36.510  24.918  23.946  0.00  0.00    +0.000 A 
ATOM     18  C   UNL     1      36.675  26.203  24.385  0.00  0.00    +0.000 A 
ATOM     19  S   UNL     1      35.145  26.532  25.093  0.00  0.00    +0.000 S 
ENDBRANCH  13  15
ENDBRANCH   5  12
TORSDOF 2
ENDMDL
MODEL 5
REMARK VINA RESULT:      -5.8     15.440     18.353
REMARK  Name = 
REMARK  2 active torsions:
REMARK  status: ('A' for Active; 'I' for Inactive)
REMARK    1  A    between atoms: C_5  and  N_6
REMARK    2  A    between atoms: C_7  and  C_9
REMARK                            x       y       z     vdW  Elec       q    Type
REMARK                         _______ _______ _______ _____ _____    ______ ____
ROOT
ATOM      1  C   UNL     1      26.536   6.643  13.063  0.00  0.00    +0.000 C 
ATOM      2  C   UNL     1      26.761   6.507  14.518  0.00  0.00    +0.000 A 
ATOM      3  N   UNL     1      26.055   5.726  15.357  0.00  0.00    +0.000 NA
ATOM      4  C   UNL     1      26.537   5.853  16.608  0.00  0.00    +0.000 A 
ATOM      5  C   UNL     1      26.159   5.272  17.788  0.00  0.00    +0.000 A 
ATOM      6  C   UNL     1      26.851   5.599  18.937  0.00  0.00    +0.000 A 
ATOM      7  C   UNL     1      27.905   6.489  18.923  0.00  0.00    +0.000 A 
ATOM      8  C   UNL     1      28.294   7.081  17.739  0.00  0.00    +0.000 A 
ATOM      9  C   UNL     1      27.595   6.747  16.595  0.00  0.00    +0.000 A 
ATOM     10  C   UNL     1      27.719   7.146  15.273  0.00  0.00    +0.000 A 
ATOM     11  C   UNL     1      28.716   8.104  14.738  0.00  0.00    +0.000 C 
ENDROOT
BRANCH   5  12
ATOM     12  N   UNL     1      25.064   4.337  17.851  0.00  0.00    +0.000 NA
ATOM     13  C   UNL     1      25.250   2.990  17.519  0.00  0.00    +0.000 C 
ATOM     14  O   UNL     1      26.397   2.615  17.164  0.00  0.00    +0.000 OA
BRANCH  13  15
ATOM     15  C   UNL     1      24.149   2.024  17.577  0.00  0.00    +0.000 A 
ATOM     16  C   UNL     1      24.140   0.672  17.434  0.00  0.00    +0.000 A 
ATOM     17  C   UNL     1      22.979   0.037  17.536  0.00  0.00    +0.000 A 
ATOM     18  C   UNL     1      21.860   0.786  17.779  0.00  0.00    +0.000 A 
ATOM     19  S   UNL     1      22.510   2.374  17.853  0.00  0.00    +0.000 S 
ENDBRANCH  13  15
ENDBRANCH   5  12
TORSDOF 2
ENDMDL
MODEL 6
REMARK VINA RESULT:      -5.8      3.810      6.252
REMARK  Name = 
REMARK  2 active torsions:
REMARK  status: ('A' for Active; 'I' for Inactive)
REMARK    1  A    between atoms: C_5  and  N_6
REMARK    2  A    between atoms: C_7  and  C_9
REMARK                            x       y       z     vdW  Elec       q    Type
REMARK                         _______ _______ _______ _____ _____    ______ ____
ROOT
ATOM      1  C   UNL     1      22.556 -11.318  20.903  0.00  0.00    +0.000 C 
ATOM      2  C   UNL     1      23.241 -10.190  21.571  0.00  0.00    +0.000 A 
ATOM      3  N   UNL     1      22.650  -9.227  22.302  0.00  0.00    +0.000 NA
ATOM      4  C   UNL     1      23.580  -8.367  22.755  0.00  0.00    +0.000 A 
ATOM      5  C   UNL     1      23.475  -7.242  23.528  0.00  0.00    +0.000 A 
ATOM      6  C   UNL     1      24.624  -6.545  23.841  0.00  0.00    +0.000 A 
ATOM      7  C   UNL     1      25.865  -6.951  23.397  0.00  0.00    +0.000 A 
ATOM      8  C   UNL     1      25.984  -8.083  22.616  0.00  0.00    +0.000 A 
ATOM      9  C   UNL     1      24.827  -8.774  22.309  0.00  0.00    +0.000 A 
ATOM     10  C   UNL     1      24.592  -9.921  21.566  0.00  0.00    +0.000 A 
ATOM     11  C   UNL     1      25.614 -10.739  20.873  0.00  0.00    +0.000 C 
ENDROOT
BRANCH   5  12
ATOM     12  N   UNL     1      22.200  -6.780  24.016  0.00  0.00    +0.000 NA
ATOM     13  C   UNL     1      21.627  -7.332  25.167  0.00  0.00    +0.000 C 
ATOM     14  O   UNL     1      22.253  -8.244  25.767  0.00  0.00    +0.000 OA
BRANCH  13  15
ATOM     15  C   UNL     1      20.332  -6.875  25.678  0.00  0.00    +0.000 A 
ATOM     16  C   UNL     1      19.860  -5.623  25.919  0.00  0.00    +0.000 A 
ATOM     17  C   UNL     1      18.625  -5.497  26.390  0.00  0.00    +0.000 A 
ATOM     18  C   UNL     1      17.904  -6.639  26.606  0.00  0.00    +0.000 A 
ATOM     19  S   UNL     1      19.018  -7.854  26.125  0.00  0.00    +0.000 S 
ENDBRANCH  13  15
ENDBRANCH   5  12
TORSDOF 2
ENDMDL
MODEL 7
REMARK VINA RESULT:      -5.7     33.164     33.634
REMARK  Name = 
REMARK  2 active torsions:
REMARK  status: ('A' for Active; 'I' for Inactive)
REMARK    1  A    between atoms: C_5  and  N_6
REMARK    2  A    between atoms: C_7  and  C_9
REMARK                            x       y       z     vdW  Elec       q    Type
REMARK                         _______ _______ _______ _____ _____    ______ ____
ROOT
ATOM      1  C   UNL     1      25.344  24.330  27.604  0.00  0.00    +0.000 C 
ATOM      2  C   UNL     1      26.518  23.924  26.802  0.00  0.00    +0.000 A 
ATOM      3  N   UNL     1      27.615  23.298  27.267  0.00  0.00    +0.000 NA
ATOM      4  C   UNL     1      28.478  23.085  26.257  0.00  0.00    +0.000 A 
ATOM      5  C   UNL     1      29.712  22.494  26.227  0.00  0.00    +0.000 A 
ATOM      6  C   UNL     1      30.380  22.416  25.022  0.00  0.00    +0.000 A 
ATOM      7  C   UNL     1      29.837  22.915  23.856  0.00  0.00    +0.000 A 
ATOM      8  C   UNL     1      28.594  23.514  23.873  0.00  0.00    +0.000 A 
ATOM      9  C   UNL     1      27.935  23.587  25.085  0.00  0.00    +0.000 A 
ATOM     10  C   UNL     1      26.703  24.110  25.450  0.00  0.00    +0.000 A 
ATOM     11  C   UNL     1      25.729  24.766  24.546  0.00  0.00    +0.000 C 
ENDROOT
BRANCH   5  12
ATOM     12  N   UNL     1      30.319  21.957  27.420  0.00  0.00    +0.000 NA
ATOM     13  C   UNL     1      31.300  22.675  28.113  0.00  0.00    +0.000 C 
ATOM     14  O   UNL     1      31.641  23.801  27.669  0.00  0.00    +0.000 OA
BRANCH  13  15
ATOM     15  C   UNL     1      31.928  22.145  29.327  0.00  0.00    +0.000 A 
ATOM     16  C   UNL     1      33.165  21.620  29.535  0.00  0.00    +0.000 A 
ATOM     17  C   UNL     1      33.476  21.211  30.759  0.00  0.00    +0.000 A 
ATOM     18  C   UNL     1      32.528  21.343  31.736  0.00  0.00    +0.000 A 
ATOM     19  S   UNL     1      31.225  22.050  30.870  0.00  0.00    +0.000 S 
ENDBRANCH  13  15
ENDBRANCH   5  12
TORSDOF 2
ENDMDL
MODEL 8
REMARK VINA RESULT:      -5.6      3.316      6.706
REMARK  Name = 
REMARK  2 active torsions:
REMARK  status: ('A' for Active; 'I' for Inactive)
REMARK    1  A    between atoms: C_5  and  N_6
REMARK    2  A    between atoms: C_7  and  C_9
REMARK                            x       y       z     vdW  Elec       q    Type
REMARK                         _______ _______ _______ _____ _____    ______ ____
ROOT
ATOM      1  C   UNL     1      19.649 -11.666  28.201  0.00  0.00    +0.000 C 
ATOM      2  C   UNL     1      19.423 -10.287  27.719  0.00  0.00    +0.000 A 
ATOM      3  N   UNL     1      20.313  -9.525  27.057  0.00  0.00    +0.000 NA
ATOM      4  C   UNL     1      19.765  -8.327  26.776  0.00  0.00    +0.000 A 
ATOM      5  C   UNL     1      20.266  -7.231  26.128  0.00  0.00    +0.000 A 
ATOM      6  C   UNL     1      19.458  -6.121  25.985  0.00  0.00    +0.000 A 
ATOM      7  C   UNL     1      18.169  -6.091  26.477  0.00  0.00    +0.000 A 
ATOM      8  C   UNL     1      17.654  -7.190  27.134  0.00  0.00    +0.000 A 
ATOM      9  C   UNL     1      18.471  -8.296  27.270  0.00  0.00    +0.000 A 
ATOM     10  C   UNL     1      18.276  -9.537  27.859  0.00  0.00    +0.000 A 
ATOM     11  C   UNL     1      17.040 -10.000  28.535  0.00  0.00    +0.000 C 
ENDROOT
BRANCH   5  12
ATOM     12  N   UNL     1      21.606  -7.217  25.597  0.00  0.00    +0.000 NA
ATOM     13  C   UNL     1      21.913  -7.879  24.403  0.00  0.00    +0.000 C 
ATOM     14  O   UNL     1      20.991  -8.489  23.804  0.00  0.00    +0.000 OA
BRANCH  13  15
ATOM     15  C   UNL     1      23.270  -7.875  23.848  0.00  0.00    +0.000 A 
ATOM     16  C   UNL     1      24.289  -6.987  23.990  0.00  0.00    +0.000 A 
ATOM     17  C   UNL     1      25.432  -7.236  23.363  0.00  0.00    +0.000 A 
ATOM     18  C   UNL     1      25.512  -8.375  22.610  0.00  0.00    +0.000 A 
ATOM     19  S   UNL     1      23.948  -9.051  22.827  0.00  0.00    +0.000 S 
ENDBRANCH  13  15
ENDBRANCH   5  12
TORSDOF 2
ENDMDL
MODEL 9
REMARK VINA RESULT:      -5.6     20.898     22.645
REMARK  Name = 
REMARK  2 active torsions:
REMARK  status: ('A' for Active; 'I' for Inactive)
REMARK    1  A    between atoms: C_5  and  N_6
REMARK    2  A    between atoms: C_7  and  C_9
REMARK                            x       y       z     vdW  Elec       q    Type
REMARK                         _______ _______ _______ _____ _____    ______ ____
ROOT
ATOM      1  C   UNL     1      23.163  14.559  39.773  0.00  0.00    +0.000 C 
ATOM      2  C   UNL     1      23.127  13.371  38.894  0.00  0.00    +0.000 A 
ATOM      3  N   UNL     1      22.131  12.468  38.824  0.00  0.00    +0.000 NA
ATOM      4  C   UNL     1      22.438  11.522  37.918  0.00  0.00    +0.000 A 
ATOM      5  C   UNL     1      21.756  10.413  37.498  0.00  0.00    +0.000 A 
ATOM      6  C   UNL     1      22.330   9.608  36.534  0.00  0.00    +0.000 A 
ATOM      7  C   UNL     1      23.564   9.895  35.989  0.00  0.00    +0.000 A 
ATOM      8  C   UNL     1      24.262  11.010  36.405  0.00  0.00    +0.000 A 
ATOM      9  C   UNL     1      23.678  11.808  37.370  0.00  0.00    +0.000 A 
ATOM     10  C   UNL     1      24.094  12.974  37.997  0.00  0.00    +0.000 A 
ATOM     11  C   UNL     1      25.368  13.691  37.755  0.00  0.00    +0.000 C 
ENDROOT
BRANCH   5  12
ATOM     12  N   UNL     1      20.463  10.074  38.038  0.00  0.00    +0.000 NA
ATOM     13  C   UNL     1      20.349   9.304  39.201  0.00  0.00    +0.000 C 
ATOM     14  O   UNL     1      21.405   8.913  39.764  0.00  0.00    +0.000 OA
BRANCH  13  15
ATOM     15  C   UNL     1      19.044   8.949  39.765  0.00  0.00    +0.000 A 
ATOM     16  C   UNL     1      17.908   9.681  39.912  0.00  0.00    +0.000 A 
ATOM     17  C   UNL     1      16.852   9.098  40.467  0.00  0.00    +0.000 A 
ATOM     18  C   UNL     1      16.975   7.793  40.857  0.00  0.00    +0.000 A 
ATOM     19  S   UNL     1      18.598   7.445  40.416  0.00  0.00    +0.000 S 
ENDBRANCH  13  15
ENDBRANCH   5  12
TORSDOF 2
ENDMDL
MODEL 10
REMARK VINA RESULT:      -5.6     35.866     36.539
REMARK  Name = 
REMARK  2 active torsions:
REMARK  status: ('A' for Active; 'I' for Inactive)
REMARK    1  A    between atoms: C_5  and  N_6
REMARK    2  A    between atoms: C_7  and  C_9
REMARK                            x       y       z     vdW  Elec       q    Type
REMARK                         _______ _______ _______ _____ _____    ______ ____
ROOT
ATOM      1  C   UNL     1      28.967  24.292  14.492  0.00  0.00    +0.000 C 
ATOM      2  C   UNL     1      29.250  23.331  13.405  0.00  0.00    +0.000 A 
ATOM      3  N   UNL     1      30.362  22.584  13.278  0.00  0.00    +0.000 NA
ATOM      4  C   UNL     1      30.276  21.825  12.170  0.00  0.00    +0.000 A 
ATOM      5  C   UNL     1      31.142  20.917  11.624  0.00  0.00    +0.000 A 
ATOM      6  C   UNL     1      30.779  20.277  10.456  0.00  0.00    +0.000 A 
ATOM      7  C   UNL     1      29.574  20.530   9.832  0.00  0.00    +0.000 A 
ATOM      8  C   UNL     1      28.694  21.444  10.374  0.00  0.00    +0.000 A 
ATOM      9  C   UNL     1      29.067  22.078  11.543  0.00  0.00    +0.000 A 
ATOM     10  C   UNL     1      28.437  23.027  12.335  0.00  0.00    +0.000 A 
ATOM     11  C   UNL     1      27.106  23.629  12.087  0.00  0.00    +0.000 C 
ENDROOT
BRANCH   5  12
ATOM     12  N   UNL     1      32.411  20.621  12.240  0.00  0.00    +0.000 NA
ATOM     13  C   UNL     1      33.605  20.735  11.518  0.00  0.00    +0.000 C 
ATOM     14  O   UNL     1      33.543  21.104  10.317  0.00  0.00    +0.000 OA
BRANCH  13  15
ATOM     15  C   UNL     1      34.904  20.438  12.127  0.00  0.00    +0.000 A 
ATOM     16  C   UNL     1      35.233  19.653  13.187  0.00  0.00    +0.000 A 
ATOM     17  C   UNL     1      36.513  19.563  13.529  0.00  0.00    +0.000 A 
ATOM     18  C   UNL     1      37.422  20.270  12.790  0.00  0.00    +0.000 A 
ATOM     19  S   UNL     1      36.414  21.038  11.632  0.00  0.00    +0.000 S 
ENDBRANCH  13  15
ENDBRANCH   5  12
TORSDOF 2
ENDMDL
