MODEL 1
REMARK VINA RESULT:      -7.6      0.000      0.000
REMARK  Name = 
REMARK  1 active torsions:
REMARK  status: ('A' for Active; 'I' for Inactive)
REMARK    1  A    between atoms: C_5  and  N_6
REMARK                            x       y       z     vdW  Elec       q    Type
REMARK                         _______ _______ _______ _____ _____    ______ ____
ROOT
ATOM      1  N   UNL     1      15.336  11.864  35.874  0.00  0.00    +0.000 NA
ATOM      2  C   UNL     1      14.507  11.419  36.924  0.00  0.00    +0.000 A 
ATOM      3  N   UNL     1      13.180  11.558  36.799  0.00  0.00    +0.000 NA
ATOM      4  C   UNL     1      12.279  11.194  37.690  0.00  0.00    +0.000 A 
ATOM      5  N   UNL     1      12.745  10.631  38.825  0.00  0.00    +0.000 NA
ATOM      6  C   UNL     1      14.087  10.462  39.012  0.00  0.00    +0.000 A 
ATOM      7  S   UNL     1      15.007   9.807  40.282  0.00  0.00    +0.000 S 
ATOM      8  C   UNL     1      16.571  10.015  39.641  0.00  0.00    +0.000 A 
ATOM      9  C   UNL     1      16.332  10.599  38.430  0.00  0.00    +0.000 A 
ATOM     10  C   UNL     1      15.033  10.834  38.101  0.00  0.00    +0.000 A 
ATOM     11  C   UNL     1      17.718  10.807  37.812  0.00  0.00    +0.000 C 
ATOM     12  C   UNL     1      18.521   9.704  38.423  0.00  0.00    +0.000 C 
ATOM     13  C   UNL     1      18.049   9.813  39.880  0.00  0.00    +0.000 C 
ENDROOT
BRANCH   1  18
ATOM     14  O   UNL     1      13.503  14.133  31.100  0.00  0.00    +0.000 OA
ATOM     15  C   UNL     1      13.958  13.570  32.281  0.00  0.00    +0.000 A 
ATOM     16  C   UNL     1      14.741  12.437  32.274  0.00  0.00    +0.000 A 
ATOM     17  C   UNL     1      15.195  11.877  33.474  0.00  0.00    +0.000 A 
ATOM     18  C   UNL     1      14.867  12.449  34.690  0.00  0.00    +0.000 A 
ATOM     19  C   UNL     1      14.082  13.581  34.651  0.00  0.00    +0.000 A 
ATOM     20  C   UNL     1      13.630  14.140  33.491  0.00  0.00    +0.000 A 
ENDBRANCH   1  18
TORSDOF 1
ENDMDL
MODEL 2
REMARK VINA RESULT:      -7.2      4.556      7.890
REMARK  Name = 
REMARK  1 active torsions:
REMARK  status: ('A' for Active; 'I' for Inactive)
REMARK    1  A    between atoms: C_5  and  N_6
REMARK                            x       y       z     vdW  Elec       q    Type
REMARK                         _______ _______ _______ _____ _____    ______ ____
ROOT
ATOM      1  N   UNL     1      15.455   9.634  40.309  0.00  0.00    +0.000 NA
ATOM      2  C   UNL     1      16.186  10.197  39.243  0.00  0.00    +0.000 A 
ATOM      3  N   UNL     1      17.518  10.049  39.228  0.00  0.00    +0.000 NA
ATOM      4  C   UNL     1      18.336  10.516  38.305  0.00  0.00    +0.000 A 
ATOM      5  N   UNL     1      17.771  11.202  37.289  0.00  0.00    +0.000 NA
ATOM      6  C   UNL     1      16.419  11.388  37.248  0.00  0.00    +0.000 A 
ATOM      7  S   UNL     1      15.390  12.178  36.151  0.00  0.00    +0.000 S 
ATOM      8  C   UNL     1      13.890  11.894  36.907  0.00  0.00    +0.000 A 
ATOM      9  C   UNL     1      14.236  11.177  38.016  0.00  0.00    +0.000 A 
ATOM     10  C   UNL     1      15.559  10.912  38.196  0.00  0.00    +0.000 A 
ATOM     11  C   UNL     1      12.912  10.897  38.733  0.00  0.00    +0.000 C 
ATOM     12  C   UNL     1      11.925  10.883  37.611  0.00  0.00    +0.000 C 
ATOM     13  C   UNL     1      12.398  12.118  36.830  0.00  0.00    +0.000 C 
ENDROOT
BRANCH   1  18
ATOM     14  O   UNL     1      17.745   6.854  44.590  0.00  0.00    +0.000 OA
ATOM     15  C   UNL     1      17.179   7.543  43.532  0.00  0.00    +0.000 A 
ATOM     16  C   UNL     1      16.983   8.906  43.592  0.00  0.00    +0.000 A 
ATOM     17  C   UNL     1      16.410   9.593  42.516  0.00  0.00    +0.000 A 
ATOM     18  C   UNL     1      16.028   8.918  41.370  0.00  0.00    +0.000 A 
ATOM     19  C   UNL     1      16.241   7.557  41.351  0.00  0.00    +0.000 A 
ATOM     20  C   UNL     1      16.798   6.872  42.391  0.00  0.00    +0.000 A 
ENDBRANCH   1  18
TORSDOF 1
ENDMDL
MODEL 3
REMARK VINA RESULT:      -6.8      4.109      7.291
REMARK  Name = 
REMARK  1 active torsions:
REMARK  status: ('A' for Active; 'I' for Inactive)
REMARK    1  A    between atoms: C_5  and  N_6
REMARK                            x       y       z     vdW  Elec       q    Type
REMARK                         _______ _______ _______ _____ _____    ______ ____
ROOT
ATOM      1  N   UNL     1      16.709  10.524  38.299  0.00  0.00    +0.000 NA
ATOM      2  C   UNL     1      17.005  10.290  36.940  0.00  0.00    +0.000 A 
ATOM      3  N   UNL     1      17.975   9.417  36.635  0.00  0.00    +0.000 NA
ATOM      4  C   UNL     1      18.367   9.094  35.418  0.00  0.00    +0.000 A 
ATOM      5  N   UNL     1      17.727   9.702  34.397  0.00  0.00    +0.000 NA
ATOM      6  C   UNL     1      16.731  10.601  34.643  0.00  0.00    +0.000 A 
ATOM      7  S   UNL     1      15.733  11.534  33.631  0.00  0.00    +0.000 S 
ATOM      8  C   UNL     1      14.807  12.345  34.807  0.00  0.00    +0.000 A 
ATOM      9  C   UNL     1      15.306  11.859  35.981  0.00  0.00    +0.000 A 
ATOM     10  C   UNL     1      16.313  10.947  35.896  0.00  0.00    +0.000 A 
ATOM     11  C   UNL     1      14.499  12.564  37.074  0.00  0.00    +0.000 C 
ATOM     12  C   UNL     1      13.193  12.833  36.400  0.00  0.00    +0.000 C 
ATOM     13  C   UNL     1      13.699  13.345  35.043  0.00  0.00    +0.000 C 
ENDROOT
BRANCH   1  18
ATOM     14  O   UNL     1      19.242   7.997  42.600  0.00  0.00    +0.000 OA
ATOM     15  C   UNL     1      18.613   8.622  41.536  0.00  0.00    +0.000 A 
ATOM     16  C   UNL     1      17.252   8.518  41.352  0.00  0.00    +0.000 A 
ATOM     17  C   UNL     1      16.627   9.153  40.273  0.00  0.00    +0.000 A 
ATOM     18  C   UNL     1      17.363   9.899  39.370  0.00  0.00    +0.000 A 
ATOM     19  C   UNL     1      18.721   9.977  39.591  0.00  0.00    +0.000 A 
ATOM     20  C   UNL     1      19.346   9.364  40.637  0.00  0.00    +0.000 A 
ENDBRANCH   1  18
TORSDOF 1
ENDMDL
MODEL 4
REMARK VINA RESULT:      -6.8      5.008      7.053
REMARK  Name = 
REMARK  1 active torsions:
REMARK  status: ('A' for Active; 'I' for Inactive)
REMARK    1  A    between atoms: C_5  and  N_6
REMARK                            x       y       z     vdW  Elec       q    Type
REMARK                         _______ _______ _______ _____ _____    ______ ____
ROOT
ATOM      1  N   UNL     1      19.657  11.000  37.563  0.00  0.00    +0.000 NA
ATOM      2  C   UNL     1      20.551  11.923  38.143  0.00  0.00    +0.000 A 
ATOM      3  N   UNL     1      20.055  12.903  38.911  0.00  0.00    +0.000 NA
ATOM      4  C   UNL     1      20.758  13.839  39.518  0.00  0.00    +0.000 A 
ATOM      5  N   UNL     1      22.097  13.794  39.345  0.00  0.00    +0.000 NA
ATOM      6  C   UNL     1      22.662  12.820  38.574  0.00  0.00    +0.000 A 
ATOM      7  S   UNL     1      24.269  12.466  38.147  0.00  0.00    +0.000 S 
ATOM      8  C   UNL     1      24.012  11.094  37.172  0.00  0.00    +0.000 A 
ATOM      9  C   UNL     1      22.656  10.943  37.205  0.00  0.00    +0.000 A 
ATOM     10  C   UNL     1      21.949  11.846  37.938  0.00  0.00    +0.000 A 
ATOM     11  C   UNL     1      22.374   9.713  36.337  0.00  0.00    +0.000 C 
ATOM     12  C   UNL     1      23.629   8.913  36.481  0.00  0.00    +0.000 C 
ATOM     13  C   UNL     1      24.671  10.030  36.326  0.00  0.00    +0.000 C 
ENDROOT
BRANCH   1  18
ATOM     14  O   UNL     1      14.113  11.067  38.313  0.00  0.00    +0.000 OA
ATOM     15  C   UNL     1      15.485  11.049  38.129  0.00  0.00    +0.000 A 
ATOM     16  C   UNL     1      16.294  10.228  38.882  0.00  0.00    +0.000 A 
ATOM     17  C   UNL     1      17.680  10.218  38.687  0.00  0.00    +0.000 A 
ATOM     18  C   UNL     1      18.265  11.032  37.734  0.00  0.00    +0.000 A 
ATOM     19  C   UNL     1      17.420  11.838  37.003  0.00  0.00    +0.000 A 
ATOM     20  C   UNL     1      16.067  11.861  37.180  0.00  0.00    +0.000 A 
ENDBRANCH   1  18
TORSDOF 1
ENDMDL
MODEL 5
REMARK VINA RESULT:      -6.6     30.277     32.602
REMARK  Name = 
REMARK  1 active torsions:
REMARK  status: ('A' for Active; 'I' for Inactive)
REMARK    1  A    between atoms: C_5  and  N_6
REMARK                            x       y       z     vdW  Elec       q    Type
REMARK                         _______ _______ _______ _____ _____    ______ ____
ROOT
ATOM      1  N   UNL     1      31.155  21.767  11.460  0.00  0.00    +0.000 NA
ATOM      2  C   UNL     1      31.693  21.850  10.160  0.00  0.00    +0.000 A 
ATOM      3  N   UNL     1      30.984  22.474   9.209  0.00  0.00    +0.000 NA
ATOM      4  C   UNL     1      31.349  22.631   7.952  0.00  0.00    +0.000 A 
ATOM      5  N   UNL     1      32.547  22.113   7.603  0.00  0.00    +0.000 NA
ATOM      6  C   UNL     1      33.315  21.465   8.526  0.00  0.00    +0.000 A 
ATOM      7  S   UNL     1      34.835  20.708   8.444  0.00  0.00    +0.000 S 
ATOM      8  C   UNL     1      34.984  20.187  10.059  0.00  0.00    +0.000 A 
ATOM      9  C   UNL     1      33.825  20.625  10.631  0.00  0.00    +0.000 A 
ATOM     10  C   UNL     1      32.951  21.293   9.830  0.00  0.00    +0.000 A 
ATOM     11  C   UNL     1      33.915  20.177  12.093  0.00  0.00    +0.000 C 
ATOM     12  C   UNL     1      35.388  20.154  12.342  0.00  0.00    +0.000 C 
ATOM     13  C   UNL     1      35.861  19.464  11.054  0.00  0.00    +0.000 C 
ENDROOT
BRANCH   1  18
ATOM     14  O   UNL     1      26.247  23.944  13.035  0.00  0.00    +0.000 OA
ATOM     15  C   UNL     1      27.462  23.406  12.647  0.00  0.00    +0.000 A 
ATOM     16  C   UNL     1      28.624  23.712  13.320  0.00  0.00    +0.000 A 
ATOM     17  C   UNL     1      29.847  23.163  12.918  0.00  0.00    +0.000 A 
ATOM     18  C   UNL     1      29.914  22.301  11.838  0.00  0.00    +0.000 A 
ATOM     19  C   UNL     1      28.729  22.022  11.194  0.00  0.00    +0.000 A 
ATOM     20  C   UNL     1      27.528  22.548  11.571  0.00  0.00    +0.000 A 
ENDBRANCH   1  18
TORSDOF 1
ENDMDL
MODEL 6
REMARK VINA RESULT:      -6.5     23.345     25.963
REMARK  Name = 
REMARK  1 active torsions:
REMARK  status: ('A' for Active; 'I' for Inactive)
REMARK    1  A    between atoms: C_5  and  N_6
REMARK                            x       y       z     vdW  Elec       q    Type
REMARK                         _______ _______ _______ _____ _____    ______ ____
ROOT
ATOM      1  N   UNL     1      33.657  -4.149  32.519  0.00  0.00    +0.000 NA
ATOM      2  C   UNL     1      34.240  -5.401  32.801  0.00  0.00    +0.000 A 
ATOM      3  N   UNL     1      34.510  -5.711  34.077  0.00  0.00    +0.000 NA
ATOM      4  C   UNL     1      35.053  -6.836  34.499  0.00  0.00    +0.000 A 
ATOM      5  N   UNL     1      35.359  -7.751  33.554  0.00  0.00    +0.000 NA
ATOM      6  C   UNL     1      35.108  -7.494  32.237  0.00  0.00    +0.000 A 
ATOM      7  S   UNL     1      35.354  -8.389  30.813  0.00  0.00    +0.000 S 
ATOM      8  C   UNL     1      34.746  -7.283  29.669  0.00  0.00    +0.000 A 
ATOM      9  C   UNL     1      34.358  -6.226  30.440  0.00  0.00    +0.000 A 
ATOM     10  C   UNL     1      34.547  -6.334  31.783  0.00  0.00    +0.000 A 
ATOM     11  C   UNL     1      33.801  -5.199  29.449  0.00  0.00    +0.000 C 
ATOM     12  C   UNL     1      33.303  -6.056  28.331  0.00  0.00    +0.000 C 
ATOM     13  C   UNL     1      34.481  -7.032  28.203  0.00  0.00    +0.000 C 
ENDROOT
BRANCH   1  18
ATOM     14  O   UNL     1      32.428  -0.268  36.356  0.00  0.00    +0.000 OA
ATOM     15  C   UNL     1      32.733  -1.227  35.406  0.00  0.00    +0.000 A 
ATOM     16  C   UNL     1      33.736  -1.022  34.483  0.00  0.00    +0.000 A 
ATOM     17  C   UNL     1      34.036  -1.999  33.527  0.00  0.00    +0.000 A 
ATOM     18  C   UNL     1      33.333  -3.190  33.489  0.00  0.00    +0.000 A 
ATOM     19  C   UNL     1      32.340  -3.354  34.429  0.00  0.00    +0.000 A 
ATOM     20  C   UNL     1      32.033  -2.412  35.368  0.00  0.00    +0.000 A 
ENDBRANCH   1  18
TORSDOF 1
ENDMDL
MODEL 7
REMARK VINA RESULT:      -6.5     19.613     21.368
REMARK  Name = 
REMARK  1 active torsions:
REMARK  status: ('A' for Active; 'I' for Inactive)
REMARK    1  A    between atoms: C_5  and  N_6
REMARK                            x       y       z     vdW  Elec       q    Type
REMARK                         _______ _______ _______ _____ _____    ______ ____
ROOT
ATOM      1  N   UNL     1      28.246  24.147  25.673  0.00  0.00    +0.000 NA
ATOM      2  C   UNL     1      29.127  23.613  26.635  0.00  0.00    +0.000 A 
ATOM      3  N   UNL     1      30.369  23.279  26.256  0.00  0.00    +0.000 NA
ATOM      4  C   UNL     1      31.303  22.769  27.034  0.00  0.00    +0.000 A 
ATOM      5  N   UNL     1      30.968  22.570  28.327  0.00  0.00    +0.000 NA
ATOM      6  C   UNL     1      29.719  22.890  28.775  0.00  0.00    +0.000 A 
ATOM      7  S   UNL     1      28.969  22.779  30.296  0.00  0.00    +0.000 S 
ATOM      8  C   UNL     1      27.432  23.400  29.905  0.00  0.00    +0.000 A 
ATOM      9  C   UNL     1      27.545  23.685  28.575  0.00  0.00    +0.000 A 
ATOM     10  C   UNL     1      28.741  23.417  27.982  0.00  0.00    +0.000 A 
ATOM     11  C   UNL     1      26.179  24.250  28.176  0.00  0.00    +0.000 C 
ATOM     12  C   UNL     1      25.689  24.860  29.449  0.00  0.00    +0.000 C 
ATOM     13  C   UNL     1      26.060  23.743  30.435  0.00  0.00    +0.000 C 
ENDROOT
BRANCH   1  18
ATOM     14  O   UNL     1      29.609  25.078  20.327  0.00  0.00    +0.000 OA
ATOM     15  C   UNL     1      29.273  24.849  21.651  0.00  0.00    +0.000 A 
ATOM     16  C   UNL     1      29.533  25.789  22.625  0.00  0.00    +0.000 A 
ATOM     17  C   UNL     1      29.188  25.547  23.959  0.00  0.00    +0.000 A 
ATOM     18  C   UNL     1      28.579  24.360  24.328  0.00  0.00    +0.000 A 
ATOM     19  C   UNL     1      28.338  23.449  23.323  0.00  0.00    +0.000 A 
ATOM     20  C   UNL     1      28.667  23.668  22.017  0.00  0.00    +0.000 A 
ENDBRANCH   1  18
TORSDOF 1
ENDMDL
MODEL 8
REMARK VINA RESULT:      -6.5     22.920     24.029
REMARK  Name = 
REMARK  1 active torsions:
REMARK  status: ('A' for Active; 'I' for Inactive)
REMARK    1  A    between atoms: C_5  and  N_6
REMARK                            x       y       z     vdW  Elec       q    Type
REMARK                         _______ _______ _______ _____ _____    ______ ____
ROOT
ATOM      1  N   UNL     1      22.224  -7.661  24.948  0.00  0.00    +0.000 NA
ATOM      2  C   UNL     1      21.784  -8.663  25.837  0.00  0.00    +0.000 A 
ATOM      3  N   UNL     1      22.557  -9.741  26.025  0.00  0.00    +0.000 NA
ATOM      4  C   UNL     1      22.284 -10.759  26.818  0.00  0.00    +0.000 A 
ATOM      5  N   UNL     1      21.118 -10.698  27.496  0.00  0.00    +0.000 NA
ATOM      6  C   UNL     1      20.286  -9.626  27.347  0.00  0.00    +0.000 A 
ATOM      7  S   UNL     1      18.780  -9.223  28.025  0.00  0.00    +0.000 S 
ATOM      8  C   UNL     1      18.515  -7.723  27.264  0.00  0.00    +0.000 A 
ATOM      9  C   UNL     1      19.627  -7.570  26.488  0.00  0.00    +0.000 A 
ATOM     10  C   UNL     1      20.554  -8.566  26.530  0.00  0.00    +0.000 A 
ATOM     11  C   UNL     1      19.432  -6.226  25.780  0.00  0.00    +0.000 C 
ATOM     12  C   UNL     1      18.586  -5.463  26.747  0.00  0.00    +0.000 C 
ATOM     13  C   UNL     1      17.571  -6.552  27.123  0.00  0.00    +0.000 C 
ENDROOT
BRANCH   1  18
ATOM     14  O   UNL     1      27.065  -7.771  22.145  0.00  0.00    +0.000 OA
ATOM     15  C   UNL     1      25.867  -7.742  22.839  0.00  0.00    +0.000 A 
ATOM     16  C   UNL     1      25.506  -6.646  23.592  0.00  0.00    +0.000 A 
ATOM     17  C   UNL     1      24.294  -6.628  24.290  0.00  0.00    +0.000 A 
ATOM     18  C   UNL     1      23.432  -7.709  24.238  0.00  0.00    +0.000 A 
ATOM     19  C   UNL     1      23.832  -8.784  23.474  0.00  0.00    +0.000 A 
ATOM     20  C   UNL     1      25.010  -8.819  22.788  0.00  0.00    +0.000 A 
ENDBRANCH   1  18
TORSDOF 1
ENDMDL
MODEL 9
REMARK VINA RESULT:      -6.4      4.949      7.440
REMARK  Name = 
REMARK  1 active torsions:
REMARK  status: ('A' for Active; 'I' for Inactive)
REMARK    1  A    between atoms: C_5  and  N_6
REMARK                            x       y       z     vdW  Elec       q    Type
REMARK                         _______ _______ _______ _____ _____    ______ ____
ROOT
ATOM      1  N   UNL     1      20.408  10.547  37.535  0.00  0.00    +0.000 NA
ATOM      2  C   UNL     1      19.747   9.946  38.626  0.00  0.00    +0.000 A 
ATOM      3  N   UNL     1      20.471   9.243  39.508  0.00  0.00    +0.000 NA
ATOM      4  C   UNL     1      20.001   8.624  40.573  0.00  0.00    +0.000 A 
ATOM      5  N   UNL     1      18.670   8.714  40.784  0.00  0.00    +0.000 NA
ATOM      6  C   UNL     1      17.879   9.415  39.921  0.00  0.00    +0.000 A 
ATOM      7  S   UNL     1      16.210   9.733  39.875  0.00  0.00    +0.000 S 
ATOM      8  C   UNL     1      16.135  10.675  38.459  0.00  0.00    +0.000 A 
ATOM      9  C   UNL     1      17.436  10.720  38.050  0.00  0.00    +0.000 A 
ATOM     10  C   UNL     1      18.350  10.061  38.814  0.00  0.00    +0.000 A 
ATOM     11  C   UNL     1      17.419  11.562  36.771  0.00  0.00    +0.000 C 
ATOM     12  C   UNL     1      16.244  12.462  36.983  0.00  0.00    +0.000 C 
ATOM     13  C   UNL     1      15.230  11.444  37.525  0.00  0.00    +0.000 C 
ENDROOT
BRANCH   1  18
ATOM     14  O   UNL     1      25.902  10.141  36.556  0.00  0.00    +0.000 OA
ATOM     15  C   UNL     1      24.542  10.240  36.797  0.00  0.00    +0.000 A 
ATOM     16  C   UNL     1      23.656   9.328  36.267  0.00  0.00    +0.000 A 
ATOM     17  C   UNL     1      22.283   9.438  36.518  0.00  0.00    +0.000 A 
ATOM     18  C   UNL     1      21.788  10.464  37.303  0.00  0.00    +0.000 A 
ATOM     19  C   UNL     1      22.708  11.354  37.812  0.00  0.00    +0.000 A 
ATOM     20  C   UNL     1      24.049  11.262  37.578  0.00  0.00    +0.000 A 
ENDBRANCH   1  18
TORSDOF 1
ENDMDL
MODEL 10
REMARK VINA RESULT:      -6.4     19.058     21.012
REMARK  Name = 
REMARK  1 active torsions:
REMARK  status: ('A' for Active; 'I' for Inactive)
REMARK    1  A    between atoms: C_5  and  N_6
REMARK                            x       y       z     vdW  Elec       q    Type
REMARK                         _______ _______ _______ _____ _____    ______ ____
ROOT
ATOM      1  N   UNL     1      27.149  24.952  25.455  0.00  0.00    +0.000 NA
ATOM      2  C   UNL     1      27.399  24.089  26.542  0.00  0.00    +0.000 A 
ATOM      3  N   UNL     1      28.292  23.102  26.387  0.00  0.00    +0.000 NA
ATOM      4  C   UNL     1      28.632  22.218  27.304  0.00  0.00    +0.000 A 
ATOM      5  N   UNL     1      28.021  22.328  28.503  0.00  0.00    +0.000 NA
ATOM      6  C   UNL     1      27.101  23.312  28.723  0.00  0.00    +0.000 A 
ATOM      7  S   UNL     1      26.159  23.739  30.072  0.00  0.00    +0.000 S 
ATOM      8  C   UNL     1      25.321  25.074  29.426  0.00  0.00    +0.000 A 
ATOM      9  C   UNL     1      25.806  25.156  28.153  0.00  0.00    +0.000 A 
ATOM     10  C   UNL     1      26.737  24.234  27.784  0.00  0.00    +0.000 A 
ATOM     11  C   UNL     1      25.078  26.350  27.530  0.00  0.00    +0.000 C 
ATOM     12  C   UNL     1      24.790  27.216  28.713  0.00  0.00    +0.000 C 
ATOM     13  C   UNL     1      24.300  26.152  29.704  0.00  0.00    +0.000 C 
ENDROOT
BRANCH   1  18
ATOM     14  O   UNL     1      29.713  24.616  20.493  0.00  0.00    +0.000 OA
ATOM     15  C   UNL     1      29.080  24.700  21.722  0.00  0.00    +0.000 A 
ATOM     16  C   UNL     1      29.511  25.584  22.687  0.00  0.00    +0.000 A 
ATOM     17  C   UNL     1      28.863  25.661  23.925  0.00  0.00    +0.000 A 
ATOM     18  C   UNL     1      27.776  24.852  24.205  0.00  0.00    +0.000 A 
ATOM     19  C   UNL     1      27.378  23.983  23.213  0.00  0.00    +0.000 A 
ATOM     20  C   UNL     1      27.998  23.895  22.000  0.00  0.00    +0.000 A 
ENDBRANCH   1  18
TORSDOF 1
ENDMDL
