MODEL 1
REMARK VINA RESULT:      -6.6      0.000      0.000
REMARK  Name = 
REMARK  5 active torsions:
REMARK  status: ('A' for Active; 'I' for Inactive)
REMARK    1  A    between atoms: O_2  and  C_3
REMARK    2  A    between atoms: C_6  and  N_7
REMARK    3  A    between atoms: N_7  and  C_8
REMARK    4  A    between atoms: C_8  and  C_9
REMARK    5  A    between atoms: C_13  and  O_14
REMARK                            x       y       z     vdW  Elec       q    Type
REMARK                         _______ _______ _______ _____ _____    ______ ____
ROOT
ATOM      1  N   UNL     1      16.159  12.260  36.051  0.00  0.00    +0.000 NA
ENDROOT
BRANCH   1   5
ATOM      2  C   UNL     1      17.875   9.784  39.001  0.00  0.00    +0.000 A 
ATOM      3  C   UNL     1      18.623  10.207  37.928  0.00  0.00    +0.000 A 
ATOM      4  C   UNL     1      18.048  11.023  36.960  0.00  0.00    +0.000 A 
ATOM      5  C   UNL     1      16.738  11.433  37.033  0.00  0.00    +0.000 A 
ATOM      6  C   UNL     1      16.009  10.999  38.114  0.00  0.00    +0.000 A 
ATOM      7  C   UNL     1      16.564  10.183  39.091  0.00  0.00    +0.000 A 
ATOM      8 CL   UNL     1      15.615   9.646  40.454  0.00  0.00    +0.000 Cl
BRANCH   2  10
ATOM      9  C   UNL     1      18.752   7.618  39.747  0.00  0.00    +0.000 C 
ATOM     10  O   UNL     1      18.401   8.966  39.996  0.00  0.00    +0.000 OA
ENDBRANCH   2  10
ENDBRANCH   1   5
BRANCH   1  11
ATOM     11  C   UNL     1      14.944  11.857  35.423  0.00  0.00    +0.000 C 
BRANCH  11  12
ATOM     12  C   UNL     1      14.460  12.809  34.402  0.00  0.00    +0.000 A 
ATOM     13  C   UNL     1      13.685  13.895  34.666  0.00  0.00    +0.000 A 
ATOM     14  C   UNL     1      13.288  14.722  33.628  0.00  0.00    +0.000 A 
ATOM     15  C   UNL     1      13.672  14.459  32.310  0.00  0.00    +0.000 A 
ATOM     16  C   UNL     1      14.462  13.354  32.043  0.00  0.00    +0.000 A 
ATOM     17  C   UNL     1      14.838  12.554  33.088  0.00  0.00    +0.000 A 
ATOM     18  O   UNL     1      15.637  11.445  32.781  0.00  0.00    +0.000 OA
BRANCH  16  19
ATOM     19  O   UNL     1      14.871  13.052  30.731  0.00  0.00    +0.000 OA
ATOM     20  C   UNL     1      16.034  13.628  30.174  0.00  0.00    +0.000 C 
ENDBRANCH  16  19
ENDBRANCH  11  12
ENDBRANCH   1  11
TORSDOF 5
ENDMDL
MODEL 2
REMARK VINA RESULT:      -6.5      2.782      3.540
REMARK  Name = 
REMARK  5 active torsions:
REMARK  status: ('A' for Active; 'I' for Inactive)
REMARK    1  A    between atoms: O_2  and  C_3
REMARK    2  A    between atoms: C_6  and  N_7
REMARK    3  A    between atoms: N_7  and  C_8
REMARK    4  A    between atoms: C_8  and  C_9
REMARK    5  A    between atoms: C_13  and  O_14
REMARK                            x       y       z     vdW  Elec       q    Type
REMARK                         _______ _______ _______ _____ _____    ______ ____
ROOT
ATOM      1  N   UNL     1      17.290   9.926  35.649  0.00  0.00    +0.000 NA
ENDROOT
BRANCH   1   5
ATOM      2  C   UNL     1      20.608  10.768  38.111  0.00  0.00    +0.000 A 
ATOM      3  C   UNL     1      19.366  11.269  38.423  0.00  0.00    +0.000 A 
ATOM      4  C   UNL     1      18.278  10.986  37.605  0.00  0.00    +0.000 A 
ATOM      5  C   UNL     1      18.394  10.212  36.475  0.00  0.00    +0.000 A 
ATOM      6  C   UNL     1      19.644   9.721  36.183  0.00  0.00    +0.000 A 
ATOM      7  C   UNL     1      20.744   9.992  36.986  0.00  0.00    +0.000 A 
ATOM      8 CL   UNL     1      22.320   9.357  36.591  0.00  0.00    +0.000 Cl
BRANCH   2  10
ATOM      9  C   UNL     1      21.696  10.906  40.305  0.00  0.00    +0.000 C 
ATOM     10  O   UNL     1      21.729  11.022  38.895  0.00  0.00    +0.000 OA
ENDBRANCH   2  10
ENDBRANCH   1   5
BRANCH   1  11
ATOM     11  C   UNL     1      16.335  10.950  35.378  0.00  0.00    +0.000 C 
BRANCH  11  12
ATOM     12  C   UNL     1      16.042  11.122  33.940  0.00  0.00    +0.000 A 
ATOM     13  C   UNL     1      16.611  10.391  32.944  0.00  0.00    +0.000 A 
ATOM     14  C   UNL     1      16.260  10.639  31.627  0.00  0.00    +0.000 A 
ATOM     15  C   UNL     1      15.329  11.630  31.303  0.00  0.00    +0.000 A 
ATOM     16  C   UNL     1      14.750  12.371  32.318  0.00  0.00    +0.000 A 
ATOM     17  C   UNL     1      15.116  12.106  33.610  0.00  0.00    +0.000 A 
ATOM     18  O   UNL     1      14.510  12.876  34.611  0.00  0.00    +0.000 OA
BRANCH  16  19
ATOM     19  O   UNL     1      13.809  13.378  32.036  0.00  0.00    +0.000 OA
ATOM     20  C   UNL     1      14.203  14.622  31.496  0.00  0.00    +0.000 C 
ENDBRANCH  16  19
ENDBRANCH  11  12
ENDBRANCH   1  11
TORSDOF 5
ENDMDL
MODEL 3
REMARK VINA RESULT:      -6.4      3.529      4.557
REMARK  Name = 
REMARK  5 active torsions:
REMARK  status: ('A' for Active; 'I' for Inactive)
REMARK    1  A    between atoms: O_2  and  C_3
REMARK    2  A    between atoms: C_6  and  N_7
REMARK    3  A    between atoms: N_7  and  C_8
REMARK    4  A    between atoms: C_8  and  C_9
REMARK    5  A    between atoms: C_13  and  O_14
REMARK                            x       y       z     vdW  Elec       q    Type
REMARK                         _______ _______ _______ _____ _____    ______ ____
ROOT
ATOM      1  N   UNL     1      18.356  10.728  38.219  0.00  0.00    +0.000 NA
ENDROOT
BRANCH   1   5
ATOM      2  C   UNL     1      22.452  10.942  37.247  0.00  0.00    +0.000 A 
ATOM      3  C   UNL     1      21.679   9.908  36.776  0.00  0.00    +0.000 A 
ATOM      4  C   UNL     1      20.330   9.846  37.102  0.00  0.00    +0.000 A 
ATOM      5  C   UNL     1      19.723  10.794  37.891  0.00  0.00    +0.000 A 
ATOM      6  C   UNL     1      20.514  11.819  38.351  0.00  0.00    +0.000 A 
ATOM      7  C   UNL     1      21.865  11.899  38.037  0.00  0.00    +0.000 A 
ATOM      8 CL   UNL     1      22.846  13.213  38.635  0.00  0.00    +0.000 Cl
BRANCH   2  10
ATOM      9  C   UNL     1      24.450  10.165  36.053  0.00  0.00    +0.000 C 
ATOM     10  O   UNL     1      23.808  11.051  36.951  0.00  0.00    +0.000 OA
ENDBRANCH   2  10
ENDBRANCH   1   5
BRANCH   1  11
ATOM     11  C   UNL     1      17.489   9.898  37.449  0.00  0.00    +0.000 C 
BRANCH  11  12
ATOM     12  C   UNL     1      16.731  10.630  36.414  0.00  0.00    +0.000 A 
ATOM     13  C   UNL     1      15.833  11.620  36.670  0.00  0.00    +0.000 A 
ATOM     14  C   UNL     1      15.179  12.239  35.618  0.00  0.00    +0.000 A 
ATOM     15  C   UNL     1      15.426  11.865  34.294  0.00  0.00    +0.000 A 
ATOM     16  C   UNL     1      16.341  10.859  34.035  0.00  0.00    +0.000 A 
ATOM     17  C   UNL     1      16.973  10.264  35.094  0.00  0.00    +0.000 A 
ATOM     18  O   UNL     1      17.892   9.250  34.794  0.00  0.00    +0.000 OA
BRANCH  16  19
ATOM     19  O   UNL     1      16.620  10.452  32.718  0.00  0.00    +0.000 OA
ATOM     20  C   UNL     1      15.949  11.024  31.614  0.00  0.00    +0.000 C 
ENDBRANCH  16  19
ENDBRANCH  11  12
ENDBRANCH   1  11
TORSDOF 5
ENDMDL
MODEL 4
REMARK VINA RESULT:      -6.2      1.738      2.498
REMARK  Name = 
REMARK  5 active torsions:
REMARK  status: ('A' for Active; 'I' for Inactive)
REMARK    1  A    between atoms: O_2  and  C_3
REMARK    2  A    between atoms: C_6  and  N_7
REMARK    3  A    between atoms: N_7  and  C_8
REMARK    4  A    between atoms: C_8  and  C_9
REMARK    5  A    between atoms: C_13  and  O_14
REMARK                            x       y       z     vdW  Elec       q    Type
REMARK                         _______ _______ _______ _____ _____    ______ ____
ROOT
ATOM      1  N   UNL     1      17.785  10.454  36.011  0.00  0.00    +0.000 NA
ENDROOT
BRANCH   1   5
ATOM      2  C   UNL     1      18.880   9.301  39.916  0.00  0.00    +0.000 A 
ATOM      3  C   UNL     1      19.823   9.357  38.917  0.00  0.00    +0.000 A 
ATOM      4  C   UNL     1      19.452   9.737  37.633  0.00  0.00    +0.000 A 
ATOM      5  C   UNL     1      18.157  10.068  37.313  0.00  0.00    +0.000 A 
ATOM      6  C   UNL     1      17.231  10.007  38.326  0.00  0.00    +0.000 A 
ATOM      7  C   UNL     1      17.580   9.628  39.616  0.00  0.00    +0.000 A 
ATOM      8 CL   UNL     1      16.383   9.558  40.884  0.00  0.00    +0.000 Cl
BRANCH   2  10
ATOM      9  C   UNL     1      19.467   7.580  41.562  0.00  0.00    +0.000 C 
ATOM     10  O   UNL     1      19.198   8.926  41.217  0.00  0.00    +0.000 OA
ENDBRANCH   2  10
ENDBRANCH   1   5
BRANCH   1  11
ATOM     11  C   UNL     1      16.415  10.734  35.727  0.00  0.00    +0.000 C 
BRANCH  11  12
ATOM     12  C   UNL     1      16.147  10.998  34.299  0.00  0.00    +0.000 A 
ATOM     13  C   UNL     1      16.704  10.306  33.269  0.00  0.00    +0.000 A 
ATOM     14  C   UNL     1      16.380  10.642  31.965  0.00  0.00    +0.000 A 
ATOM     15  C   UNL     1      15.487  11.681  31.688  0.00  0.00    +0.000 A 
ATOM     16  C   UNL     1      14.920  12.383  32.738  0.00  0.00    +0.000 A 
ATOM     17  C   UNL     1      15.260  12.031  34.016  0.00  0.00    +0.000 A 
ATOM     18  O   UNL     1      14.667  12.763  35.053  0.00  0.00    +0.000 OA
BRANCH  16  19
ATOM     19  O   UNL     1      14.018  13.436  32.504  0.00  0.00    +0.000 OA
ATOM     20  C   UNL     1      13.852  13.990  31.215  0.00  0.00    +0.000 C 
ENDBRANCH  16  19
ENDBRANCH  11  12
ENDBRANCH   1  11
TORSDOF 5
ENDMDL
MODEL 5
REMARK VINA RESULT:      -6.1     17.628     19.701
REMARK  Name = 
REMARK  5 active torsions:
REMARK  status: ('A' for Active; 'I' for Inactive)
REMARK    1  A    between atoms: O_2  and  C_3
REMARK    2  A    between atoms: C_6  and  N_7
REMARK    3  A    between atoms: N_7  and  C_8
REMARK    4  A    between atoms: C_8  and  C_9
REMARK    5  A    between atoms: C_13  and  O_14
REMARK                            x       y       z     vdW  Elec       q    Type
REMARK                         _______ _______ _______ _____ _____    ______ ____
ROOT
ATOM      1  N   UNL     1      25.850  23.757  25.721  0.00  0.00    +0.000 NA
ENDROOT
BRANCH   1   5
ATOM      2  C   UNL     1      25.630  24.589  29.848  0.00  0.00    +0.000 A 
ATOM      3  C   UNL     1      26.388  23.537  29.391  0.00  0.00    +0.000 A 
ATOM      4  C   UNL     1      26.454  23.270  28.028  0.00  0.00    +0.000 A 
ATOM      5  C   UNL     1      25.780  24.029  27.101  0.00  0.00    +0.000 A 
ATOM      6  C   UNL     1      25.030  25.076  27.580  0.00  0.00    +0.000 A 
ATOM      7  C   UNL     1      24.950  25.359  28.937  0.00  0.00    +0.000 A 
ATOM      8 CL   UNL     1      23.988  26.694  29.518  0.00  0.00    +0.000 Cl
BRANCH   2  10
ATOM      9  C   UNL     1      26.666  25.233  31.977  0.00  0.00    +0.000 C 
ATOM     10  O   UNL     1      25.530  24.899  31.201  0.00  0.00    +0.000 OA
ENDBRANCH   2  10
ENDBRANCH   1   5
BRANCH   1  11
ATOM     11  C   UNL     1      26.674  22.689  25.258  0.00  0.00    +0.000 C 
BRANCH  11  12
ATOM     12  C   UNL     1      27.998  23.129  24.774  0.00  0.00    +0.000 A 
ATOM     13  C   UNL     1      29.094  23.292  25.564  0.00  0.00    +0.000 A 
ATOM     14  C   UNL     1      30.288  23.710  25.001  0.00  0.00    +0.000 A 
ATOM     15  C   UNL     1      30.388  23.968  23.631  0.00  0.00    +0.000 A 
ATOM     16  C   UNL     1      29.273  23.801  22.828  0.00  0.00    +0.000 A 
ATOM     17  C   UNL     1      28.105  23.388  23.411  0.00  0.00    +0.000 A 
ATOM     18  O   UNL     1      26.998  23.230  22.569  0.00  0.00    +0.000 OA
BRANCH  16  19
ATOM     19  O   UNL     1      29.329  24.050  21.445  0.00  0.00    +0.000 OA
ATOM     20  C   UNL     1      29.282  25.366  20.933  0.00  0.00    +0.000 C 
ENDBRANCH  16  19
ENDBRANCH  11  12
ENDBRANCH   1  11
TORSDOF 5
ENDMDL
MODEL 6
REMARK VINA RESULT:      -6.0     17.409     19.349
REMARK  Name = 
REMARK  5 active torsions:
REMARK  status: ('A' for Active; 'I' for Inactive)
REMARK    1  A    between atoms: O_2  and  C_3
REMARK    2  A    between atoms: C_6  and  N_7
REMARK    3  A    between atoms: N_7  and  C_8
REMARK    4  A    between atoms: C_8  and  C_9
REMARK    5  A    between atoms: C_13  and  O_14
REMARK                            x       y       z     vdW  Elec       q    Type
REMARK                         _______ _______ _______ _____ _____    ______ ____
ROOT
ATOM      1  N   UNL     1      25.512  24.182  25.960  0.00  0.00    +0.000 NA
ENDROOT
BRANCH   1   5
ATOM      2  C   UNL     1      25.847  24.433  30.155  0.00  0.00    +0.000 A 
ATOM      3  C   UNL     1      25.166  25.399  29.453  0.00  0.00    +0.000 A 
ATOM      4  C   UNL     1      25.061  25.308  28.070  0.00  0.00    +0.000 A 
ATOM      5  C   UNL     1      25.620  24.272  27.361  0.00  0.00    +0.000 A 
ATOM      6  C   UNL     1      26.295  23.317  28.082  0.00  0.00    +0.000 A 
ATOM      7  C   UNL     1      26.412  23.390  29.464  0.00  0.00    +0.000 A 
ATOM      8 CL   UNL     1      27.276  22.163  30.355  0.00  0.00    +0.000 Cl
BRANCH   2  10
ATOM      9  C   UNL     1      26.694  25.513  32.188  0.00  0.00    +0.000 C 
ATOM     10  O   UNL     1      25.982  24.477  31.539  0.00  0.00    +0.000 OA
ENDBRANCH   2  10
ENDBRANCH   1   5
BRANCH   1  11
ATOM     11  C   UNL     1      26.006  23.024  25.291  0.00  0.00    +0.000 C 
BRANCH  11  12
ATOM     12  C   UNL     1      26.936  23.328  24.185  0.00  0.00    +0.000 A 
ATOM     13  C   UNL     1      26.553  23.745  22.948  0.00  0.00    +0.000 A 
ATOM     14  C   UNL     1      27.515  24.002  21.984  0.00  0.00    +0.000 A 
ATOM     15  C   UNL     1      28.875  23.841  22.262  0.00  0.00    +0.000 A 
ATOM     16  C   UNL     1      29.262  23.417  23.521  0.00  0.00    +0.000 A 
ATOM     17  C   UNL     1      28.292  23.170  24.454  0.00  0.00    +0.000 A 
ATOM     18  O   UNL     1      28.721  22.743  25.717  0.00  0.00    +0.000 OA
BRANCH  16  19
ATOM     19  O   UNL     1      30.621  23.242  23.843  0.00  0.00    +0.000 OA
ATOM     20  C   UNL     1      31.400  24.307  24.346  0.00  0.00    +0.000 C 
ENDBRANCH  16  19
ENDBRANCH  11  12
ENDBRANCH   1  11
TORSDOF 5
ENDMDL
MODEL 7
REMARK VINA RESULT:      -6.0     17.625     19.522
REMARK  Name = 
REMARK  5 active torsions:
REMARK  status: ('A' for Active; 'I' for Inactive)
REMARK    1  A    between atoms: O_2  and  C_3
REMARK    2  A    between atoms: C_6  and  N_7
REMARK    3  A    between atoms: N_7  and  C_8
REMARK    4  A    between atoms: C_8  and  C_9
REMARK    5  A    between atoms: C_13  and  O_14
REMARK                            x       y       z     vdW  Elec       q    Type
REMARK                         _______ _______ _______ _____ _____    ______ ____
ROOT
ATOM      1  N   UNL     1      27.978  22.124  26.863  0.00  0.00    +0.000 NA
ENDROOT
BRANCH   1   5
ATOM      2  C   UNL     1      26.818  24.038  30.435  0.00  0.00    +0.000 A 
ATOM      3  C   UNL     1      25.939  23.939  29.383  0.00  0.00    +0.000 A 
ATOM      4  C   UNL     1      26.331  23.306  28.209  0.00  0.00    +0.000 A 
ATOM      5  C   UNL     1      27.585  22.765  28.053  0.00  0.00    +0.000 A 
ATOM      6  C   UNL     1      28.447  22.875  29.118  0.00  0.00    +0.000 A 
ATOM      7  C   UNL     1      28.075  23.504  30.299  0.00  0.00    +0.000 A 
ATOM      8 CL   UNL     1      29.191  23.630  31.635  0.00  0.00    +0.000 Cl
BRANCH   2  10
ATOM      9  C   UNL     1      25.649  25.810  31.666  0.00  0.00    +0.000 C 
ATOM     10  O   UNL     1      26.476  24.662  31.632  0.00  0.00    +0.000 OA
ENDBRANCH   2  10
ENDBRANCH   1   5
BRANCH   1  11
ATOM     11  C   UNL     1      28.818  22.814  25.940  0.00  0.00    +0.000 C 
BRANCH  11  12
ATOM     12  C   UNL     1      28.145  23.161  24.671  0.00  0.00    +0.000 A 
ATOM     13  C   UNL     1      26.796  23.182  24.494  0.00  0.00    +0.000 A 
ATOM     14  C   UNL     1      26.274  23.523  23.257  0.00  0.00    +0.000 A 
ATOM     15  C   UNL     1      27.110  23.848  22.186  0.00  0.00    +0.000 A 
ATOM     16  C   UNL     1      28.482  23.828  22.369  0.00  0.00    +0.000 A 
ATOM     17  C   UNL     1      28.971  23.486  23.600  0.00  0.00    +0.000 A 
ATOM     18  O   UNL     1      30.364  23.476  23.749  0.00  0.00    +0.000 OA
BRANCH  16  19
ATOM     19  O   UNL     1      29.360  24.148  21.317  0.00  0.00    +0.000 OA
ATOM     20  C   UNL     1      29.411  25.451  20.773  0.00  0.00    +0.000 C 
ENDBRANCH  16  19
ENDBRANCH  11  12
ENDBRANCH   1  11
TORSDOF 5
ENDMDL
MODEL 8
REMARK VINA RESULT:      -6.0     21.878     25.132
REMARK  Name = 
REMARK  5 active torsions:
REMARK  status: ('A' for Active; 'I' for Inactive)
REMARK    1  A    between atoms: O_2  and  C_3
REMARK    2  A    between atoms: C_6  and  N_7
REMARK    3  A    between atoms: N_7  and  C_8
REMARK    4  A    between atoms: C_8  and  C_9
REMARK    5  A    between atoms: C_13  and  O_14
REMARK                            x       y       z     vdW  Elec       q    Type
REMARK                         _______ _______ _______ _____ _____    ______ ____
ROOT
ATOM      1  N   UNL     1      33.339  -5.325  32.924  0.00  0.00    +0.000 NA
ENDROOT
BRANCH   1   5
ATOM      2  C   UNL     1      32.662  -1.742  35.039  0.00  0.00    +0.000 A 
ATOM      3  C   UNL     1      32.151  -2.930  35.504  0.00  0.00    +0.000 A 
ATOM      4  C   UNL     1      32.379  -4.106  34.800  0.00  0.00    +0.000 A 
ATOM      5  C   UNL     1      33.109  -4.132  33.635  0.00  0.00    +0.000 A 
ATOM      6  C   UNL     1      33.611  -2.933  33.189  0.00  0.00    +0.000 A 
ATOM      7  C   UNL     1      33.394  -1.747  33.877  0.00  0.00    +0.000 A 
ATOM      8 CL   UNL     1      34.043  -0.238  33.288  0.00  0.00    +0.000 Cl
BRANCH   2  10
ATOM      9  C   UNL     1      33.129  -0.233  36.917  0.00  0.00    +0.000 C 
ATOM     10  O   UNL     1      32.463  -0.536  35.705  0.00  0.00    +0.000 OA
ENDBRANCH   2  10
ENDBRANCH   1   5
BRANCH   1  11
ATOM     11  C   UNL     1      34.555  -5.484  32.196  0.00  0.00    +0.000 C 
BRANCH  11  12
ATOM     12  C   UNL     1      34.360  -5.958  30.811  0.00  0.00    +0.000 A 
ATOM     13  C   UNL     1      33.648  -5.293  29.861  0.00  0.00    +0.000 A 
ATOM     14  C   UNL     1      33.531  -5.833  28.591  0.00  0.00    +0.000 A 
ATOM     15  C   UNL     1      34.133  -7.052  28.267  0.00  0.00    +0.000 A 
ATOM     16  C   UNL     1      34.858  -7.726  29.234  0.00  0.00    +0.000 A 
ATOM     17  C   UNL     1      34.957  -7.171  30.481  0.00  0.00    +0.000 A 
ATOM     18  O   UNL     1      35.697  -7.881  31.435  0.00  0.00    +0.000 OA
BRANCH  16  19
ATOM     19  O   UNL     1      35.479  -8.956  28.951  0.00  0.00    +0.000 OA
ATOM     20  C   UNL     1      34.724 -10.136  28.766  0.00  0.00    +0.000 C 
ENDBRANCH  16  19
ENDBRANCH  11  12
ENDBRANCH   1  11
TORSDOF 5
ENDMDL
MODEL 9
REMARK VINA RESULT:      -5.8     18.827     21.467
REMARK  Name = 
REMARK  5 active torsions:
REMARK  status: ('A' for Active; 'I' for Inactive)
REMARK    1  A    between atoms: O_2  and  C_3
REMARK    2  A    between atoms: C_6  and  N_7
REMARK    3  A    between atoms: N_7  and  C_8
REMARK    4  A    between atoms: C_8  and  C_9
REMARK    5  A    between atoms: C_13  and  O_14
REMARK                            x       y       z     vdW  Elec       q    Type
REMARK                         _______ _______ _______ _____ _____    ______ ____
ROOT
ATOM      1  N   UNL     1      29.315  23.072  23.820  0.00  0.00    +0.000 NA
ENDROOT
BRANCH   1   5
ATOM      2  C   UNL     1      28.629  22.568  27.949  0.00  0.00    +0.000 A 
ATOM      3  C   UNL     1      27.581  22.818  27.095  0.00  0.00    +0.000 A 
ATOM      4  C   UNL     1      27.817  22.983  25.736  0.00  0.00    +0.000 A 
ATOM      5  C   UNL     1      29.079  22.905  25.198  0.00  0.00    +0.000 A 
ATOM      6  C   UNL     1      30.112  22.654  26.068  0.00  0.00    +0.000 A 
ATOM      7  C   UNL     1      29.898  22.487  27.430  0.00  0.00    +0.000 A 
ATOM      8 CL   UNL     1      31.229  22.169  28.514  0.00  0.00    +0.000 Cl
BRANCH   2  10
ATOM      9  C   UNL     1      27.184  22.076  29.869  0.00  0.00    +0.000 C 
ATOM     10  O   UNL     1      28.447  22.396  29.318  0.00  0.00    +0.000 OA
ENDBRANCH   2  10
ENDBRANCH   1   5
BRANCH   1  11
ATOM     11  C   UNL     1      28.245  23.478  22.969  0.00  0.00    +0.000 C 
BRANCH  11  12
ATOM     12  C   UNL     1      28.300  24.902  22.584  0.00  0.00    +0.000 A 
ATOM     13  C   UNL     1      27.640  25.902  23.229  0.00  0.00    +0.000 A 
ATOM     14  C   UNL     1      27.765  27.206  22.779  0.00  0.00    +0.000 A 
ATOM     15  C   UNL     1      28.560  27.514  21.671  0.00  0.00    +0.000 A 
ATOM     16  C   UNL     1      29.231  26.495  21.016  0.00  0.00    +0.000 A 
ATOM     17  C   UNL     1      29.089  25.216  21.482  0.00  0.00    +0.000 A 
ATOM     18  O   UNL     1      29.782  24.211  20.795  0.00  0.00    +0.000 OA
BRANCH  16  19
ATOM     19  O   UNL     1      30.040  26.760  19.897  0.00  0.00    +0.000 OA
ATOM     20  C   UNL     1      29.744  27.820  19.010  0.00  0.00    +0.000 C 
ENDBRANCH  16  19
ENDBRANCH  11  12
ENDBRANCH   1  11
TORSDOF 5
ENDMDL
MODEL 10
REMARK VINA RESULT:      -5.8      2.534      4.548
REMARK  Name = 
REMARK  5 active torsions:
REMARK  status: ('A' for Active; 'I' for Inactive)
REMARK    1  A    between atoms: O_2  and  C_3
REMARK    2  A    between atoms: C_6  and  N_7
REMARK    3  A    between atoms: N_7  and  C_8
REMARK    4  A    between atoms: C_8  and  C_9
REMARK    5  A    between atoms: C_13  and  O_14
REMARK                            x       y       z     vdW  Elec       q    Type
REMARK                         _______ _______ _______ _____ _____    ______ ____
ROOT
ATOM      1  N   UNL     1      19.176   9.950  38.958  0.00  0.00    +0.000 NA
ENDROOT
BRANCH   1   5
ATOM      2  C   UNL     1      17.603   6.663  41.078  0.00  0.00    +0.000 A 
ATOM      3  C   UNL     1      18.859   6.595  40.523  0.00  0.00    +0.000 A 
ATOM      4  C   UNL     1      19.369   7.684  39.826  0.00  0.00    +0.000 A 
ATOM      5  C   UNL     1      18.656   8.848  39.665  0.00  0.00    +0.000 A 
ATOM      6  C   UNL     1      17.404   8.894  40.228  0.00  0.00    +0.000 A 
ATOM      7  C   UNL     1      16.875   7.817  40.928  0.00  0.00    +0.000 A 
ATOM      8 CL   UNL     1      15.281   7.903  41.633  0.00  0.00    +0.000 Cl
BRANCH   2  10
ATOM      9  C   UNL     1      17.847   4.665  42.481  0.00  0.00    +0.000 C 
ATOM     10  O   UNL     1      17.046   5.601  41.784  0.00  0.00    +0.000 OA
ENDBRANCH   2  10
ENDBRANCH   1   5
BRANCH   1  11
ATOM     11  C   UNL     1      18.280  10.880  38.352  0.00  0.00    +0.000 C 
BRANCH  11  12
ATOM     12  C   UNL     1      17.911  10.530  36.965  0.00  0.00    +0.000 A 
ATOM     13  C   UNL     1      18.399   9.458  36.284  0.00  0.00    +0.000 A 
ATOM     14  C   UNL     1      17.982   9.226  34.984  0.00  0.00    +0.000 A 
ATOM     15  C   UNL     1      17.064  10.075  34.358  0.00  0.00    +0.000 A 
ATOM     16  C   UNL     1      16.568  11.164  35.053  0.00  0.00    +0.000 A 
ATOM     17  C   UNL     1      16.998  11.370  36.336  0.00  0.00    +0.000 A 
ATOM     18  O   UNL     1      16.474  12.482  37.009  0.00  0.00    +0.000 OA
BRANCH  16  19
ATOM     19  O   UNL     1      15.643  12.044  34.462  0.00  0.00    +0.000 OA
ATOM     20  C   UNL     1      15.188  11.850  33.138  0.00  0.00    +0.000 C 
ENDBRANCH  16  19
ENDBRANCH  11  12
ENDBRANCH   1  11
TORSDOF 5
ENDMDL
