MODEL 1
REMARK VINA RESULT:      -7.9      0.000      0.000
REMARK  Name = 
REMARK  3 active torsions:
REMARK  status: ('A' for Active; 'I' for Inactive)
REMARK    1  A    between atoms: C_2  and  C_3
REMARK    2  A    between atoms: C_8  and  N_9
REMARK    3  A    between atoms: C_10  and  C_12
REMARK                            x       y       z     vdW  Elec       q    Type
REMARK                         _______ _______ _______ _____ _____    ______ ____
ROOT
ATOM      1  N   UNL     1      14.694  11.916  34.259  0.00  0.00    +0.000 NA
ATOM      2  C   UNL     1      15.780  11.915  35.155  0.00  0.00    +0.000 C 
ATOM      3  O   UNL     1      16.883  12.376  34.798  0.00  0.00    +0.000 OA
ENDROOT
BRANCH   2   4
ATOM      4  C   UNL     1      15.648  11.372  36.532  0.00  0.00    +0.000 A 
ATOM      5  S   UNL     1      16.829  10.613  37.497  0.00  0.00    +0.000 S 
ATOM      6  C   UNL     1      15.885  10.309  38.882  0.00  0.00    +0.000 A 
ATOM      7  C   UNL     1      14.656  10.816  38.547  0.00  0.00    +0.000 A 
ATOM      8  C   UNL     1      14.548  11.365  37.324  0.00  0.00    +0.000 A 
ATOM      9  C   UNL     1      13.182  11.921  36.973  0.00  0.00    +0.000 C 
ATOM     10  C   UNL     1      12.201  10.816  37.273  0.00  0.00    +0.000 C 
ATOM     11  C   UNL     1      12.211  10.393  38.705  0.00  0.00    +0.000 C 
ATOM     12  C   UNL     1      13.437  10.794  39.457  0.00  0.00    +0.000 C 
ENDBRANCH   2   4
BRANCH   1  18
ATOM     13  C   UNL     1      14.218  13.634  32.581  0.00  0.00    +0.000 A 
ATOM     14  C   UNL     1      14.368  14.066  31.262  0.00  0.00    +0.000 A 
ATOM     15  C   UNL     1      15.055  13.357  30.323  0.00  0.00    +0.000 A 
ATOM     16  C   UNL     1      15.629  12.159  30.687  0.00  0.00    +0.000 A 
ATOM     17  C   UNL     1      15.493  11.721  31.975  0.00  0.00    +0.000 A 
ATOM     18  C   UNL     1      14.799  12.435  32.923  0.00  0.00    +0.000 A 
BRANCH  13  20
ATOM     19  N   UNL     1      12.911  15.016  34.323  0.00  0.00    +0.000 NA
ATOM     20  C   UNL     1      13.488  14.403  33.551  0.00  0.00    +0.000 C 
ENDBRANCH  13  20
ENDBRANCH   1  18
TORSDOF 3
ENDMDL
MODEL 2
REMARK VINA RESULT:      -7.4      1.448      2.782
REMARK  Name = 
REMARK  3 active torsions:
REMARK  status: ('A' for Active; 'I' for Inactive)
REMARK    1  A    between atoms: C_2  and  C_3
REMARK    2  A    between atoms: C_8  and  N_9
REMARK    3  A    between atoms: C_10  and  C_12
REMARK                            x       y       z     vdW  Elec       q    Type
REMARK                         _______ _______ _______ _____ _____    ______ ____
ROOT
ATOM      1  N   UNL     1      14.830  11.715  34.387  0.00  0.00    +0.000 NA
ATOM      2  C   UNL     1      15.902  11.839  35.291  0.00  0.00    +0.000 C 
ATOM      3  O   UNL     1      16.957  12.402  34.934  0.00  0.00    +0.000 OA
ENDROOT
BRANCH   2   4
ATOM      4  C   UNL     1      15.811  11.311  36.677  0.00  0.00    +0.000 A 
ATOM      5  S   UNL     1      14.482  11.333  37.743  0.00  0.00    +0.000 S 
ATOM      6  C   UNL     1      15.197  10.550  39.076  0.00  0.00    +0.000 A 
ATOM      7  C   UNL     1      16.473  10.289  38.645  0.00  0.00    +0.000 A 
ATOM      8  C   UNL     1      16.777  10.689  37.397  0.00  0.00    +0.000 A 
ATOM      9  C   UNL     1      18.190  10.390  36.939  0.00  0.00    +0.000 C 
ATOM     10  C   UNL     1      19.093  10.919  38.025  0.00  0.00    +0.000 C 
ATOM     11  C   UNL     1      18.855  10.277  39.352  0.00  0.00    +0.000 C 
ATOM     12  C   UNL     1      17.537   9.589  39.476  0.00  0.00    +0.000 C 
ENDBRANCH   2   4
BRANCH   1  18
ATOM     13  C   UNL     1      14.295  13.407  32.699  0.00  0.00    +0.000 A 
ATOM     14  C   UNL     1      14.407  13.824  31.371  0.00  0.00    +0.000 A 
ATOM     15  C   UNL     1      15.077  13.109  30.424  0.00  0.00    +0.000 A 
ATOM     16  C   UNL     1      15.672  11.922  30.789  0.00  0.00    +0.000 A 
ATOM     17  C   UNL     1      15.573  11.499  32.086  0.00  0.00    +0.000 A 
ATOM     18  C   UNL     1      14.896  12.219  33.042  0.00  0.00    +0.000 A 
BRANCH  13  20
ATOM     19  N   UNL     1      13.018  14.798  34.457  0.00  0.00    +0.000 NA
ATOM     20  C   UNL     1      13.582  14.182  33.678  0.00  0.00    +0.000 C 
ENDBRANCH  13  20
ENDBRANCH   1  18
TORSDOF 3
ENDMDL
MODEL 3
REMARK VINA RESULT:      -6.9     20.676     22.489
REMARK  Name = 
REMARK  3 active torsions:
REMARK  status: ('A' for Active; 'I' for Inactive)
REMARK    1  A    between atoms: C_2  and  C_3
REMARK    2  A    between atoms: C_8  and  N_9
REMARK    3  A    between atoms: C_10  and  C_12
REMARK                            x       y       z     vdW  Elec       q    Type
REMARK                         _______ _______ _______ _____ _____    ______ ____
ROOT
ATOM      1  N   UNL     1      33.003   0.354  35.421  0.00  0.00    +0.000 NA
ATOM      2  C   UNL     1      34.067   0.884  36.176  0.00  0.00    +0.000 C 
ATOM      3  O   UNL     1      35.033   0.159  36.487  0.00  0.00    +0.000 OA
ENDROOT
BRANCH   2   4
ATOM      4  C   UNL     1      34.070   2.302  36.620  0.00  0.00    +0.000 A 
ATOM      5  S   UNL     1      34.067   2.924  38.207  0.00  0.00    +0.000 S 
ATOM      6  C   UNL     1      34.074   4.588  37.840  0.00  0.00    +0.000 A 
ATOM      7  C   UNL     1      34.078   4.611  36.469  0.00  0.00    +0.000 A 
ATOM      8  C   UNL     1      34.077   3.417  35.849  0.00  0.00    +0.000 A 
ATOM      9  C   UNL     1      34.083   3.465  34.334  0.00  0.00    +0.000 C 
ATOM     10  C   UNL     1      32.959   4.394  33.950  0.00  0.00    +0.000 C 
ATOM     11  C   UNL     1      33.127   5.776  34.490  0.00  0.00    +0.000 C 
ATOM     12  C   UNL     1      34.086   5.879  35.630  0.00  0.00    +0.000 C 
ENDBRANCH   2   4
BRANCH   1  18
ATOM     13  C   UNL     1      33.534  -1.382  33.778  0.00  0.00    +0.000 A 
ATOM     14  C   UNL     1      33.468  -2.732  33.427  0.00  0.00    +0.000 A 
ATOM     15  C   UNL     1      32.885  -3.676  34.218  0.00  0.00    +0.000 A 
ATOM     16  C   UNL     1      32.336  -3.286  35.419  0.00  0.00    +0.000 A 
ATOM     17  C   UNL     1      32.392  -1.968  35.780  0.00  0.00    +0.000 A 
ATOM     18  C   UNL     1      32.979  -1.014  34.982  0.00  0.00    +0.000 A 
BRANCH  13  20
ATOM     19  N   UNL     1      34.650   0.369  32.249  0.00  0.00    +0.000 NA
ATOM     20  C   UNL     1      34.155  -0.407  32.924  0.00  0.00    +0.000 C 
ENDBRANCH  13  20
ENDBRANCH   1  18
TORSDOF 3
ENDMDL
MODEL 4
REMARK VINA RESULT:      -6.4      3.495      7.048
REMARK  Name = 
REMARK  3 active torsions:
REMARK  status: ('A' for Active; 'I' for Inactive)
REMARK    1  A    between atoms: C_2  and  C_3
REMARK    2  A    between atoms: C_8  and  N_9
REMARK    3  A    between atoms: C_10  and  C_12
REMARK                            x       y       z     vdW  Elec       q    Type
REMARK                         _______ _______ _______ _____ _____    ______ ____
ROOT
ATOM      1  N   UNL     1      18.179  11.171  37.633  0.00  0.00    +0.000 NA
ATOM      2  C   UNL     1      17.328  10.584  36.677  0.00  0.00    +0.000 C 
ATOM      3  O   UNL     1      17.509   9.401  36.325  0.00  0.00    +0.000 OA
ENDROOT
BRANCH   2   4
ATOM      4  C   UNL     1      16.207  11.344  36.068  0.00  0.00    +0.000 A 
ATOM      5  S   UNL     1      14.851  12.041  36.829  0.00  0.00    +0.000 S 
ATOM      6  C   UNL     1      14.087  12.703  35.458  0.00  0.00    +0.000 A 
ATOM      7  C   UNL     1      14.924  12.355  34.429  0.00  0.00    +0.000 A 
ATOM      8  C   UNL     1      16.021  11.651  34.760  0.00  0.00    +0.000 A 
ATOM      9  C   UNL     1      16.933  11.278  33.609  0.00  0.00    +0.000 C 
ATOM     10  C   UNL     1      16.044  10.639  32.572  0.00  0.00    +0.000 C 
ATOM     11  C   UNL     1      14.969  11.549  32.078  0.00  0.00    +0.000 C 
ATOM     12  C   UNL     1      14.689  12.714  32.969  0.00  0.00    +0.000 C 
ENDBRANCH   2   4
BRANCH   1  18
ATOM     13  C   UNL     1      19.083   9.701  39.371  0.00  0.00    +0.000 A 
ATOM     14  C   UNL     1      20.195   9.037  39.891  0.00  0.00    +0.000 A 
ATOM     15  C   UNL     1      21.433   9.107  39.325  0.00  0.00    +0.000 A 
ATOM     16  C   UNL     1      21.598   9.866  38.188  0.00  0.00    +0.000 A 
ATOM     17  C   UNL     1      20.519  10.524  37.664  0.00  0.00    +0.000 A 
ATOM     18  C   UNL     1      19.270  10.454  38.235  0.00  0.00    +0.000 A 
BRANCH  13  20
ATOM     19  N   UNL     1      16.760   9.539  40.479  0.00  0.00    +0.000 NA
ATOM     20  C   UNL     1      17.788   9.609  39.989  0.00  0.00    +0.000 C 
ENDBRANCH  13  20
ENDBRANCH   1  18
TORSDOF 3
ENDMDL
MODEL 5
REMARK VINA RESULT:      -6.2     18.920     20.418
REMARK  Name = 
REMARK  3 active torsions:
REMARK  status: ('A' for Active; 'I' for Inactive)
REMARK    1  A    between atoms: C_2  and  C_3
REMARK    2  A    between atoms: C_8  and  N_9
REMARK    3  A    between atoms: C_10  and  C_12
REMARK                            x       y       z     vdW  Elec       q    Type
REMARK                         _______ _______ _______ _____ _____    ______ ____
ROOT
ATOM      1  N   UNL     1      28.734  22.281  27.012  0.00  0.00    +0.000 NA
ATOM      2  C   UNL     1      29.062  23.205  28.022  0.00  0.00    +0.000 C 
ATOM      3  O   UNL     1      28.791  24.413  27.874  0.00  0.00    +0.000 OA
ENDROOT
BRANCH   2   4
ATOM      4  C   UNL     1      29.734  22.775  29.276  0.00  0.00    +0.000 A 
ATOM      5  S   UNL     1      29.093  22.680  30.852  0.00  0.00    +0.000 S 
ATOM      6  C   UNL     1      30.476  22.114  31.669  0.00  0.00    +0.000 A 
ATOM      7  C   UNL     1      31.414  22.014  30.673  0.00  0.00    +0.000 A 
ATOM      8  C   UNL     1      31.014  22.360  29.436  0.00  0.00    +0.000 A 
ATOM      9  C   UNL     1      32.065  22.240  28.350  0.00  0.00    +0.000 C 
ATOM     10  C   UNL     1      33.274  22.978  28.868  0.00  0.00    +0.000 C 
ATOM     11  C   UNL     1      33.810  22.410  30.141  0.00  0.00    +0.000 C 
ATOM     12  C   UNL     1      32.846  21.545  30.882  0.00  0.00    +0.000 C 
ENDBRANCH   2   4
BRANCH   1  18
ATOM     13  C   UNL     1      28.815  22.953  24.659  0.00  0.00    +0.000 A 
ATOM     14  C   UNL     1      28.106  23.329  23.516  0.00  0.00    +0.000 A 
ATOM     15  C   UNL     1      26.748  23.427  23.484  0.00  0.00    +0.000 A 
ATOM     16  C   UNL     1      26.037  23.143  24.629  0.00  0.00    +0.000 A 
ATOM     17  C   UNL     1      26.714  22.773  25.758  0.00  0.00    +0.000 A 
ATOM     18  C   UNL     1      28.085  22.675  25.791  0.00  0.00    +0.000 A 
BRANCH  13  20
ATOM     19  N   UNL     1      31.388  22.785  24.668  0.00  0.00    +0.000 NA
ATOM     20  C   UNL     1      30.249  22.858  24.664  0.00  0.00    +0.000 C 
ENDBRANCH  13  20
ENDBRANCH   1  18
TORSDOF 3
ENDMDL
MODEL 6
REMARK VINA RESULT:      -6.2     17.801     19.554
REMARK  Name = 
REMARK  3 active torsions:
REMARK  status: ('A' for Active; 'I' for Inactive)
REMARK    1  A    between atoms: C_2  and  C_3
REMARK    2  A    between atoms: C_8  and  N_9
REMARK    3  A    between atoms: C_10  and  C_12
REMARK                            x       y       z     vdW  Elec       q    Type
REMARK                         _______ _______ _______ _____ _____    ______ ____
ROOT
ATOM      1  N   UNL     1      28.360  22.247  29.013  0.00  0.00    +0.000 NA
ATOM      2  C   UNL     1      29.516  22.920  29.452  0.00  0.00    +0.000 C 
ATOM      3  O   UNL     1      29.846  24.002  28.926  0.00  0.00    +0.000 OA
ENDROOT
BRANCH   2   4
ATOM      4  C   UNL     1      30.367  22.369  30.539  0.00  0.00    +0.000 A 
ATOM      5  S   UNL     1      29.975  22.120  32.178  0.00  0.00    +0.000 S 
ATOM      6  C   UNL     1      31.460  21.477  32.712  0.00  0.00    +0.000 A 
ATOM      7  C   UNL     1      32.231  21.475  31.578  0.00  0.00    +0.000 A 
ATOM      8  C   UNL     1      31.650  21.941  30.457  0.00  0.00    +0.000 A 
ATOM      9  C   UNL     1      32.519  21.929  29.215  0.00  0.00    +0.000 C 
ATOM     10  C   UNL     1      33.804  22.613  29.608  0.00  0.00    +0.000 C 
ATOM     11  C   UNL     1      34.521  21.923  30.721  0.00  0.00    +0.000 C 
ATOM     12  C   UNL     1      33.670  20.988  31.516  0.00  0.00    +0.000 C 
ENDBRANCH   2   4
BRANCH   1  18
ATOM     13  C   UNL     1      26.419  23.531  28.248  0.00  0.00    +0.000 A 
ATOM     14  C   UNL     1      25.661  23.990  27.169  0.00  0.00    +0.000 A 
ATOM     15  C   UNL     1      25.970  23.708  25.873  0.00  0.00    +0.000 A 
ATOM     16  C   UNL     1      27.080  22.937  25.609  0.00  0.00    +0.000 A 
ATOM     17  C   UNL     1      27.835  22.479  26.654  0.00  0.00    +0.000 A 
ATOM     18  C   UNL     1      27.524  22.761  27.962  0.00  0.00    +0.000 A 
BRANCH  13  20
ATOM     19  N   UNL     1      25.793  24.088  30.687  0.00  0.00    +0.000 NA
ATOM     20  C   UNL     1      26.070  23.843  29.607  0.00  0.00    +0.000 C 
ENDBRANCH  13  20
ENDBRANCH   1  18
TORSDOF 3
ENDMDL
MODEL 7
REMARK VINA RESULT:      -6.2     21.877     25.300
REMARK  Name = 
REMARK  3 active torsions:
REMARK  status: ('A' for Active; 'I' for Inactive)
REMARK    1  A    between atoms: C_2  and  C_3
REMARK    2  A    between atoms: C_8  and  N_9
REMARK    3  A    between atoms: C_10  and  C_12
REMARK                            x       y       z     vdW  Elec       q    Type
REMARK                         _______ _______ _______ _____ _____    ______ ____
ROOT
ATOM      1  N   UNL     1      29.283  25.738  22.726  0.00  0.00    +0.000 NA
ATOM      2  C   UNL     1      29.248  25.778  21.319  0.00  0.00    +0.000 C 
ATOM      3  O   UNL     1      29.719  24.832  20.657  0.00  0.00    +0.000 OA
ENDROOT
BRANCH   2   4
ATOM      4  C   UNL     1      28.658  26.931  20.592  0.00  0.00    +0.000 A 
ATOM      5  S   UNL     1      27.131  27.658  20.802  0.00  0.00    +0.000 S 
ATOM      6  C   UNL     1      27.248  28.871  19.612  0.00  0.00    +0.000 A 
ATOM      7  C   UNL     1      28.493  28.671  19.074  0.00  0.00    +0.000 A 
ATOM      8  C   UNL     1      29.214  27.661  19.594  0.00  0.00    +0.000 A 
ATOM      9  C   UNL     1      30.588  27.457  18.987  0.00  0.00    +0.000 C 
ATOM     10  C   UNL     1      30.373  27.397  17.496  0.00  0.00    +0.000 C 
ATOM     11  C   UNL     1      29.765  28.642  16.939  0.00  0.00    +0.000 C 
ATOM     12  C   UNL     1      29.093  29.506  17.954  0.00  0.00    +0.000 C 
ENDBRANCH   2   4
BRANCH   1  18
ATOM     13  C   UNL     1      29.109  23.504  23.713  0.00  0.00    +0.000 A 
ATOM     14  C   UNL     1      29.736  22.477  24.422  0.00  0.00    +0.000 A 
ATOM     15  C   UNL     1      31.026  22.554  24.853  0.00  0.00    +0.000 A 
ATOM     16  C   UNL     1      31.749  23.694  24.579  0.00  0.00    +0.000 A 
ATOM     17  C   UNL     1      31.152  24.709  23.885  0.00  0.00    +0.000 A 
ATOM     18  C   UNL     1      29.849  24.633  23.450  0.00  0.00    +0.000 A 
BRANCH  13  20
ATOM     19  N   UNL     1      26.664  23.308  22.917  0.00  0.00    +0.000 NA
ATOM     20  C   UNL     1      27.746  23.396  23.270  0.00  0.00    +0.000 C 
ENDBRANCH  13  20
ENDBRANCH   1  18
TORSDOF 3
ENDMDL
MODEL 8
REMARK VINA RESULT:      -6.1     22.662     24.679
REMARK  Name = 
REMARK  3 active torsions:
REMARK  status: ('A' for Active; 'I' for Inactive)
REMARK    1  A    between atoms: C_2  and  C_3
REMARK    2  A    between atoms: C_8  and  N_9
REMARK    3  A    between atoms: C_10  and  C_12
REMARK                            x       y       z     vdW  Elec       q    Type
REMARK                         _______ _______ _______ _____ _____    ______ ____
ROOT
ATOM      1  N   UNL     1      21.408  -8.025  25.644  0.00  0.00    +0.000 NA
ATOM      2  C   UNL     1      21.423  -8.750  24.438  0.00  0.00    +0.000 C 
ATOM      3  O   UNL     1      20.371  -8.891  23.782  0.00  0.00    +0.000 OA
ENDROOT
BRANCH   2   4
ATOM      4  C   UNL     1      22.673  -9.362  23.917  0.00  0.00    +0.000 A 
ATOM      5  S   UNL     1      23.143 -10.999  23.924  0.00  0.00    +0.000 S 
ATOM      6  C   UNL     1      24.659 -10.844  23.162  0.00  0.00    +0.000 A 
ATOM      7  C   UNL     1      24.757  -9.497  22.921  0.00  0.00    +0.000 A 
ATOM      8  C   UNL     1      23.718  -8.740  23.318  0.00  0.00    +0.000 A 
ATOM      9  C   UNL     1      23.845  -7.256  23.041  0.00  0.00    +0.000 C 
ATOM     10  C   UNL     1      25.188  -6.850  23.594  0.00  0.00    +0.000 C 
ATOM     11  C   UNL     1      26.329  -7.572  22.957  0.00  0.00    +0.000 C 
ATOM     12  C   UNL     1      25.944  -8.827  22.246  0.00  0.00    +0.000 C 
ENDBRANCH   2   4
BRANCH   1  18
ATOM     13  C   UNL     1      19.356  -8.139  26.976  0.00  0.00    +0.000 A 
ATOM     14  C   UNL     1      18.215  -7.482  27.441  0.00  0.00    +0.000 A 
ATOM     15  C   UNL     1      17.925  -6.188  27.127  0.00  0.00    +0.000 A 
ATOM     16  C   UNL     1      18.794  -5.493  26.316  0.00  0.00    +0.000 A 
ATOM     17  C   UNL     1      19.917  -6.120  25.852  0.00  0.00    +0.000 A 
ATOM     18  C   UNL     1      20.210  -7.426  26.167  0.00  0.00    +0.000 A 
BRANCH  13  20
ATOM     19  N   UNL     1      19.861 -10.589  27.601  0.00  0.00    +0.000 NA
ATOM     20  C   UNL     1      19.637  -9.505  27.323  0.00  0.00    +0.000 C 
ENDBRANCH  13  20
ENDBRANCH   1  18
TORSDOF 3
ENDMDL
MODEL 9
REMARK VINA RESULT:      -6.1     19.903     22.072
REMARK  Name = 
REMARK  3 active torsions:
REMARK  status: ('A' for Active; 'I' for Inactive)
REMARK    1  A    between atoms: C_2  and  C_3
REMARK    2  A    between atoms: C_8  and  N_9
REMARK    3  A    between atoms: C_10  and  C_12
REMARK                            x       y       z     vdW  Elec       q    Type
REMARK                         _______ _______ _______ _____ _____    ______ ____
ROOT
ATOM      1  N   UNL     1      29.247  24.274  24.714  0.00  0.00    +0.000 NA
ATOM      2  C   UNL     1      30.239  23.337  25.057  0.00  0.00    +0.000 C 
ATOM      3  O   UNL     1      30.032  22.118  24.884  0.00  0.00    +0.000 OA
ENDROOT
BRANCH   2   4
ATOM      4  C   UNL     1      31.543  23.763  25.628  0.00  0.00    +0.000 A 
ATOM      5  S   UNL     1      32.872  24.478  24.838  0.00  0.00    +0.000 S 
ATOM      6  C   UNL     1      33.919  24.642  26.172  0.00  0.00    +0.000 A 
ATOM      7  C   UNL     1      33.190  24.125  27.213  0.00  0.00    +0.000 A 
ATOM      8  C   UNL     1      31.958  23.673  26.916  0.00  0.00    +0.000 A 
ATOM      9  C   UNL     1      31.170  23.108  28.080  0.00  0.00    +0.000 C 
ATOM     10  C   UNL     1      32.082  22.108  28.745  0.00  0.00    +0.000 C 
ATOM     11  C   UNL     1      33.348  22.714  29.253  0.00  0.00    +0.000 C 
ATOM     12  C   UNL     1      33.683  24.038  28.649  0.00  0.00    +0.000 C 
ENDBRANCH   2   4
BRANCH   1  18
ATOM     13  C   UNL     1      27.779  23.851  22.800  0.00  0.00    +0.000 A 
ATOM     14  C   UNL     1      26.517  23.461  22.347  0.00  0.00    +0.000 A 
ATOM     15  C   UNL     1      25.500  23.120  23.186  0.00  0.00    +0.000 A 
ATOM     16  C   UNL     1      25.722  23.161  24.545  0.00  0.00    +0.000 A 
ATOM     17  C   UNL     1      26.952  23.540  25.007  0.00  0.00    +0.000 A 
ATOM     18  C   UNL     1      27.979  23.885  24.161  0.00  0.00    +0.000 A 
BRANCH  13  20
ATOM     19  N   UNL     1      29.676  24.485  21.171  0.00  0.00    +0.000 NA
ATOM     20  C   UNL     1      28.835  24.204  21.891  0.00  0.00    +0.000 C 
ENDBRANCH  13  20
ENDBRANCH   1  18
TORSDOF 3
ENDMDL
MODEL 10
REMARK VINA RESULT:      -6.1      2.077      3.281
REMARK  Name = 
REMARK  3 active torsions:
REMARK  status: ('A' for Active; 'I' for Inactive)
REMARK    1  A    between atoms: C_2  and  C_3
REMARK    2  A    between atoms: C_8  and  N_9
REMARK    3  A    between atoms: C_10  and  C_12
REMARK                            x       y       z     vdW  Elec       q    Type
REMARK                         _______ _______ _______ _____ _____    ______ ____
ROOT
ATOM      1  N   UNL     1      15.619  11.532  34.912  0.00  0.00    +0.000 NA
ATOM      2  C   UNL     1      16.318  11.866  36.088  0.00  0.00    +0.000 C 
ATOM      3  O   UNL     1      16.299  13.040  36.511  0.00  0.00    +0.000 OA
ENDROOT
BRANCH   2   4
ATOM      4  C   UNL     1      17.087  10.848  36.849  0.00  0.00    +0.000 A 
ATOM      5  S   UNL     1      18.359   9.850  36.312  0.00  0.00    +0.000 S 
ATOM      6  C   UNL     1      18.666   9.007  37.760  0.00  0.00    +0.000 A 
ATOM      7  C   UNL     1      17.752   9.536  38.635  0.00  0.00    +0.000 A 
ATOM      8  C   UNL     1      16.939  10.491  38.149  0.00  0.00    +0.000 A 
ATOM      9  C   UNL     1      15.938  11.063  39.132  0.00  0.00    +0.000 C 
ATOM     10  C   UNL     1      15.243   9.875  39.747  0.00  0.00    +0.000 C 
ATOM     11  C   UNL     1      16.174   8.955  40.465  0.00  0.00    +0.000 C 
ATOM     12  C   UNL     1      17.610   9.115  40.090  0.00  0.00    +0.000 C 
ENDBRANCH   2   4
BRANCH   1  18
ATOM     13  C   UNL     1      14.866  12.481  32.785  0.00  0.00    +0.000 A 
ATOM     14  C   UNL     1      14.111  13.458  32.132  0.00  0.00    +0.000 A 
ATOM     15  C   UNL     1      13.395  14.409  32.796  0.00  0.00    +0.000 A 
ATOM     16  C   UNL     1      13.413  14.410  34.173  0.00  0.00    +0.000 A 
ATOM     17  C   UNL     1      14.146  13.460  34.829  0.00  0.00    +0.000 A 
ATOM     18  C   UNL     1      14.870  12.501  34.160  0.00  0.00    +0.000 A 
BRANCH  13  20
ATOM     19  N   UNL     1      16.206  10.703  31.485  0.00  0.00    +0.000 NA
ATOM     20  C   UNL     1      15.611  11.490  32.059  0.00  0.00    +0.000 C 
ENDBRANCH  13  20
ENDBRANCH   1  18
TORSDOF 3
ENDMDL
