MODEL 1
REMARK VINA RESULT:      -7.9      0.000      0.000
REMARK  Name = 
REMARK  7 active torsions:
REMARK  status: ('A' for Active; 'I' for Inactive)
REMARK    1  A    between atoms: C_2  and  O_3
REMARK    2  A    between atoms: O_3  and  C_4
REMARK    3  A    between atoms: C_5  and  O_6
REMARK    4  A    between atoms: C_11  and  C_12
REMARK    5  A    between atoms: C_22  and  O_23
REMARK    6  A    between atoms: O_23  and  C_24
REMARK    7  A    between atoms: C_24  and  C_25
REMARK                            x       y       z     vdW  Elec       q    Type
REMARK                         _______ _______ _______ _____ _____    ______ ____
ROOT
ATOM      1  C   UNL     1      36.302  -0.145  14.832  0.00  0.00    +0.000 C 
ATOM      2  N   UNL     1      35.633  -0.457  16.234  0.00  0.00    +0.000 NA
ATOM      3  C   UNL     1      34.798   0.639  16.571  0.00  0.00    +0.000 C 
ATOM      4  C   UNL     1      35.749   1.546  17.339  0.00  0.00    +0.000 C 
ATOM      5  C   UNL     1      36.737   1.932  16.326  0.00  0.00    +0.000 A 
ATOM      6  C   UNL     1      36.998   1.243  15.257  0.00  0.00    +0.000 A 
ATOM      7  N   UNL     1      37.937   1.836  14.524  0.00  0.00    +0.000 NA
ATOM      8  C   UNL     1      38.323   2.972  15.127  0.00  0.00    +0.000 A 
ATOM      9  C   UNL     1      39.244   3.954  14.814  0.00  0.00    +0.000 A 
ATOM     10  C   UNL     1      39.425   5.040  15.661  0.00  0.00    +0.000 A 
ATOM     11  C   UNL     1      38.686   5.141  16.813  0.00  0.00    +0.000 A 
ATOM     12  C   UNL     1      37.775   4.142  17.092  0.00  0.00    +0.000 A 
ATOM     13  C   UNL     1      37.551   3.045  16.299  0.00  0.00    +0.000 A 
ENDROOT
BRANCH   1  19
ATOM     14  C   UNL     1      38.246  -1.555  14.003  0.00  0.00    +0.000 A 
ATOM     15  C   UNL     1      39.363  -2.365  14.179  0.00  0.00    +0.000 A 
ATOM     16  C   UNL     1      39.751  -2.662  15.468  0.00  0.00    +0.000 A 
ATOM     17  C   UNL     1      39.037  -2.158  16.554  0.00  0.00    +0.000 A 
ATOM     18  C   UNL     1      37.930  -1.356  16.370  0.00  0.00    +0.000 A 
ATOM     19  C   UNL     1      37.581  -1.088  15.107  0.00  0.00    +0.000 A 
BRANCH  15  20
ATOM     20  O   UNL     1      40.021  -2.828  13.049  0.00  0.00    +0.000 OA
ATOM     21  C   UNL     1      41.434  -2.896  12.986  0.00  0.00    +0.000 C 
ENDBRANCH  15  20
BRANCH  14  22
ATOM     22  O   UNL     1      37.868  -1.268  12.699  0.00  0.00    +0.000 OA
BRANCH  22  24
ATOM     23  C   UNL     1      37.374   0.581  11.333  0.00  0.00    +0.000 C 
ATOM     24  C   UNL     1      38.485  -0.280  11.911  0.00  0.00    +0.000 C 
ENDBRANCH  22  24
ENDBRANCH  14  22
ENDBRANCH   1  19
BRANCH  11  25
ATOM     25  O   UNL     1      38.859   6.223  17.665  0.00  0.00    +0.000 OA
BRANCH  25  26
ATOM     26  C   UNL     1      39.283   6.153  18.987  0.00  0.00    +0.000 C 
BRANCH  26  27
ATOM     27  C   UNL     1      40.724   6.344  19.206  0.00  0.00    +0.000 A 
ATOM     28  C   UNL     1      41.593   6.593  18.162  0.00  0.00    +0.000 A 
ATOM     29  C   UNL     1      42.941   6.770  18.401  0.00  0.00    +0.000 A 
ATOM     30  C   UNL     1      43.464   6.706  19.684  0.00  0.00    +0.000 A 
ATOM     31  C   UNL     1      42.610   6.460  20.721  0.00  0.00    +0.000 A 
ATOM     32  C   UNL     1      41.267   6.285  20.472  0.00  0.00    +0.000 A 
ENDBRANCH  26  27
ENDBRANCH  25  26
ENDBRANCH  11  25
TORSDOF 7
ENDMDL
MODEL 2
REMARK VINA RESULT:      -7.7      2.264      3.106
REMARK  Name = 
REMARK  7 active torsions:
REMARK  status: ('A' for Active; 'I' for Inactive)
REMARK    1  A    between atoms: C_2  and  O_3
REMARK    2  A    between atoms: O_3  and  C_4
REMARK    3  A    between atoms: C_5  and  O_6
REMARK    4  A    between atoms: C_11  and  C_12
REMARK    5  A    between atoms: C_22  and  O_23
REMARK    6  A    between atoms: O_23  and  C_24
REMARK    7  A    between atoms: C_24  and  C_25
REMARK                            x       y       z     vdW  Elec       q    Type
REMARK                         _______ _______ _______ _____ _____    ______ ____
ROOT
ATOM      1  C   UNL     1      35.554  -0.456  15.798  0.00  0.00    +0.000 C 
ATOM      2  N   UNL     1      35.027   0.275  17.101  0.00  0.00    +0.000 NA
ATOM      3  C   UNL     1      34.629   1.586  16.733  0.00  0.00    +0.000 C 
ATOM      4  C   UNL     1      35.913   2.381  16.926  0.00  0.00    +0.000 C 
ATOM      5  C   UNL     1      36.818   1.807  15.925  0.00  0.00    +0.000 A 
ATOM      6  C   UNL     1      36.699   0.614  15.427  0.00  0.00    +0.000 A 
ATOM      7  N   UNL     1      37.661   0.366  14.542  0.00  0.00    +0.000 NA
ATOM      8  C   UNL     1      38.461   1.440  14.441  0.00  0.00    +0.000 A 
ATOM      9  C   UNL     1      39.586   1.725  13.691  0.00  0.00    +0.000 A 
ATOM     10  C   UNL     1      40.213   2.959  13.809  0.00  0.00    +0.000 A 
ATOM     11  C   UNL     1      39.713   3.901  14.673  0.00  0.00    +0.000 A 
ATOM     12  C   UNL     1      38.587   3.581  15.405  0.00  0.00    +0.000 A 
ATOM     13  C   UNL     1      37.924   2.382  15.335  0.00  0.00    +0.000 A 
ENDROOT
BRANCH   1  19
ATOM     14  C   UNL     1      36.472  -2.785  16.230  0.00  0.00    +0.000 A 
ATOM     15  C   UNL     1      37.278  -3.704  16.894  0.00  0.00    +0.000 A 
ATOM     16  C   UNL     1      38.077  -3.244  17.918  0.00  0.00    +0.000 A 
ATOM     17  C   UNL     1      38.069  -1.895  18.269  0.00  0.00    +0.000 A 
ATOM     18  C   UNL     1      37.267  -0.991  17.605  0.00  0.00    +0.000 A 
ATOM     19  C   UNL     1      36.504  -1.470  16.616  0.00  0.00    +0.000 A 
BRANCH  15  20
ATOM     20  O   UNL     1      37.231  -5.030  16.488  0.00  0.00    +0.000 OA
ATOM     21  C   UNL     1      37.734  -6.076  17.300  0.00  0.00    +0.000 C 
ENDBRANCH  15  20
BRANCH  14  22
ATOM     22  O   UNL     1      35.673  -3.266  15.203  0.00  0.00    +0.000 OA
BRANCH  22  24
ATOM     23  C   UNL     1      34.088  -4.749  14.300  0.00  0.00    +0.000 C 
ATOM     24  C   UNL     1      34.358  -3.725  15.390  0.00  0.00    +0.000 C 
ENDBRANCH  22  24
ENDBRANCH  14  22
ENDBRANCH   1  19
BRANCH  11  25
ATOM     25  O   UNL     1      40.331   5.137  14.797  0.00  0.00    +0.000 OA
BRANCH  25  26
ATOM     26  C   UNL     1      39.848   6.214  15.530  0.00  0.00    +0.000 C 
BRANCH  26  27
ATOM     27  C   UNL     1      40.268   6.268  16.937  0.00  0.00    +0.000 A 
ATOM     28  C   UNL     1      41.580   6.506  17.297  0.00  0.00    +0.000 A 
ATOM     29  C   UNL     1      41.944   6.553  18.628  0.00  0.00    +0.000 A 
ATOM     30  C   UNL     1      41.013   6.365  19.640  0.00  0.00    +0.000 A 
ATOM     31  C   UNL     1      39.714   6.131  19.291  0.00  0.00    +0.000 A 
ATOM     32  C   UNL     1      39.362   6.085  17.960  0.00  0.00    +0.000 A 
ENDBRANCH  26  27
ENDBRANCH  25  26
ENDBRANCH  11  25
TORSDOF 7
ENDMDL
MODEL 3
REMARK VINA RESULT:      -7.6     26.142     29.598
REMARK  Name = 
REMARK  7 active torsions:
REMARK  status: ('A' for Active; 'I' for Inactive)
REMARK    1  A    between atoms: C_2  and  O_3
REMARK    2  A    between atoms: O_3  and  C_4
REMARK    3  A    between atoms: C_5  and  O_6
REMARK    4  A    between atoms: C_11  and  C_12
REMARK    5  A    between atoms: C_22  and  O_23
REMARK    6  A    between atoms: O_23  and  C_24
REMARK    7  A    between atoms: C_24  and  C_25
REMARK                            x       y       z     vdW  Elec       q    Type
REMARK                         _______ _______ _______ _____ _____    ______ ____
ROOT
ATOM      1  C   UNL     1      27.075  13.458  42.624  0.00  0.00    +0.000 C 
ATOM      2  N   UNL     1      28.525  14.095  42.674  0.00  0.00    +0.000 NA
ATOM      3  C   UNL     1      28.380  15.504  42.755  0.00  0.00    +0.000 C 
ATOM      4  C   UNL     1      28.359  15.912  41.288  0.00  0.00    +0.000 C 
ATOM      5  C   UNL     1      27.133  15.287  40.783  0.00  0.00    +0.000 A 
ATOM      6  C   UNL     1      26.563  14.250  41.319  0.00  0.00    +0.000 A 
ATOM      7  N   UNL     1      25.468  13.905  40.647  0.00  0.00    +0.000 NA
ATOM      8  C   UNL     1      25.295  14.745  39.615  0.00  0.00    +0.000 A 
ATOM      9  C   UNL     1      24.345  14.848  38.616  0.00  0.00    +0.000 A 
ATOM     10  C   UNL     1      24.437  15.853  37.662  0.00  0.00    +0.000 A 
ATOM     11  C   UNL     1      25.475  16.750  37.710  0.00  0.00    +0.000 A 
ATOM     12  C   UNL     1      26.404  16.617  38.722  0.00  0.00    +0.000 A 
ATOM     13  C   UNL     1      26.370  15.647  39.692  0.00  0.00    +0.000 A 
ENDROOT
BRANCH   1  19
ATOM     14  C   UNL     1      26.662  11.099  41.779  0.00  0.00    +0.000 A 
ATOM     15  C   UNL     1      27.024   9.930  41.119  0.00  0.00    +0.000 A 
ATOM     16  C   UNL     1      28.287   9.860  40.571  0.00  0.00    +0.000 A 
ATOM     17  C   UNL     1      29.165  10.938  40.680  0.00  0.00    +0.000 A 
ATOM     18  C   UNL     1      28.797  12.093  41.337  0.00  0.00    +0.000 A 
ATOM     19  C   UNL     1      27.564  12.128  41.857  0.00  0.00    +0.000 A 
BRANCH  15  20
ATOM     20  O   UNL     1      26.096   8.900  41.052  0.00  0.00    +0.000 OA
ATOM     21  C   UNL     1      26.271   7.693  41.771  0.00  0.00    +0.000 C 
ENDBRANCH  15  20
BRANCH  14  22
ATOM     22  O   UNL     1      25.387  11.151  42.326  0.00  0.00    +0.000 OA
BRANCH  22  24
ATOM     23  C   UNL     1      23.860   9.920  43.623  0.00  0.00    +0.000 C 
ATOM     24  C   UNL     1      25.097  10.802  43.656  0.00  0.00    +0.000 C 
ENDBRANCH  22  24
ENDBRANCH  14  22
ENDBRANCH   1  19
BRANCH  11  25
ATOM     25  O   UNL     1      25.575  17.758  36.761  0.00  0.00    +0.000 OA
BRANCH  25  26
ATOM     26  C   UNL     1      26.362  17.716  35.617  0.00  0.00    +0.000 C 
BRANCH  26  27
ATOM     27  C   UNL     1      25.971  16.719  34.610  0.00  0.00    +0.000 A 
ATOM     28  C   UNL     1      25.104  17.024  33.580  0.00  0.00    +0.000 A 
ATOM     29  C   UNL     1      24.758  16.065  32.648  0.00  0.00    +0.000 A 
ATOM     30  C   UNL     1      25.264  14.775  32.715  0.00  0.00    +0.000 A 
ATOM     31  C   UNL     1      26.122  14.466  33.731  0.00  0.00    +0.000 A 
ATOM     32  C   UNL     1      26.461  15.430  34.655  0.00  0.00    +0.000 A 
ENDBRANCH  26  27
ENDBRANCH  25  26
ENDBRANCH  11  25
TORSDOF 7
ENDMDL
MODEL 4
REMARK VINA RESULT:      -7.5      5.810     11.118
REMARK  Name = 
REMARK  7 active torsions:
REMARK  status: ('A' for Active; 'I' for Inactive)
REMARK    1  A    between atoms: C_2  and  O_3
REMARK    2  A    between atoms: O_3  and  C_4
REMARK    3  A    between atoms: C_5  and  O_6
REMARK    4  A    between atoms: C_11  and  C_12
REMARK    5  A    between atoms: C_22  and  O_23
REMARK    6  A    between atoms: O_23  and  C_24
REMARK    7  A    between atoms: C_24  and  C_25
REMARK                            x       y       z     vdW  Elec       q    Type
REMARK                         _______ _______ _______ _____ _____    ______ ____
ROOT
ATOM      1  C   UNL     1      38.063  -1.635  15.418  0.00  0.00    +0.000 C 
ATOM      2  N   UNL     1      38.863  -2.063  16.717  0.00  0.00    +0.000 NA
ATOM      3  C   UNL     1      39.384  -3.364  16.499  0.00  0.00    +0.000 C 
ATOM      4  C   UNL     1      38.262  -4.254  17.017  0.00  0.00    +0.000 C 
ATOM      5  C   UNL     1      37.156  -3.971  16.097  0.00  0.00    +0.000 A 
ATOM      6  C   UNL     1      37.038  -2.877  15.407  0.00  0.00    +0.000 A 
ATOM      7  N   UNL     1      35.937  -2.899  14.660  0.00  0.00    +0.000 NA
ATOM      8  C   UNL     1      35.288  -4.058  14.857  0.00  0.00    +0.000 A 
ATOM      9  C   UNL     1      34.119  -4.595  14.351  0.00  0.00    +0.000 A 
ATOM     10  C   UNL     1      33.693  -5.853  14.758  0.00  0.00    +0.000 A 
ATOM     11  C   UNL     1      34.435  -6.567  15.667  0.00  0.00    +0.000 A 
ATOM     12  C   UNL     1      35.596  -5.998  16.150  0.00  0.00    +0.000 A 
ATOM     13  C   UNL     1      36.069  -4.762  15.789  0.00  0.00    +0.000 A 
ENDROOT
BRANCH   1  19
ATOM     14  C   UNL     1      36.811   0.570  15.576  0.00  0.00    +0.000 A 
ATOM     15  C   UNL     1      35.981   1.490  16.207  0.00  0.00    +0.000 A 
ATOM     16  C   UNL     1      35.489   1.170  17.454  0.00  0.00    +0.000 A 
ATOM     17  C   UNL     1      35.821  -0.044  18.053  0.00  0.00    +0.000 A 
ATOM     18  C   UNL     1      36.645  -0.951  17.420  0.00  0.00    +0.000 A 
ATOM     19  C   UNL     1      37.105  -0.609  16.211  0.00  0.00    +0.000 A 
BRANCH  15  20
ATOM     20  O   UNL     1      35.697   2.677  15.547  0.00  0.00    +0.000 OA
ATOM     21  C   UNL     1      34.366   3.122  15.355  0.00  0.00    +0.000 C 
ENDBRANCH  15  20
BRANCH  14  22
ATOM     22  O   UNL     1      37.299   0.910  14.321  0.00  0.00    +0.000 OA
BRANCH  22  24
ATOM     23  C   UNL     1      37.575   0.029  12.159  0.00  0.00    +0.000 C 
ATOM     24  C   UNL     1      36.598   0.676  13.125  0.00  0.00    +0.000 C 
ENDBRANCH  22  24
ENDBRANCH  14  22
ENDBRANCH   1  19
BRANCH  11  25
ATOM     25  O   UNL     1      34.017  -7.824  16.079  0.00  0.00    +0.000 OA
BRANCH  25  26
ATOM     26  C   UNL     1      32.838  -8.103  16.759  0.00  0.00    +0.000 C 
BRANCH  26  27
ATOM     27  C   UNL     1      31.767  -8.711  15.957  0.00  0.00    +0.000 A 
ATOM     28  C   UNL     1      32.033  -9.409  14.795  0.00  0.00    +0.000 A 
ATOM     29  C   UNL     1      31.005  -9.971  14.065  0.00  0.00    +0.000 A 
ATOM     30  C   UNL     1      29.683  -9.856  14.468  0.00  0.00    +0.000 A 
ATOM     31  C   UNL     1      29.412  -9.167  15.616  0.00  0.00    +0.000 A 
ATOM     32  C   UNL     1      30.445  -8.610  16.337  0.00  0.00    +0.000 A 
ENDBRANCH  26  27
ENDBRANCH  25  26
ENDBRANCH  11  25
TORSDOF 7
ENDMDL
MODEL 5
REMARK VINA RESULT:      -7.2      2.624      8.556
REMARK  Name = 
REMARK  7 active torsions:
REMARK  status: ('A' for Active; 'I' for Inactive)
REMARK    1  A    between atoms: C_2  and  O_3
REMARK    2  A    between atoms: O_3  and  C_4
REMARK    3  A    between atoms: C_5  and  O_6
REMARK    4  A    between atoms: C_11  and  C_12
REMARK    5  A    between atoms: C_22  and  O_23
REMARK    6  A    between atoms: O_23  and  C_24
REMARK    7  A    between atoms: C_24  and  C_25
REMARK                            x       y       z     vdW  Elec       q    Type
REMARK                         _______ _______ _______ _____ _____    ______ ____
ROOT
ATOM      1  C   UNL     1      38.819   6.347  15.289  0.00  0.00    +0.000 C 
ATOM      2  N   UNL     1      40.287   5.807  15.037  0.00  0.00    +0.000 NA
ATOM      3  C   UNL     1      40.268   5.032  13.849  0.00  0.00    +0.000 C 
ATOM      4  C   UNL     1      39.953   3.639  14.375  0.00  0.00    +0.000 C 
ATOM      5  C   UNL     1      38.602   3.786  14.926  0.00  0.00    +0.000 A 
ATOM      6  C   UNL     1      38.090   4.912  15.323  0.00  0.00    +0.000 A 
ATOM      7  N   UNL     1      36.851   4.741  15.775  0.00  0.00    +0.000 NA
ATOM      8  C   UNL     1      36.515   3.444  15.678  0.00  0.00    +0.000 A 
ATOM      9  C   UNL     1      35.377   2.726  15.995  0.00  0.00    +0.000 A 
ATOM     10  C   UNL     1      35.330   1.355  15.773  0.00  0.00    +0.000 A 
ATOM     11  C   UNL     1      36.417   0.710  15.237  0.00  0.00    +0.000 A 
ATOM     12  C   UNL     1      37.535   1.460  14.933  0.00  0.00    +0.000 A 
ATOM     13  C   UNL     1      37.645   2.814  15.128  0.00  0.00    +0.000 A 
ENDROOT
BRANCH   1  19
ATOM     14  C   UNL     1      38.189   7.362  17.531  0.00  0.00    +0.000 A 
ATOM     15  C   UNL     1      38.313   7.520  18.907  0.00  0.00    +0.000 A 
ATOM     16  C   UNL     1      39.282   6.786  19.558  0.00  0.00    +0.000 A 
ATOM     17  C   UNL     1      40.105   5.915  18.847  0.00  0.00    +0.000 A 
ATOM     18  C   UNL     1      39.975   5.765  17.482  0.00  0.00    +0.000 A 
ATOM     19  C   UNL     1      39.025   6.491  16.881  0.00  0.00    +0.000 A 
BRANCH  15  20
ATOM     20  O   UNL     1      37.457   8.406  19.545  0.00  0.00    +0.000 OA
ATOM     21  C   UNL     1      37.946   9.519  20.272  0.00  0.00    +0.000 C 
ENDBRANCH  15  20
BRANCH  14  22
ATOM     22  O   UNL     1      37.209   8.109  16.891  0.00  0.00    +0.000 OA
BRANCH  22  24
ATOM     23  C   UNL     1      36.090  10.164  16.664  0.00  0.00    +0.000 C 
ATOM     24  C   UNL     1      37.402   9.429  16.450  0.00  0.00    +0.000 C 
ENDBRANCH  22  24
ENDBRANCH  14  22
ENDBRANCH   1  19
BRANCH  11  25
ATOM     25  O   UNL     1      36.378  -0.658  15.011  0.00  0.00    +0.000 OA
BRANCH  25  26
ATOM     26  C   UNL     1      35.885  -1.611  15.896  0.00  0.00    +0.000 C 
BRANCH  26  27
ATOM     27  C   UNL     1      36.788  -1.991  16.991  0.00  0.00    +0.000 A 
ATOM     28  C   UNL     1      36.602  -1.534  18.281  0.00  0.00    +0.000 A 
ATOM     29  C   UNL     1      37.466  -1.912  19.290  0.00  0.00    +0.000 A 
ATOM     30  C   UNL     1      38.541  -2.754  19.045  0.00  0.00    +0.000 A 
ATOM     31  C   UNL     1      38.731  -3.210  17.771  0.00  0.00    +0.000 A 
ATOM     32  C   UNL     1      37.863  -2.828  16.773  0.00  0.00    +0.000 A 
ENDBRANCH  26  27
ENDBRANCH  25  26
ENDBRANCH  11  25
TORSDOF 7
ENDMDL
MODEL 6
REMARK VINA RESULT:      -7.2      4.962      7.431
REMARK  Name = 
REMARK  7 active torsions:
REMARK  status: ('A' for Active; 'I' for Inactive)
REMARK    1  A    between atoms: C_2  and  O_3
REMARK    2  A    between atoms: O_3  and  C_4
REMARK    3  A    between atoms: C_5  and  O_6
REMARK    4  A    between atoms: C_11  and  C_12
REMARK    5  A    between atoms: C_22  and  O_23
REMARK    6  A    between atoms: O_23  and  C_24
REMARK    7  A    between atoms: C_24  and  C_25
REMARK                            x       y       z     vdW  Elec       q    Type
REMARK                         _______ _______ _______ _____ _____    ______ ____
ROOT
ATOM      1  C   UNL     1      43.038  -1.448  12.110  0.00  0.00    +0.000 C 
ATOM      2  N   UNL     1      42.577  -0.044  11.538  0.00  0.00    +0.000 NA
ATOM      3  C   UNL     1      42.592   0.888  12.607  0.00  0.00    +0.000 C 
ATOM      4  C   UNL     1      41.181   0.764  13.165  0.00  0.00    +0.000 C 
ATOM      5  C   UNL     1      41.139  -0.612  13.670  0.00  0.00    +0.000 A 
ATOM      6  C   UNL     1      41.906  -1.572  13.248  0.00  0.00    +0.000 A 
ATOM      7  N   UNL     1      41.643  -2.709  13.887  0.00  0.00    +0.000 NA
ATOM      8  C   UNL     1      40.658  -2.504  14.776  0.00  0.00    +0.000 A 
ATOM      9  C   UNL     1      40.007  -3.319  15.683  0.00  0.00    +0.000 A 
ATOM     10  C   UNL     1      38.999  -2.804  16.489  0.00  0.00    +0.000 A 
ATOM     11  C   UNL     1      38.647  -1.481  16.384  0.00  0.00    +0.000 A 
ATOM     12  C   UNL     1      39.320  -0.698  15.468  0.00  0.00    +0.000 A 
ATOM     13  C   UNL     1      40.322  -1.146  14.644  0.00  0.00    +0.000 A 
ENDROOT
BRANCH   1  19
ATOM     14  C   UNL     1      42.696  -3.571  10.758  0.00  0.00    +0.000 A 
ATOM     15  C   UNL     1      42.056  -4.349   9.800  0.00  0.00    +0.000 A 
ATOM     16  C   UNL     1      41.001  -3.790   9.110  0.00  0.00    +0.000 A 
ATOM     17  C   UNL     1      40.598  -2.482   9.375  0.00  0.00    +0.000 A 
ATOM     18  C   UNL     1      41.240  -1.717  10.327  0.00  0.00    +0.000 A 
ATOM     19  C   UNL     1      42.259  -2.290  10.978  0.00  0.00    +0.000 A 
BRANCH  15  20
ATOM     20  O   UNL     1      42.514  -5.642   9.592  0.00  0.00    +0.000 OA
ATOM     21  C   UNL     1      42.098  -6.409   8.477  0.00  0.00    +0.000 C 
ENDBRANCH  15  20
BRANCH  14  22
ATOM     22  O   UNL     1      43.756  -4.149  11.442  0.00  0.00    +0.000 OA
BRANCH  22  24
ATOM     23  C   UNL     1      45.703  -5.434  11.141  0.00  0.00    +0.000 C 
ATOM     24  C   UNL     1      45.096  -4.045  11.031  0.00  0.00    +0.000 C 
ENDBRANCH  22  24
ENDBRANCH  14  22
ENDBRANCH   1  19
BRANCH  11  25
ATOM     25  O   UNL     1      37.642  -0.958  17.185  0.00  0.00    +0.000 OA
BRANCH  25  26
ATOM     26  C   UNL     1      36.293  -0.902  16.856  0.00  0.00    +0.000 C 
BRANCH  26  27
ATOM     27  C   UNL     1      35.853   0.324  16.174  0.00  0.00    +0.000 A 
ATOM     28  C   UNL     1      36.152   0.567  14.848  0.00  0.00    +0.000 A 
ATOM     29  C   UNL     1      35.723   1.727  14.234  0.00  0.00    +0.000 A 
ATOM     30  C   UNL     1      34.984   2.679  14.921  0.00  0.00    +0.000 A 
ATOM     31  C   UNL     1      34.685   2.445  16.233  0.00  0.00    +0.000 A 
ATOM     32  C   UNL     1      35.118   1.285  16.836  0.00  0.00    +0.000 A 
ENDBRANCH  26  27
ENDBRANCH  25  26
ENDBRANCH  11  25
TORSDOF 7
ENDMDL
MODEL 7
REMARK VINA RESULT:      -7.2      3.106      4.757
REMARK  Name = 
REMARK  7 active torsions:
REMARK  status: ('A' for Active; 'I' for Inactive)
REMARK    1  A    between atoms: C_2  and  O_3
REMARK    2  A    between atoms: O_3  and  C_4
REMARK    3  A    between atoms: C_5  and  O_6
REMARK    4  A    between atoms: C_11  and  C_12
REMARK    5  A    between atoms: C_22  and  O_23
REMARK    6  A    between atoms: O_23  and  C_24
REMARK    7  A    between atoms: C_24  and  C_25
REMARK                            x       y       z     vdW  Elec       q    Type
REMARK                         _______ _______ _______ _____ _____    ______ ____
ROOT
ATOM      1  C   UNL     1      37.774   3.153  14.523  0.00  0.00    +0.000 C 
ATOM      2  N   UNL     1      36.694   3.995  13.727  0.00  0.00    +0.000 NA
ATOM      3  C   UNL     1      37.297   5.219  13.338  0.00  0.00    +0.000 C 
ATOM      4  C   UNL     1      36.985   6.124  14.521  0.00  0.00    +0.000 C 
ATOM      5  C   UNL     1      37.725   5.503  15.624  0.00  0.00    +0.000 A 
ATOM      6  C   UNL     1      38.074   4.252  15.661  0.00  0.00    +0.000 A 
ATOM      7  N   UNL     1      38.732   3.972  16.782  0.00  0.00    +0.000 NA
ATOM      8  C   UNL     1      38.830   5.082  17.531  0.00  0.00    +0.000 A 
ATOM      9  C   UNL     1      39.399   5.357  18.760  0.00  0.00    +0.000 A 
ATOM     10  C   UNL     1      39.336   6.640  19.290  0.00  0.00    +0.000 A 
ATOM     11  C   UNL     1      38.708   7.640  18.590  0.00  0.00    +0.000 A 
ATOM     12  C   UNL     1      38.152   7.328  17.366  0.00  0.00    +0.000 A 
ATOM     13  C   UNL     1      38.179   6.083  16.790  0.00  0.00    +0.000 A 
ENDROOT
BRANCH   1  19
ATOM     14  C   UNL     1      37.058   1.087  15.817  0.00  0.00    +0.000 A 
ATOM     15  C   UNL     1      36.153   0.326  16.549  0.00  0.00    +0.000 A 
ATOM     16  C   UNL     1      34.899   0.852  16.777  0.00  0.00    +0.000 A 
ATOM     17  C   UNL     1      34.561   2.111  16.282  0.00  0.00    +0.000 A 
ATOM     18  C   UNL     1      35.465   2.859  15.556  0.00  0.00    +0.000 A 
ATOM     19  C   UNL     1      36.673   2.319  15.354  0.00  0.00    +0.000 A 
BRANCH  15  20
ATOM     20  O   UNL     1      36.562  -0.917  17.008  0.00  0.00    +0.000 OA
ATOM     21  C   UNL     1      36.877  -1.142  18.371  0.00  0.00    +0.000 C 
ENDBRANCH  15  20
BRANCH  14  22
ATOM     22  O   UNL     1      38.315   0.542  15.597  0.00  0.00    +0.000 OA
BRANCH  22  24
ATOM     23  C   UNL     1      39.827  -1.124  14.913  0.00  0.00    +0.000 C 
ATOM     24  C   UNL     1      38.620  -0.295  14.509  0.00  0.00    +0.000 C 
ENDBRANCH  22  24
ENDBRANCH  14  22
ENDBRANCH   1  19
BRANCH  11  25
ATOM     25  O   UNL     1      38.640   8.924  19.111  0.00  0.00    +0.000 OA
BRANCH  25  26
ATOM     26  C   UNL     1      38.489   9.246  20.455  0.00  0.00    +0.000 C 
BRANCH  26  27
ATOM     27  C   UNL     1      39.265  10.401  20.926  0.00  0.00    +0.000 A 
ATOM     28  C   UNL     1      38.656  11.567  21.346  0.00  0.00    +0.000 A 
ATOM     29  C   UNL     1      39.413  12.635  21.785  0.00  0.00    +0.000 A 
ATOM     30  C   UNL     1      40.799  12.574  21.819  0.00  0.00    +0.000 A 
ATOM     31  C   UNL     1      41.408  11.424  21.406  0.00  0.00    +0.000 A 
ATOM     32  C   UNL     1      40.644  10.365  20.969  0.00  0.00    +0.000 A 
ENDBRANCH  26  27
ENDBRANCH  25  26
ENDBRANCH  11  25
TORSDOF 7
ENDMDL
MODEL 8
REMARK VINA RESULT:      -7.2      2.425      8.492
REMARK  Name = 
REMARK  7 active torsions:
REMARK  status: ('A' for Active; 'I' for Inactive)
REMARK    1  A    between atoms: C_2  and  O_3
REMARK    2  A    between atoms: O_3  and  C_4
REMARK    3  A    between atoms: C_5  and  O_6
REMARK    4  A    between atoms: C_11  and  C_12
REMARK    5  A    between atoms: C_22  and  O_23
REMARK    6  A    between atoms: O_23  and  C_24
REMARK    7  A    between atoms: C_24  and  C_25
REMARK                            x       y       z     vdW  Elec       q    Type
REMARK                         _______ _______ _______ _____ _____    ______ ____
ROOT
ATOM      1  C   UNL     1      38.222   5.474  15.072  0.00  0.00    +0.000 C 
ATOM      2  N   UNL     1      39.690   4.949  14.790  0.00  0.00    +0.000 NA
ATOM      3  C   UNL     1      39.620   4.010  13.728  0.00  0.00    +0.000 C 
ATOM      4  C   UNL     1      39.400   2.699  14.469  0.00  0.00    +0.000 C 
ATOM      5  C   UNL     1      38.086   2.882  15.094  0.00  0.00    +0.000 A 
ATOM      6  C   UNL     1      37.557   4.037  15.365  0.00  0.00    +0.000 A 
ATOM      7  N   UNL     1      36.362   3.895  15.929  0.00  0.00    +0.000 NA
ATOM      8  C   UNL     1      36.074   2.588  16.043  0.00  0.00    +0.000 A 
ATOM      9  C   UNL     1      34.992   1.889  16.543  0.00  0.00    +0.000 A 
ATOM     10  C   UNL     1      34.986   0.500  16.522  0.00  0.00    +0.000 A 
ATOM     11  C   UNL     1      36.058  -0.182  16.003  0.00  0.00    +0.000 A 
ATOM     12  C   UNL     1      37.120   0.550  15.512  0.00  0.00    +0.000 A 
ATOM     13  C   UNL     1      37.187   1.920  15.504  0.00  0.00    +0.000 A 
ENDROOT
BRANCH   1  19
ATOM     14  C   UNL     1      38.020   7.041  17.062  0.00  0.00    +0.000 A 
ATOM     15  C   UNL     1      38.248   7.416  18.381  0.00  0.00    +0.000 A 
ATOM     16  C   UNL     1      38.987   6.567  19.178  0.00  0.00    +0.000 A 
ATOM     17  C   UNL     1      39.485   5.371  18.663  0.00  0.00    +0.000 A 
ATOM     18  C   UNL     1      39.255   5.007  17.353  0.00  0.00    +0.000 A 
ATOM     19  C   UNL     1      38.534   5.853  16.608  0.00  0.00    +0.000 A 
BRANCH  15  20
ATOM     20  O   UNL     1      37.720   8.621  18.821  0.00  0.00    +0.000 OA
ATOM     21  C   UNL     1      37.507   8.883  20.196  0.00  0.00    +0.000 C 
ENDBRANCH  15  20
BRANCH  14  22
ATOM     22  O   UNL     1      37.275   7.907  16.274  0.00  0.00    +0.000 OA
BRANCH  22  24
ATOM     23  C   UNL     1      36.858  10.133  15.641  0.00  0.00    +0.000 C 
ATOM     24  C   UNL     1      37.835   8.973  15.547  0.00  0.00    +0.000 C 
ENDBRANCH  22  24
ENDBRANCH  14  22
ENDBRANCH   1  19
BRANCH  11  25
ATOM     25  O   UNL     1      36.060  -1.570  15.978  0.00  0.00    +0.000 OA
BRANCH  25  26
ATOM     26  C   UNL     1      37.120  -2.384  16.359  0.00  0.00    +0.000 C 
BRANCH  26  27
ATOM     27  C   UNL     1      38.223  -2.490  15.393  0.00  0.00    +0.000 A 
ATOM     28  C   UNL     1      39.542  -2.345  15.774  0.00  0.00    +0.000 A 
ATOM     29  C   UNL     1      40.556  -2.453  14.843  0.00  0.00    +0.000 A 
ATOM     30  C   UNL     1      40.288  -2.707  13.506  0.00  0.00    +0.000 A 
ATOM     31  C   UNL     1      38.985  -2.852  13.122  0.00  0.00    +0.000 A 
ATOM     32  C   UNL     1      37.981  -2.743  14.059  0.00  0.00    +0.000 A 
ENDBRANCH  26  27
ENDBRANCH  25  26
ENDBRANCH  11  25
TORSDOF 7
ENDMDL
MODEL 9
REMARK VINA RESULT:      -7.1      5.003     10.166
REMARK  Name = 
REMARK  7 active torsions:
REMARK  status: ('A' for Active; 'I' for Inactive)
REMARK    1  A    between atoms: C_2  and  O_3
REMARK    2  A    between atoms: O_3  and  C_4
REMARK    3  A    between atoms: C_5  and  O_6
REMARK    4  A    between atoms: C_11  and  C_12
REMARK    5  A    between atoms: C_22  and  O_23
REMARK    6  A    between atoms: O_23  and  C_24
REMARK    7  A    between atoms: C_24  and  C_25
REMARK                            x       y       z     vdW  Elec       q    Type
REMARK                         _______ _______ _______ _____ _____    ______ ____
ROOT
ATOM      1  C   UNL     1      37.896  -1.386  15.369  0.00  0.00    +0.000 C 
ATOM      2  N   UNL     1      38.584  -1.642  16.773  0.00  0.00    +0.000 NA
ATOM      3  C   UNL     1      39.202  -2.918  16.728  0.00  0.00    +0.000 C 
ATOM      4  C   UNL     1      38.090  -3.834  17.218  0.00  0.00    +0.000 C 
ATOM      5  C   UNL     1      37.068  -3.710  16.174  0.00  0.00    +0.000 A 
ATOM      6  C   UNL     1      36.954  -2.691  15.376  0.00  0.00    +0.000 A 
ATOM      7  N   UNL     1      35.939  -2.855  14.533  0.00  0.00    +0.000 NA
ATOM      8  C   UNL     1      35.343  -4.034  14.775  0.00  0.00    +0.000 A 
ATOM      9  C   UNL     1      34.267  -4.694  14.212  0.00  0.00    +0.000 A 
ATOM     10  C   UNL     1      33.878  -5.937  14.693  0.00  0.00    +0.000 A 
ATOM     11  C   UNL     1      34.565  -6.516  15.731  0.00  0.00    +0.000 A 
ATOM     12  C   UNL     1      35.635  -5.828  16.268  0.00  0.00    +0.000 A 
ATOM     13  C   UNL     1      36.067  -4.598  15.839  0.00  0.00    +0.000 A 
ENDROOT
BRANCH   1  19
ATOM     14  C   UNL     1      36.288   0.562  15.094  0.00  0.00    +0.000 A 
ATOM     15  C   UNL     1      35.334   1.464  15.550  0.00  0.00    +0.000 A 
ATOM     16  C   UNL     1      34.947   1.385  16.871  0.00  0.00    +0.000 A 
ATOM     17  C   UNL     1      35.505   0.425  17.714  0.00  0.00    +0.000 A 
ATOM     18  C   UNL     1      36.451  -0.466  17.253  0.00  0.00    +0.000 A 
ATOM     19  C   UNL     1      36.803  -0.362  15.966  0.00  0.00    +0.000 A 
BRANCH  15  20
ATOM     20  O   UNL     1      34.825   2.391  14.652  0.00  0.00    +0.000 OA
ATOM     21  C   UNL     1      35.087   3.776  14.784  0.00  0.00    +0.000 C 
ENDBRANCH  15  20
BRANCH  14  22
ATOM     22  O   UNL     1      36.666   0.655  13.762  0.00  0.00    +0.000 OA
BRANCH  22  24
ATOM     23  C   UNL     1      37.432   1.782  11.846  0.00  0.00    +0.000 C 
ATOM     24  C   UNL     1      37.714   1.474  13.307  0.00  0.00    +0.000 C 
ENDBRANCH  22  24
ENDBRANCH  14  22
ENDBRANCH   1  19
BRANCH  11  25
ATOM     25  O   UNL     1      34.184  -7.758  16.218  0.00  0.00    +0.000 OA
BRANCH  25  26
ATOM     26  C   UNL     1      35.000  -8.880  16.300  0.00  0.00    +0.000 C 
BRANCH  26  27
ATOM     27  C   UNL     1      35.500  -9.209  17.643  0.00  0.00    +0.000 A 
ATOM     28  C   UNL     1      36.675  -9.908  17.833  0.00  0.00    +0.000 A 
ATOM     29  C   UNL     1      37.119 -10.199  19.107  0.00  0.00    +0.000 A 
ATOM     30  C   UNL     1      36.407  -9.804  20.230  0.00  0.00    +0.000 A 
ATOM     31  C   UNL     1      35.243  -9.111  20.050  0.00  0.00    +0.000 A 
ATOM     32  C   UNL     1      34.809  -8.826  18.774  0.00  0.00    +0.000 A 
ENDBRANCH  26  27
ENDBRANCH  25  26
ENDBRANCH  11  25
TORSDOF 7
ENDMDL
MODEL 10
REMARK VINA RESULT:      -7.1      3.357      5.347
REMARK  Name = 
REMARK  7 active torsions:
REMARK  status: ('A' for Active; 'I' for Inactive)
REMARK    1  A    between atoms: C_2  and  O_3
REMARK    2  A    between atoms: O_3  and  C_4
REMARK    3  A    between atoms: C_5  and  O_6
REMARK    4  A    between atoms: C_11  and  C_12
REMARK    5  A    between atoms: C_22  and  O_23
REMARK    6  A    between atoms: O_23  and  C_24
REMARK    7  A    between atoms: C_24  and  C_25
REMARK                            x       y       z     vdW  Elec       q    Type
REMARK                         _______ _______ _______ _____ _____    ______ ____
ROOT
ATOM      1  C   UNL     1      37.681   2.588  14.501  0.00  0.00    +0.000 C 
ATOM      2  N   UNL     1      36.592   3.270  13.575  0.00  0.00    +0.000 NA
ATOM      3  C   UNL     1      37.159   4.452  13.033  0.00  0.00    +0.000 C 
ATOM      4  C   UNL     1      36.786   5.498  14.074  0.00  0.00    +0.000 C 
ATOM      5  C   UNL     1      37.520   5.063  15.266  0.00  0.00    +0.000 A 
ATOM      6  C   UNL     1      37.913   3.843  15.482  0.00  0.00    +0.000 A 
ATOM      7  N   UNL     1      38.554   3.746  16.643  0.00  0.00    +0.000 NA
ATOM      8  C   UNL     1      38.593   4.951  17.234  0.00  0.00    +0.000 A 
ATOM      9  C   UNL     1      39.122   5.414  18.424  0.00  0.00    +0.000 A 
ATOM     10  C   UNL     1      38.999   6.754  18.771  0.00  0.00    +0.000 A 
ATOM     11  C   UNL     1      38.352   7.623  17.928  0.00  0.00    +0.000 A 
ATOM     12  C   UNL     1      37.838   7.124  16.748  0.00  0.00    +0.000 A 
ATOM     13  C   UNL     1      37.925   5.814  16.350  0.00  0.00    +0.000 A 
ENDROOT
BRANCH   1  19
ATOM     14  C   UNL     1      36.982   0.647  15.984  0.00  0.00    +0.000 A 
ATOM     15  C   UNL     1      36.087  -0.044  16.793  0.00  0.00    +0.000 A 
ATOM     16  C   UNL     1      34.837   0.501  16.989  0.00  0.00    +0.000 A 
ATOM     17  C   UNL     1      34.492   1.711  16.388  0.00  0.00    +0.000 A 
ATOM     18  C   UNL     1      35.386   2.390  15.587  0.00  0.00    +0.000 A 
ATOM     19  C   UNL     1      36.591   1.833  15.418  0.00  0.00    +0.000 A 
BRANCH  15  20
ATOM     20  O   UNL     1      36.503  -1.243  17.356  0.00  0.00    +0.000 OA
ATOM     21  C   UNL     1      35.850  -2.466  17.069  0.00  0.00    +0.000 C 
ENDBRANCH  15  20
BRANCH  14  22
ATOM     22  O   UNL     1      38.236   0.082  15.797  0.00  0.00    +0.000 OA
BRANCH  22  24
ATOM     23  C   UNL     1      39.432  -1.908  15.425  0.00  0.00    +0.000 C 
ATOM     24  C   UNL     1      38.522  -0.865  14.798  0.00  0.00    +0.000 C 
ENDBRANCH  22  24
ENDBRANCH  14  22
ENDBRANCH   1  19
BRANCH  11  25
ATOM     25  O   UNL     1      38.225   8.963  18.266  0.00  0.00    +0.000 OA
BRANCH  25  26
ATOM     26  C   UNL     1      37.069   9.573  18.737  0.00  0.00    +0.000 C 
BRANCH  26  27
ATOM     27  C   UNL     1      36.079   9.939  17.714  0.00  0.00    +0.000 A 
ATOM     28  C   UNL     1      36.410  10.726  16.629  0.00  0.00    +0.000 A 
ATOM     29  C   UNL     1      35.458  11.052  15.683  0.00  0.00    +0.000 A 
ATOM     30  C   UNL     1      34.149  10.604  15.789  0.00  0.00    +0.000 A 
ATOM     31  C   UNL     1      33.815   9.824  16.859  0.00  0.00    +0.000 A 
ATOM     32  C   UNL     1      34.772   9.506  17.797  0.00  0.00    +0.000 A 
ENDBRANCH  26  27
ENDBRANCH  25  26
ENDBRANCH  11  25
TORSDOF 7
ENDMDL
