MODEL 1
REMARK VINA RESULT:      -7.4      0.000      0.000
REMARK  Name = 
REMARK  3 active torsions:
REMARK  status: ('A' for Active; 'I' for Inactive)
REMARK    1  A    between atoms: O_2  and  C_3
REMARK    2  A    between atoms: C_7  and  C_8
REMARK    3  A    between atoms: C_8  and  N_9
REMARK                            x       y       z     vdW  Elec       q    Type
REMARK                         _______ _______ _______ _____ _____    ______ ____
ROOT
ATOM      1  N   UNL     1      16.790  10.645  35.306  0.00  0.00    +0.000 NA
ATOM      2  C   UNL     1      16.183  11.331  34.303  0.00  0.00    +0.000 A 
ATOM      3  N   UNL     1      16.460  11.179  32.957  0.00  0.00    +0.000 NA
ATOM      4  C   UNL     1      15.673  11.935  32.218  0.00  0.00    +0.000 A 
ATOM      5  C   UNL     1      15.545  12.125  30.809  0.00  0.00    +0.000 A 
ATOM      6  C   UNL     1      14.609  12.981  30.377  0.00  0.00    +0.000 A 
ATOM      7  C   UNL     1      13.788  13.660  31.225  0.00  0.00    +0.000 A 
ATOM      8  C   UNL     1      13.892  13.496  32.605  0.00  0.00    +0.000 A 
ATOM      9  C   UNL     1      14.859  12.614  33.096  0.00  0.00    +0.000 A 
ATOM     10  N   UNL     1      15.200  12.219  34.353  0.00  0.00    +0.000 N 
ATOM     11  C   UNL     1      14.530  12.750  35.556  0.00  0.00    +0.000 C 
ENDROOT
BRANCH   1  12
ATOM     12  C   UNL     1      16.609  10.438  36.684  0.00  0.00    +0.000 C 
BRANCH  12  17
ATOM     13  C   UNL     1      19.779  10.917  38.700  0.00  0.00    +0.000 A 
ATOM     14  C   UNL     1      19.974  12.259  38.611  0.00  0.00    +0.000 A 
ATOM     15  C   UNL     1      19.135  13.099  37.898  0.00  0.00    +0.000 A 
ATOM     16  C   UNL     1      18.018  12.536  37.238  0.00  0.00    +0.000 A 
ATOM     17  C   UNL     1      17.789  11.219  37.298  0.00  0.00    +0.000 A 
ATOM     18  C   UNL     1      18.684  10.410  38.036  0.00  0.00    +0.000 A 
ATOM     19  O   UNL     1      18.380   9.049  38.044  0.00  0.00    +0.000 OA
BRANCH  13  21
ATOM     20  C   UNL     1      21.357  10.609  40.494  0.00  0.00    +0.000 C 
ATOM     21  O   UNL     1      20.632  10.088  39.419  0.00  0.00    +0.000 OA
ENDBRANCH  13  21
ENDBRANCH  12  17
ENDBRANCH   1  12
TORSDOF 3
ENDMDL
MODEL 2
REMARK VINA RESULT:      -6.9      3.171      7.316
REMARK  Name = 
REMARK  3 active torsions:
REMARK  status: ('A' for Active; 'I' for Inactive)
REMARK    1  A    between atoms: O_2  and  C_3
REMARK    2  A    between atoms: C_7  and  C_8
REMARK    3  A    between atoms: C_8  and  N_9
REMARK                            x       y       z     vdW  Elec       q    Type
REMARK                         _______ _______ _______ _____ _____    ______ ____
ROOT
ATOM      1  N   UNL     1      19.173   9.450  36.943  0.00  0.00    +0.000 NA
ATOM      2  C   UNL     1      20.383  10.039  37.126  0.00  0.00    +0.000 A 
ATOM      3  N   UNL     1      21.539   9.710  36.442  0.00  0.00    +0.000 NA
ATOM      4  C   UNL     1      22.541  10.491  36.791  0.00  0.00    +0.000 A 
ATOM      5  C   UNL     1      23.904  10.573  36.374  0.00  0.00    +0.000 A 
ATOM      6  C   UNL     1      24.672  11.516  36.936  0.00  0.00    +0.000 A 
ATOM      7  C   UNL     1      24.200  12.386  37.871  0.00  0.00    +0.000 A 
ATOM      8  C   UNL     1      22.875  12.328  38.298  0.00  0.00    +0.000 A 
ATOM      9  C   UNL     1      22.041  11.355  37.738  0.00  0.00    +0.000 A 
ATOM     10  N   UNL     1      20.727  11.049  37.915  0.00  0.00    +0.000 N 
ATOM     11  C   UNL     1      19.868  11.777  38.869  0.00  0.00    +0.000 C 
ENDROOT
BRANCH   1  12
ATOM     12  C   UNL     1      17.838   9.675  37.319  0.00  0.00    +0.000 C 
BRANCH  12  17
ATOM     13  C   UNL     1      15.349  11.608  35.221  0.00  0.00    +0.000 A 
ATOM     14  C   UNL     1      15.775  11.344  33.957  0.00  0.00    +0.000 A 
ATOM     15  C   UNL     1      16.881  10.558  33.681  0.00  0.00    +0.000 A 
ATOM     16  C   UNL     1      17.597   9.996  34.763  0.00  0.00    +0.000 A 
ATOM     17  C   UNL     1      17.213  10.231  36.024  0.00  0.00    +0.000 A 
ATOM     18  C   UNL     1      16.079  11.048  36.244  0.00  0.00    +0.000 A 
ATOM     19  O   UNL     1      15.749  11.250  37.584  0.00  0.00    +0.000 OA
BRANCH  13  21
ATOM     20  C   UNL     1      14.073  13.606  34.791  0.00  0.00    +0.000 C 
ATOM     21  O   UNL     1      14.237  12.401  35.479  0.00  0.00    +0.000 OA
ENDBRANCH  13  21
ENDBRANCH  12  17
ENDBRANCH   1  12
TORSDOF 3
ENDMDL
MODEL 3
REMARK VINA RESULT:      -6.6     20.723     21.902
REMARK  Name = 
REMARK  3 active torsions:
REMARK  status: ('A' for Active; 'I' for Inactive)
REMARK    1  A    between atoms: O_2  and  C_3
REMARK    2  A    between atoms: C_7  and  C_8
REMARK    3  A    between atoms: C_8  and  N_9
REMARK                            x       y       z     vdW  Elec       q    Type
REMARK                         _______ _______ _______ _____ _____    ______ ____
ROOT
ATOM      1  N   UNL     1      28.532  23.920  22.061  0.00  0.00    +0.000 NA
ATOM      2  C   UNL     1      28.895  25.118  21.536  0.00  0.00    +0.000 A 
ATOM      3  N   UNL     1      29.599  25.289  20.358  0.00  0.00    +0.000 NA
ATOM      4  C   UNL     1      29.754  26.566  20.074  0.00  0.00    +0.000 A 
ATOM      5  C   UNL     1      30.375  27.255  18.989  0.00  0.00    +0.000 A 
ATOM      6  C   UNL     1      30.344  28.594  19.000  0.00  0.00    +0.000 A 
ATOM      7  C   UNL     1      29.745  29.306  19.995  0.00  0.00    +0.000 A 
ATOM      8  C   UNL     1      29.133  28.661  21.068  0.00  0.00    +0.000 A 
ATOM      9  C   UNL     1      29.148  27.262  21.094  0.00  0.00    +0.000 A 
ATOM     10  N   UNL     1      28.638  26.348  21.963  0.00  0.00    +0.000 N 
ATOM     11  C   UNL     1      27.914  26.740  23.188  0.00  0.00    +0.000 C 
ENDROOT
BRANCH   1  12
ATOM     12  C   UNL     1      27.692  23.441  23.082  0.00  0.00    +0.000 C 
BRANCH  12  17
ATOM     13  C   UNL     1      28.805  22.351  26.532  0.00  0.00    +0.000 A 
ATOM     14  C   UNL     1      30.159  22.338  26.405  0.00  0.00    +0.000 A 
ATOM     15  C   UNL     1      30.810  22.653  25.224  0.00  0.00    +0.000 A 
ATOM     16  C   UNL     1      30.032  23.012  24.099  0.00  0.00    +0.000 A 
ATOM     17  C   UNL     1      28.696  23.036  24.180  0.00  0.00    +0.000 A 
ATOM     18  C   UNL     1      28.087  22.699  25.411  0.00  0.00    +0.000 A 
ATOM     19  O   UNL     1      26.693  22.741  25.411  0.00  0.00    +0.000 OA
BRANCH  13  21
ATOM     20  C   UNL     1      28.084  22.988  28.741  0.00  0.00    +0.000 C 
ATOM     21  O   UNL     1      28.168  22.031  27.725  0.00  0.00    +0.000 OA
ENDBRANCH  13  21
ENDBRANCH  12  17
ENDBRANCH   1  12
TORSDOF 3
ENDMDL
MODEL 4
REMARK VINA RESULT:      -6.3      2.871      7.530
REMARK  Name = 
REMARK  3 active torsions:
REMARK  status: ('A' for Active; 'I' for Inactive)
REMARK    1  A    between atoms: O_2  and  C_3
REMARK    2  A    between atoms: C_7  and  C_8
REMARK    3  A    between atoms: C_8  and  N_9
REMARK                            x       y       z     vdW  Elec       q    Type
REMARK                         _______ _______ _______ _____ _____    ______ ____
ROOT
ATOM      1  N   UNL     1      18.332  11.239  37.827  0.00  0.00    +0.000 NA
ATOM      2  C   UNL     1      19.617  11.643  37.996  0.00  0.00    +0.000 A 
ATOM      3  N   UNL     1      20.009  12.781  38.677  0.00  0.00    +0.000 NA
ATOM      4  C   UNL     1      21.322  12.882  38.726  0.00  0.00    +0.000 A 
ATOM      5  C   UNL     1      22.204  13.838  39.314  0.00  0.00    +0.000 A 
ATOM      6  C   UNL     1      23.522  13.630  39.188  0.00  0.00    +0.000 A 
ATOM      7  C   UNL     1      24.035  12.553  38.531  0.00  0.00    +0.000 A 
ATOM      8  C   UNL     1      23.198  11.606  37.945  0.00  0.00    +0.000 A 
ATOM      9  C   UNL     1      21.815  11.789  38.053  0.00  0.00    +0.000 A 
ATOM     10  N   UNL     1      20.749  11.060  37.624  0.00  0.00    +0.000 N 
ATOM     11  C   UNL     1      20.905   9.809  36.856  0.00  0.00    +0.000 C 
ENDROOT
BRANCH   1  12
ATOM     12  C   UNL     1      17.651  10.094  37.379  0.00  0.00    +0.000 C 
BRANCH  12  17
ATOM     13  C   UNL     1      16.312  10.843  33.918  0.00  0.00    +0.000 A 
ATOM     14  C   UNL     1      15.216  11.598  34.193  0.00  0.00    +0.000 A 
ATOM     15  C   UNL     1      14.815  11.907  35.482  0.00  0.00    +0.000 A 
ATOM     16  C   UNL     1      15.585  11.420  36.563  0.00  0.00    +0.000 A 
ATOM     17  C   UNL     1      16.671  10.671  36.337  0.00  0.00    +0.000 A 
ATOM     18  C   UNL     1      17.028  10.384  35.000  0.00  0.00    +0.000 A 
ATOM     19  O   UNL     1      18.167   9.593  34.850  0.00  0.00    +0.000 OA
BRANCH  13  21
ATOM     20  C   UNL     1      15.748  10.556  31.593  0.00  0.00    +0.000 C 
ATOM     21  O   UNL     1      16.699  10.542  32.617  0.00  0.00    +0.000 OA
ENDBRANCH  13  21
ENDBRANCH  12  17
ENDBRANCH   1  12
TORSDOF 3
ENDMDL
MODEL 5
REMARK VINA RESULT:      -6.3     19.267     21.759
REMARK  Name = 
REMARK  3 active torsions:
REMARK  status: ('A' for Active; 'I' for Inactive)
REMARK    1  A    between atoms: O_2  and  C_3
REMARK    2  A    between atoms: C_7  and  C_8
REMARK    3  A    between atoms: C_8  and  N_9
REMARK                            x       y       z     vdW  Elec       q    Type
REMARK                         _______ _______ _______ _____ _____    ______ ____
ROOT
ATOM      1  N   UNL     1      33.668  -1.834  33.791  0.00  0.00    +0.000 NA
ATOM      2  C   UNL     1      33.741  -0.493  33.995  0.00  0.00    +0.000 A 
ATOM      3  N   UNL     1      33.618   0.468  33.009  0.00  0.00    +0.000 NA
ATOM      4  C   UNL     1      33.674   1.683  33.515  0.00  0.00    +0.000 A 
ATOM      5  C   UNL     1      33.579   2.985  32.937  0.00  0.00    +0.000 A 
ATOM      6  C   UNL     1      33.666   4.040  33.758  0.00  0.00    +0.000 A 
ATOM      7  C   UNL     1      33.833   3.911  35.104  0.00  0.00    +0.000 A 
ATOM      8  C   UNL     1      33.931   2.653  35.695  0.00  0.00    +0.000 A 
ATOM      9  C   UNL     1      33.848   1.526  34.870  0.00  0.00    +0.000 A 
ATOM     10  N   UNL     1      33.884   0.190  35.123  0.00  0.00    +0.000 N 
ATOM     11  C   UNL     1      34.065  -0.352  36.484  0.00  0.00    +0.000 C 
ENDROOT
BRANCH   1  12
ATOM     12  C   UNL     1      33.565  -3.001  34.567  0.00  0.00    +0.000 C 
BRANCH  12  17
ATOM     13  C   UNL     1      31.636  -5.960  33.203  0.00  0.00    +0.000 A 
ATOM     14  C   UNL     1      32.205  -6.132  31.980  0.00  0.00    +0.000 A 
ATOM     15  C   UNL     1      33.218  -5.321  31.496  0.00  0.00    +0.000 A 
ATOM     16  C   UNL     1      33.688  -4.268  32.315  0.00  0.00    +0.000 A 
ATOM     17  C   UNL     1      33.155  -4.062  33.525  0.00  0.00    +0.000 A 
ATOM     18  C   UNL     1      32.119  -4.919  33.963  0.00  0.00    +0.000 A 
ATOM     19  O   UNL     1      31.613  -4.634  35.231  0.00  0.00    +0.000 OA
BRANCH  13  21
ATOM     20  C   UNL     1      30.097  -7.777  32.839  0.00  0.00    +0.000 C 
ATOM     21  O   UNL     1      30.619  -6.783  33.671  0.00  0.00    +0.000 OA
ENDBRANCH  13  21
ENDBRANCH  12  17
ENDBRANCH   1  12
TORSDOF 3
ENDMDL
MODEL 6
REMARK VINA RESULT:      -6.3     19.770     21.577
REMARK  Name = 
REMARK  3 active torsions:
REMARK  status: ('A' for Active; 'I' for Inactive)
REMARK    1  A    between atoms: O_2  and  C_3
REMARK    2  A    between atoms: C_7  and  C_8
REMARK    3  A    between atoms: C_8  and  N_9
REMARK                            x       y       z     vdW  Elec       q    Type
REMARK                         _______ _______ _______ _____ _____    ______ ____
ROOT
ATOM      1  N   UNL     1      27.329  24.221  24.088  0.00  0.00    +0.000 NA
ATOM      2  C   UNL     1      27.344  23.890  25.404  0.00  0.00    +0.000 A 
ATOM      3  N   UNL     1      26.328  24.163  26.303  0.00  0.00    +0.000 NA
ATOM      4  C   UNL     1      26.599  23.670  27.495  0.00  0.00    +0.000 A 
ATOM      5  C   UNL     1      25.885  23.662  28.731  0.00  0.00    +0.000 A 
ATOM      6  C   UNL     1      26.454  23.045  29.776  0.00  0.00    +0.000 A 
ATOM      7  C   UNL     1      27.668  22.433  29.694  0.00  0.00    +0.000 A 
ATOM      8  C   UNL     1      28.388  22.427  28.501  0.00  0.00    +0.000 A 
ATOM      9  C   UNL     1      27.829  23.063  27.388  0.00  0.00    +0.000 A 
ATOM     10  N   UNL     1      28.249  23.218  26.103  0.00  0.00    +0.000 N 
ATOM     11  C   UNL     1      29.542  22.691  25.625  0.00  0.00    +0.000 C 
ENDROOT
BRANCH   1  12
ATOM     12  C   UNL     1      28.076  23.932  22.932  0.00  0.00    +0.000 C 
BRANCH  12  17
ATOM     13  C   UNL     1      29.304  26.477  20.413  0.00  0.00    +0.000 A 
ATOM     14  C   UNL     1      28.603  27.588  20.764  0.00  0.00    +0.000 A 
ATOM     15  C   UNL     1      27.686  27.606  21.802  0.00  0.00    +0.000 A 
ATOM     16  C   UNL     1      27.474  26.416  22.536  0.00  0.00    +0.000 A 
ATOM     17  C   UNL     1      28.142  25.300  22.223  0.00  0.00    +0.000 A 
ATOM     18  C   UNL     1      29.061  25.340  21.149  0.00  0.00    +0.000 A 
ATOM     19  O   UNL     1      29.711  24.135  20.883  0.00  0.00    +0.000 OA
BRANCH  13  21
ATOM     20  C   UNL     1      30.660  27.692  18.835  0.00  0.00    +0.000 C 
ATOM     21  O   UNL     1      30.219  26.477  19.367  0.00  0.00    +0.000 OA
ENDBRANCH  13  21
ENDBRANCH  12  17
ENDBRANCH   1  12
TORSDOF 3
ENDMDL
MODEL 7
REMARK VINA RESULT:      -6.3      3.576      7.982
REMARK  Name = 
REMARK  3 active torsions:
REMARK  status: ('A' for Active; 'I' for Inactive)
REMARK    1  A    between atoms: O_2  and  C_3
REMARK    2  A    between atoms: C_7  and  C_8
REMARK    3  A    between atoms: C_8  and  N_9
REMARK                            x       y       z     vdW  Elec       q    Type
REMARK                         _______ _______ _______ _____ _____    ______ ____
ROOT
ATOM      1  N   UNL     1      17.006  10.828  38.139  0.00  0.00    +0.000 NA
ATOM      2  C   UNL     1      17.089   9.930  39.154  0.00  0.00    +0.000 A 
ATOM      3  N   UNL     1      16.090   9.681  40.077  0.00  0.00    +0.000 NA
ATOM      4  C   UNL     1      16.435   8.716  40.907  0.00  0.00    +0.000 A 
ATOM      5  C   UNL     1      15.767   8.087  42.000  0.00  0.00    +0.000 A 
ATOM      6  C   UNL     1      16.413   7.103  42.642  0.00  0.00    +0.000 A 
ATOM      7  C   UNL     1      17.661   6.691  42.286  0.00  0.00    +0.000 A 
ATOM      8  C   UNL     1      18.337   7.289  41.224  0.00  0.00    +0.000 A 
ATOM      9  C   UNL     1      17.698   8.322  40.531  0.00  0.00    +0.000 A 
ATOM     10  N   UNL     1      18.061   9.082  39.463  0.00  0.00    +0.000 N 
ATOM     11  C   UNL     1      19.369   8.933  38.795  0.00  0.00    +0.000 C 
ENDROOT
BRANCH   1  12
ATOM     12  C   UNL     1      17.729  11.160  36.980  0.00  0.00    +0.000 C 
BRANCH  12  17
ATOM     13  C   UNL     1      15.893  11.386  33.676  0.00  0.00    +0.000 A 
ATOM     14  C   UNL     1      14.878  12.240  33.971  0.00  0.00    +0.000 A 
ATOM     15  C   UNL     1      14.692  12.787  35.230  0.00  0.00    +0.000 A 
ATOM     16  C   UNL     1      15.605  12.447  36.255  0.00  0.00    +0.000 A 
ATOM     17  C   UNL     1      16.619  11.608  36.008  0.00  0.00    +0.000 A 
ATOM     18  C   UNL     1      16.754  11.076  34.705  0.00  0.00    +0.000 A 
ATOM     19  O   UNL     1      17.830  10.206  34.532  0.00  0.00    +0.000 OA
BRANCH  13  21
ATOM     20  C   UNL     1      15.993  11.678  31.286  0.00  0.00    +0.000 C 
ATOM     21  O   UNL     1      16.064  10.845  32.407  0.00  0.00    +0.000 OA
ENDBRANCH  13  21
ENDBRANCH  12  17
ENDBRANCH   1  12
TORSDOF 3
ENDMDL
MODEL 8
REMARK VINA RESULT:      -6.3     18.163     19.563
REMARK  Name = 
REMARK  3 active torsions:
REMARK  status: ('A' for Active; 'I' for Inactive)
REMARK    1  A    between atoms: O_2  and  C_3
REMARK    2  A    between atoms: C_7  and  C_8
REMARK    3  A    between atoms: C_8  and  N_9
REMARK                            x       y       z     vdW  Elec       q    Type
REMARK                         _______ _______ _______ _____ _____    ______ ____
ROOT
ATOM      1  N   UNL     1      25.937  23.800  25.744  0.00  0.00    +0.000 NA
ATOM      2  C   UNL     1      25.691  24.352  26.960  0.00  0.00    +0.000 A 
ATOM      3  N   UNL     1      24.816  25.396  27.196  0.00  0.00    +0.000 NA
ATOM      4  C   UNL     1      24.742  25.677  28.482  0.00  0.00    +0.000 A 
ATOM      5  C   UNL     1      23.988  26.632  29.228  0.00  0.00    +0.000 A 
ATOM      6  C   UNL     1      24.141  26.645  30.559  0.00  0.00    +0.000 A 
ATOM      7  C   UNL     1      24.976  25.787  31.210  0.00  0.00    +0.000 A 
ATOM      8  C   UNL     1      25.726  24.847  30.507  0.00  0.00    +0.000 A 
ATOM      9  C   UNL     1      25.596  24.804  29.115  0.00  0.00    +0.000 A 
ATOM     10  N   UNL     1      26.154  24.015  28.157  0.00  0.00    +0.000 N 
ATOM     11  C   UNL     1      27.131  22.956  28.476  0.00  0.00    +0.000 C 
ENDROOT
BRANCH   1  12
ATOM     12  C   UNL     1      26.586  22.666  25.227  0.00  0.00    +0.000 C 
BRANCH  12  17
ATOM     13  C   UNL     1      29.238  23.881  22.813  0.00  0.00    +0.000 A 
ATOM     14  C   UNL     1      30.282  24.143  23.644  0.00  0.00    +0.000 A 
ATOM     15  C   UNL     1      30.217  23.973  25.017  0.00  0.00    +0.000 A 
ATOM     16  C   UNL     1      29.010  23.497  25.581  0.00  0.00    +0.000 A 
ATOM     17  C   UNL     1      27.957  23.228  24.800  0.00  0.00    +0.000 A 
ATOM     18  C   UNL     1      28.082  23.427  23.406  0.00  0.00    +0.000 A 
ATOM     19  O   UNL     1      26.939  23.131  22.663  0.00  0.00    +0.000 OA
BRANCH  13  21
ATOM     20  C   UNL     1      29.271  25.350  20.904  0.00  0.00    +0.000 C 
ATOM     21  O   UNL     1      29.322  24.059  21.437  0.00  0.00    +0.000 OA
ENDBRANCH  13  21
ENDBRANCH  12  17
ENDBRANCH   1  12
TORSDOF 3
ENDMDL
MODEL 9
REMARK VINA RESULT:      -6.2     21.140     23.416
REMARK  Name = 
REMARK  3 active torsions:
REMARK  status: ('A' for Active; 'I' for Inactive)
REMARK    1  A    between atoms: O_2  and  C_3
REMARK    2  A    between atoms: C_7  and  C_8
REMARK    3  A    between atoms: C_8  and  N_9
REMARK                            x       y       z     vdW  Elec       q    Type
REMARK                         _______ _______ _______ _____ _____    ______ ____
ROOT
ATOM      1  N   UNL     1      33.450  -4.062  32.957  0.00  0.00    +0.000 NA
ATOM      2  C   UNL     1      33.686  -4.935  31.944  0.00  0.00    +0.000 A 
ATOM      3  N   UNL     1      33.235  -4.785  30.645  0.00  0.00    +0.000 NA
ATOM      4  C   UNL     1      33.671  -5.760  29.872  0.00  0.00    +0.000 A 
ATOM      5  C   UNL     1      33.508  -6.049  28.484  0.00  0.00    +0.000 A 
ATOM      6  C   UNL     1      34.111  -7.143  28.000  0.00  0.00    +0.000 A 
ATOM      7  C   UNL     1      34.864  -7.970  28.777  0.00  0.00    +0.000 A 
ATOM      8  C   UNL     1      35.037  -7.714  30.136  0.00  0.00    +0.000 A 
ATOM      9  C   UNL     1      34.421  -6.583  30.680  0.00  0.00    +0.000 A 
ATOM     10  N   UNL     1      34.407  -6.048  31.931  0.00  0.00    +0.000 N 
ATOM     11  C   UNL     1      35.113  -6.675  33.066  0.00  0.00    +0.000 C 
ENDROOT
BRANCH   1  12
ATOM     12  C   UNL     1      33.905  -3.840  34.268  0.00  0.00    +0.000 C 
BRANCH  12  17
ATOM     13  C   UNL     1      33.088  -0.632  36.106  0.00  0.00    +0.000 A 
ATOM     14  C   UNL     1      33.194   0.297  35.120  0.00  0.00    +0.000 A 
ATOM     15  C   UNL     1      33.547  -0.018  33.818  0.00  0.00    +0.000 A 
ATOM     16  C   UNL     1      33.801  -1.372  33.498  0.00  0.00    +0.000 A 
ATOM     17  C   UNL     1      33.709  -2.320  34.439  0.00  0.00    +0.000 A 
ATOM     18  C   UNL     1      33.351  -1.936  35.752  0.00  0.00    +0.000 A 
ATOM     19  O   UNL     1      33.283  -2.980  36.674  0.00  0.00    +0.000 OA
BRANCH  13  21
ATOM     20  C   UNL     1      33.603   0.477  38.182  0.00  0.00    +0.000 C 
ATOM     21  O   UNL     1      32.733  -0.297  37.408  0.00  0.00    +0.000 OA
ENDBRANCH  13  21
ENDBRANCH  12  17
ENDBRANCH   1  12
TORSDOF 3
ENDMDL
MODEL 10
REMARK VINA RESULT:      -6.0     19.731     22.471
REMARK  Name = 
REMARK  3 active torsions:
REMARK  status: ('A' for Active; 'I' for Inactive)
REMARK    1  A    between atoms: O_2  and  C_3
REMARK    2  A    between atoms: C_7  and  C_8
REMARK    3  A    between atoms: C_8  and  N_9
REMARK                            x       y       z     vdW  Elec       q    Type
REMARK                         _______ _______ _______ _____ _____    ______ ____
ROOT
ATOM      1  N   UNL     1      33.180  -1.929  33.814  0.00  0.00    +0.000 NA
ATOM      2  C   UNL     1      33.411  -0.622  34.102  0.00  0.00    +0.000 A 
ATOM      3  N   UNL     1      33.394   0.410  33.182  0.00  0.00    +0.000 NA
ATOM      4  C   UNL     1      33.595   1.574  33.765  0.00  0.00    +0.000 A 
ATOM      5  C   UNL     1      33.649   2.913  33.273  0.00  0.00    +0.000 A 
ATOM      6  C   UNL     1      33.864   3.895  34.159  0.00  0.00    +0.000 A 
ATOM      7  C   UNL     1      34.025   3.659  35.491  0.00  0.00    +0.000 A 
ATOM      8  C   UNL     1      33.979   2.362  35.999  0.00  0.00    +0.000 A 
ATOM      9  C   UNL     1      33.760   1.309  35.104  0.00  0.00    +0.000 A 
ATOM     10  N   UNL     1      33.641  -0.036  35.270  0.00  0.00    +0.000 N 
ATOM     11  C   UNL     1      33.766  -0.684  36.590  0.00  0.00    +0.000 C 
ENDROOT
BRANCH   1  12
ATOM     12  C   UNL     1      32.947  -3.125  34.514  0.00  0.00    +0.000 C 
BRANCH  12  17
ATOM     13  C   UNL     1      35.526  -5.813  33.839  0.00  0.00    +0.000 A 
ATOM     14  C   UNL     1      35.360  -6.041  32.509  0.00  0.00    +0.000 A 
ATOM     15  C   UNL     1      34.416  -5.379  31.741  0.00  0.00    +0.000 A 
ATOM     16  C   UNL     1      33.591  -4.416  32.367  0.00  0.00    +0.000 A 
ATOM     17  C   UNL     1      33.720  -4.162  33.675  0.00  0.00    +0.000 A 
ATOM     18  C   UNL     1      34.697  -4.874  34.409  0.00  0.00    +0.000 A 
ATOM     19  O   UNL     1      34.763  -4.556  35.765  0.00  0.00    +0.000 OA
BRANCH  13  21
ATOM     20  C   UNL     1      36.953  -7.728  34.159  0.00  0.00    +0.000 C 
ATOM     21  O   UNL     1      36.478  -6.488  34.595  0.00  0.00    +0.000 OA
ENDBRANCH  13  21
ENDBRANCH  12  17
ENDBRANCH   1  12
TORSDOF 3
ENDMDL
