MODEL 1
REMARK VINA RESULT:      -5.5      0.000      0.000
REMARK  Name = 
REMARK  6 active torsions:
REMARK  status: ('A' for Active; 'I' for Inactive)
REMARK    1  A    between atoms: C_2  and  C_5
REMARK    2  A    between atoms: C_5  and  C_6
REMARK    3  A    between atoms: N_8  and  C_9
REMARK    4  A    between atoms: C_9  and  N_11
REMARK    5  A    between atoms: N_11  and  C_12
REMARK    6  A    between atoms: C_17  and  N_18
REMARK                            x       y       z     vdW  Elec       q    Type
REMARK                         _______ _______ _______ _____ _____    ______ ____
ROOT
ATOM      1  C   UNL     1      25.682  24.198  25.683  0.00  0.00    +0.000 C 
ATOM      2  S   UNL     1      25.323  25.707  25.217  0.00  0.00    +0.000 S 
ENDROOT
BRANCH   1   5
ATOM      3  C   UNL     1      26.258  24.265  28.052  0.00  0.00    +0.000 C 
ATOM      4  O   UNL     1      27.219  25.047  27.769  0.00  0.00    +0.000 OA
ATOM      5  N   UNL     1      25.430  23.795  27.009  0.00  0.00    +0.000 NA
BRANCH   3   6
ATOM      6  C   UNL     1      26.032  23.871  29.446  0.00  0.00    +0.000 C 
BRANCH   6   8
ATOM      7  C   UNL     1      26.313  21.649  30.551  0.00  0.00    +0.000 C 
ATOM      8  C   UNL     1      27.003  22.782  29.835  0.00  0.00    +0.000 C 
ATOM      9  C   UNL     1      27.723  22.235  28.612  0.00  0.00    +0.000 C 
ATOM     10  C   UNL     1      28.016  23.417  30.781  0.00  0.00    +0.000 C 
ENDBRANCH   6   8
ENDBRANCH   3   6
ENDBRANCH   1   5
BRANCH   1  11
ATOM     11  N   UNL     1      26.245  23.299  24.757  0.00  0.00    +0.000 NA
BRANCH  11  12
ATOM     12  C   UNL     1      27.646  23.263  24.567  0.00  0.00    +0.000 A 
ATOM     13  C   UNL     1      28.536  22.780  25.496  0.00  0.00    +0.000 A 
ATOM     14  C   UNL     1      29.894  22.774  25.247  0.00  0.00    +0.000 A 
ATOM     15  C   UNL     1      30.409  23.251  24.059  0.00  0.00    +0.000 A 
ATOM     16  C   UNL     1      29.501  23.731  23.139  0.00  0.00    +0.000 A 
ATOM     17  C   UNL     1      28.141  23.745  23.372  0.00  0.00    +0.000 A 
BRANCH  17  18
ATOM     18  N   UNL     1      27.244  24.249  22.393  0.00  0.00    +0.000 N 
ATOM     19  O   UNL     1      27.209  25.476  22.199  0.00  0.00    +0.000 OA
ATOM     20  O   UNL     1      26.434  23.441  21.672  0.00  0.00    +0.000 OA
ENDBRANCH  17  18
ENDBRANCH  11  12
ENDBRANCH   1  11
TORSDOF 6
ENDMDL
MODEL 2
REMARK VINA RESULT:      -5.5      2.255      2.932
REMARK  Name = 
REMARK  6 active torsions:
REMARK  status: ('A' for Active; 'I' for Inactive)
REMARK    1  A    between atoms: C_2  and  C_5
REMARK    2  A    between atoms: C_5  and  C_6
REMARK    3  A    between atoms: N_8  and  C_9
REMARK    4  A    between atoms: C_9  and  N_11
REMARK    5  A    between atoms: N_11  and  C_12
REMARK    6  A    between atoms: C_17  and  N_18
REMARK                            x       y       z     vdW  Elec       q    Type
REMARK                         _______ _______ _______ _____ _____    ______ ____
ROOT
ATOM      1  C   UNL     1      28.978  23.188  25.411  0.00  0.00    +0.000 C 
ATOM      2  S   UNL     1      30.506  22.833  25.810  0.00  0.00    +0.000 S 
ENDROOT
BRANCH   1   5
ATOM      3  C   UNL     1      27.398  22.950  27.254  0.00  0.00    +0.000 C 
ATOM      4  O   UNL     1      27.536  21.690  27.175  0.00  0.00    +0.000 OA
ATOM      5  N   UNL     1      28.122  23.774  26.364  0.00  0.00    +0.000 NA
BRANCH   3   6
ATOM      6  C   UNL     1      26.497  23.517  28.261  0.00  0.00    +0.000 C 
BRANCH   6   8
ATOM      7  C   UNL     1      26.652  21.876  30.138  0.00  0.00    +0.000 C 
ATOM      8  C   UNL     1      27.038  23.247  29.645  0.00  0.00    +0.000 C 
ATOM      9  C   UNL     1      28.554  23.378  29.669  0.00  0.00    +0.000 C 
ATOM     10  C   UNL     1      26.423  24.293  30.567  0.00  0.00    +0.000 C 
ENDBRANCH   6   8
ENDBRANCH   3   6
ENDBRANCH   1   5
BRANCH   1  11
ATOM     11  N   UNL     1      28.515  22.908  24.111  0.00  0.00    +0.000 NA
BRANCH  11  12
ATOM     12  C   UNL     1      28.495  23.929  23.132  0.00  0.00    +0.000 A 
ATOM     13  C   UNL     1      29.615  24.596  22.695  0.00  0.00    +0.000 A 
ATOM     14  C   UNL     1      29.527  25.585  21.735  0.00  0.00    +0.000 A 
ATOM     15  C   UNL     1      28.315  25.939  21.178  0.00  0.00    +0.000 A 
ATOM     16  C   UNL     1      27.204  25.258  21.628  0.00  0.00    +0.000 A 
ATOM     17  C   UNL     1      27.274  24.268  22.587  0.00  0.00    +0.000 A 
BRANCH  17  18
ATOM     18  N   UNL     1      26.101  23.594  23.019  0.00  0.00    +0.000 N 
ATOM     19  O   UNL     1      25.567  22.782  22.244  0.00  0.00    +0.000 OA
ATOM     20  O   UNL     1      25.551  23.809  24.236  0.00  0.00    +0.000 OA
ENDBRANCH  17  18
ENDBRANCH  11  12
ENDBRANCH   1  11
TORSDOF 6
ENDMDL
MODEL 3
REMARK VINA RESULT:      -5.5      2.343      6.316
REMARK  Name = 
REMARK  6 active torsions:
REMARK  status: ('A' for Active; 'I' for Inactive)
REMARK    1  A    between atoms: C_2  and  C_5
REMARK    2  A    between atoms: C_5  and  C_6
REMARK    3  A    between atoms: N_8  and  C_9
REMARK    4  A    between atoms: C_9  and  N_11
REMARK    5  A    between atoms: N_11  and  C_12
REMARK    6  A    between atoms: C_17  and  N_18
REMARK                            x       y       z     vdW  Elec       q    Type
REMARK                         _______ _______ _______ _____ _____    ______ ____
ROOT
ATOM      1  C   UNL     1      27.062  23.763  26.864  0.00  0.00    +0.000 C 
ATOM      2  S   UNL     1      26.874  25.319  27.269  0.00  0.00    +0.000 S 
ENDROOT
BRANCH   1   5
ATOM      3  C   UNL     1      28.417  23.607  24.841  0.00  0.00    +0.000 C 
ATOM      4  O   UNL     1      29.387  24.117  25.484  0.00  0.00    +0.000 OA
ATOM      5  N   UNL     1      27.189  23.402  25.508  0.00  0.00    +0.000 NA
BRANCH   3   6
ATOM      6  C   UNL     1      28.593  23.246  23.432  0.00  0.00    +0.000 C 
BRANCH   6   8
ATOM      7  C   UNL     1      27.914  25.649  23.348  0.00  0.00    +0.000 C 
ATOM      8  C   UNL     1      28.166  24.395  22.550  0.00  0.00    +0.000 C 
ATOM      9  C   UNL     1      29.217  24.682  21.488  0.00  0.00    +0.000 C 
ATOM     10  C   UNL     1      26.865  23.971  21.878  0.00  0.00    +0.000 C 
ENDBRANCH   6   8
ENDBRANCH   3   6
ENDBRANCH   1   5
BRANCH   1  11
ATOM     11  N   UNL     1      27.098  22.780  27.871  0.00  0.00    +0.000 NA
BRANCH  11  12
ATOM     12  C   UNL     1      28.171  22.751  28.793  0.00  0.00    +0.000 A 
ATOM     13  C   UNL     1      29.497  22.776  28.431  0.00  0.00    +0.000 A 
ATOM     14  C   UNL     1      30.497  22.744  29.382  0.00  0.00    +0.000 A 
ATOM     15  C   UNL     1      30.205  22.687  30.729  0.00  0.00    +0.000 A 
ATOM     16  C   UNL     1      28.870  22.663  31.074  0.00  0.00    +0.000 A 
ATOM     17  C   UNL     1      27.858  22.693  30.136  0.00  0.00    +0.000 A 
BRANCH  17  18
ATOM     18  N   UNL     1      26.497  22.667  30.539  0.00  0.00    +0.000 N 
ATOM     19  O   UNL     1      25.900  23.749  30.675  0.00  0.00    +0.000 OA
ATOM     20  O   UNL     1      25.837  21.512  30.779  0.00  0.00    +0.000 OA
ENDBRANCH  17  18
ENDBRANCH  11  12
ENDBRANCH   1  11
TORSDOF 6
ENDMDL
MODEL 4
REMARK VINA RESULT:      -5.4      2.382      3.130
REMARK  Name = 
REMARK  6 active torsions:
REMARK  status: ('A' for Active; 'I' for Inactive)
REMARK    1  A    between atoms: C_2  and  C_5
REMARK    2  A    between atoms: C_5  and  C_6
REMARK    3  A    between atoms: N_8  and  C_9
REMARK    4  A    between atoms: C_9  and  N_11
REMARK    5  A    between atoms: N_11  and  C_12
REMARK    6  A    between atoms: C_17  and  N_18
REMARK                            x       y       z     vdW  Elec       q    Type
REMARK                         _______ _______ _______ _____ _____    ______ ____
ROOT
ATOM      1  C   UNL     1      26.590  26.073  25.645  0.00  0.00    +0.000 C 
ATOM      2  S   UNL     1      26.289  27.568  26.188  0.00  0.00    +0.000 S 
ENDROOT
BRANCH   1   5
ATOM      3  C   UNL     1      28.603  25.194  26.706  0.00  0.00    +0.000 C 
ATOM      4  O   UNL     1      29.273  26.106  26.128  0.00  0.00    +0.000 OA
ATOM      5  N   UNL     1      27.209  25.131  26.491  0.00  0.00    +0.000 NA
BRANCH   3   6
ATOM      6  C   UNL     1      29.288  24.235  27.577  0.00  0.00    +0.000 C 
BRANCH   6   8
ATOM      7  C   UNL     1      28.193  22.025  27.182  0.00  0.00    +0.000 C 
ATOM      8  C   UNL     1      29.388  22.895  26.887  0.00  0.00    +0.000 C 
ATOM      9  C   UNL     1      29.520  23.070  25.382  0.00  0.00    +0.000 C 
ATOM     10  C   UNL     1      30.638  22.216  27.433  0.00  0.00    +0.000 C 
ENDBRANCH   6   8
ENDBRANCH   3   6
ENDBRANCH   1   5
BRANCH   1  11
ATOM     11  N   UNL     1      26.229  25.724  24.330  0.00  0.00    +0.000 NA
BRANCH  11  12
ATOM     12  C   UNL     1      27.230  25.399  23.384  0.00  0.00    +0.000 A 
ATOM     13  C   UNL     1      28.232  26.257  22.999  0.00  0.00    +0.000 A 
ATOM     14  C   UNL     1      29.179  25.877  22.069  0.00  0.00    +0.000 A 
ATOM     15  C   UNL     1      29.158  24.624  21.493  0.00  0.00    +0.000 A 
ATOM     16  C   UNL     1      28.146  23.776  21.892  0.00  0.00    +0.000 A 
ATOM     17  C   UNL     1      27.191  24.140  22.820  0.00  0.00    +0.000 A 
BRANCH  17  18
ATOM     18  N   UNL     1      26.168  23.231  23.200  0.00  0.00    +0.000 N 
ATOM     19  O   UNL     1      25.374  22.837  22.329  0.00  0.00    +0.000 OA
ATOM     20  O   UNL     1      26.033  22.787  24.470  0.00  0.00    +0.000 OA
ENDBRANCH  17  18
ENDBRANCH  11  12
ENDBRANCH   1  11
TORSDOF 6
ENDMDL
MODEL 5
REMARK VINA RESULT:      -5.4      3.074      6.466
REMARK  Name = 
REMARK  6 active torsions:
REMARK  status: ('A' for Active; 'I' for Inactive)
REMARK    1  A    between atoms: C_2  and  C_5
REMARK    2  A    between atoms: C_5  and  C_6
REMARK    3  A    between atoms: N_8  and  C_9
REMARK    4  A    between atoms: C_9  and  N_11
REMARK    5  A    between atoms: N_11  and  C_12
REMARK    6  A    between atoms: C_17  and  N_18
REMARK                            x       y       z     vdW  Elec       q    Type
REMARK                         _______ _______ _______ _____ _____    ______ ____
ROOT
ATOM      1  C   UNL     1      29.799  22.779  27.049  0.00  0.00    +0.000 C 
ATOM      2  S   UNL     1      31.111  22.329  27.883  0.00  0.00    +0.000 S 
ENDROOT
BRANCH   1   5
ATOM      3  C   UNL     1      30.260  23.340  24.720  0.00  0.00    +0.000 C 
ATOM      4  O   UNL     1      30.463  22.107  24.491  0.00  0.00    +0.000 OA
ATOM      5  N   UNL     1      29.913  23.744  26.028  0.00  0.00    +0.000 NA
BRANCH   3   6
ATOM      6  C   UNL     1      30.390  24.310  23.629  0.00  0.00    +0.000 C 
BRANCH   6   8
ATOM      7  C   UNL     1      28.173  23.317  23.046  0.00  0.00    +0.000 C 
ATOM      8  C   UNL     1      29.042  24.547  22.990  0.00  0.00    +0.000 C 
ATOM      9  C   UNL     1      28.318  25.702  23.667  0.00  0.00    +0.000 C 
ATOM     10  C   UNL     1      29.306  24.897  21.531  0.00  0.00    +0.000 C 
ENDBRANCH   6   8
ENDBRANCH   3   6
ENDBRANCH   1   5
BRANCH   1  11
ATOM     11  N   UNL     1      28.551  22.201  27.349  0.00  0.00    +0.000 NA
BRANCH  11  12
ATOM     12  C   UNL     1      27.401  23.018  27.460  0.00  0.00    +0.000 A 
ATOM     13  C   UNL     1      26.665  23.460  26.386  0.00  0.00    +0.000 A 
ATOM     14  C   UNL     1      25.552  24.256  26.563  0.00  0.00    +0.000 A 
ATOM     15  C   UNL     1      25.135  24.638  27.822  0.00  0.00    +0.000 A 
ATOM     16  C   UNL     1      25.884  24.184  28.887  0.00  0.00    +0.000 A 
ATOM     17  C   UNL     1      27.000  23.388  28.727  0.00  0.00    +0.000 A 
BRANCH  17  18
ATOM     18  N   UNL     1      27.740  22.945  29.855  0.00  0.00    +0.000 N 
ATOM     19  O   UNL     1      27.427  21.863  30.380  0.00  0.00    +0.000 OA
ATOM     20  O   UNL     1      28.766  23.660  30.371  0.00  0.00    +0.000 OA
ENDBRANCH  17  18
ENDBRANCH  11  12
ENDBRANCH   1  11
TORSDOF 6
ENDMDL
MODEL 6
REMARK VINA RESULT:      -5.4      1.836      2.283
REMARK  Name = 
REMARK  6 active torsions:
REMARK  status: ('A' for Active; 'I' for Inactive)
REMARK    1  A    between atoms: C_2  and  C_5
REMARK    2  A    between atoms: C_5  and  C_6
REMARK    3  A    between atoms: N_8  and  C_9
REMARK    4  A    between atoms: C_9  and  N_11
REMARK    5  A    between atoms: N_11  and  C_12
REMARK    6  A    between atoms: C_17  and  N_18
REMARK                            x       y       z     vdW  Elec       q    Type
REMARK                         _______ _______ _______ _____ _____    ______ ____
ROOT
ATOM      1  C   UNL     1      27.285  25.812  25.170  0.00  0.00    +0.000 C 
ATOM      2  S   UNL     1      26.108  26.335  24.188  0.00  0.00    +0.000 S 
ENDROOT
BRANCH   1   5
ATOM      3  C   UNL     1      26.309  24.241  26.761  0.00  0.00    +0.000 C 
ATOM      4  O   UNL     1      25.988  23.494  25.785  0.00  0.00    +0.000 OA
ATOM      5  N   UNL     1      26.982  25.455  26.499  0.00  0.00    +0.000 NA
BRANCH   3   6
ATOM      6  C   UNL     1      25.975  23.831  28.127  0.00  0.00    +0.000 C 
BRANCH   6   8
ATOM      7  C   UNL     1      27.844  22.214  27.763  0.00  0.00    +0.000 C 
ATOM      8  C   UNL     1      27.151  23.117  28.751  0.00  0.00    +0.000 C 
ATOM      9  C   UNL     1      28.157  24.114  29.307  0.00  0.00    +0.000 C 
ATOM     10  C   UNL     1      26.595  22.268  29.887  0.00  0.00    +0.000 C 
ENDBRANCH   6   8
ENDBRANCH   3   6
ENDBRANCH   1   5
BRANCH   1  11
ATOM     11  N   UNL     1      28.604  25.717  24.687  0.00  0.00    +0.000 NA
BRANCH  11  12
ATOM     12  C   UNL     1      29.446  24.671  25.131  0.00  0.00    +0.000 A 
ATOM     13  C   UNL     1      30.126  24.685  26.325  0.00  0.00    +0.000 A 
ATOM     14  C   UNL     1      30.934  23.630  26.699  0.00  0.00    +0.000 A 
ATOM     15  C   UNL     1      31.090  22.523  25.890  0.00  0.00    +0.000 A 
ATOM     16  C   UNL     1      30.401  22.527  24.696  0.00  0.00    +0.000 A 
ATOM     17  C   UNL     1      29.589  23.574  24.307  0.00  0.00    +0.000 A 
BRANCH  17  18
ATOM     18  N   UNL     1      28.898  23.531  23.067  0.00  0.00    +0.000 N 
ATOM     19  O   UNL     1      27.771  23.008  23.036  0.00  0.00    +0.000 OA
ATOM     20  O   UNL     1      29.426  24.038  21.929  0.00  0.00    +0.000 OA
ENDBRANCH  17  18
ENDBRANCH  11  12
ENDBRANCH   1  11
TORSDOF 6
ENDMDL
MODEL 7
REMARK VINA RESULT:      -5.3      2.719      3.692
REMARK  Name = 
REMARK  6 active torsions:
REMARK  status: ('A' for Active; 'I' for Inactive)
REMARK    1  A    between atoms: C_2  and  C_5
REMARK    2  A    between atoms: C_5  and  C_6
REMARK    3  A    between atoms: N_8  and  C_9
REMARK    4  A    between atoms: C_9  and  N_11
REMARK    5  A    between atoms: N_11  and  C_12
REMARK    6  A    between atoms: C_17  and  N_18
REMARK                            x       y       z     vdW  Elec       q    Type
REMARK                         _______ _______ _______ _____ _____    ______ ____
ROOT
ATOM      1  C   UNL     1      28.218  23.230  26.078  0.00  0.00    +0.000 C 
ATOM      2  S   UNL     1      27.689  24.669  26.599  0.00  0.00    +0.000 S 
ENDROOT
BRANCH   1   5
ATOM      3  C   UNL     1      30.405  22.698  27.019  0.00  0.00    +0.000 C 
ATOM      4  O   UNL     1      30.898  23.657  26.347  0.00  0.00    +0.000 OA
ATOM      5  N   UNL     1      29.022  22.433  26.917  0.00  0.00    +0.000 NA
BRANCH   3   6
ATOM      6  C   UNL     1      31.277  21.894  27.879  0.00  0.00    +0.000 C 
BRANCH   6   8
ATOM      7  C   UNL     1      32.778  23.590  28.932  0.00  0.00    +0.000 C 
ATOM      8  C   UNL     1      31.608  22.663  29.136  0.00  0.00    +0.000 C 
ATOM      9  C   UNL     1      30.408  23.469  29.610  0.00  0.00    +0.000 C 
ATOM     10  C   UNL     1      31.979  21.631  30.195  0.00  0.00    +0.000 C 
ENDBRANCH   6   8
ENDBRANCH   3   6
ENDBRANCH   1   5
BRANCH   1  11
ATOM     11  N   UNL     1      27.871  22.786  24.788  0.00  0.00    +0.000 NA
BRANCH  11  12
ATOM     12  C   UNL     1      28.167  23.587  23.660  0.00  0.00    +0.000 A 
ATOM     13  C   UNL     1      29.428  24.030  23.342  0.00  0.00    +0.000 A 
ATOM     14  C   UNL     1      29.650  24.811  22.225  0.00  0.00    +0.000 A 
ATOM     15  C   UNL     1      28.616  25.174  21.386  0.00  0.00    +0.000 A 
ATOM     16  C   UNL     1      27.358  24.719  21.721  0.00  0.00    +0.000 A 
ATOM     17  C   UNL     1      27.119  23.939  22.834  0.00  0.00    +0.000 A 
BRANCH  17  18
ATOM     18  N   UNL     1      25.805  23.494  23.138  0.00  0.00    +0.000 N 
ATOM     19  O   UNL     1      25.279  22.652  22.391  0.00  0.00    +0.000 OA
ATOM     20  O   UNL     1      25.116  23.956  24.206  0.00  0.00    +0.000 OA
ENDBRANCH  17  18
ENDBRANCH  11  12
ENDBRANCH   1  11
TORSDOF 6
ENDMDL
MODEL 8
REMARK VINA RESULT:      -5.2      1.985      2.409
REMARK  Name = 
REMARK  6 active torsions:
REMARK  status: ('A' for Active; 'I' for Inactive)
REMARK    1  A    between atoms: C_2  and  C_5
REMARK    2  A    between atoms: C_5  and  C_6
REMARK    3  A    between atoms: N_8  and  C_9
REMARK    4  A    between atoms: C_9  and  N_11
REMARK    5  A    between atoms: N_11  and  C_12
REMARK    6  A    between atoms: C_17  and  N_18
REMARK                            x       y       z     vdW  Elec       q    Type
REMARK                         _______ _______ _______ _____ _____    ______ ____
ROOT
ATOM      1  C   UNL     1      26.741  25.753  25.992  0.00  0.00    +0.000 C 
ATOM      2  S   UNL     1      26.323  27.146  26.705  0.00  0.00    +0.000 S 
ENDROOT
BRANCH   1   5
ATOM      3  C   UNL     1      26.819  23.801  27.452  0.00  0.00    +0.000 C 
ATOM      4  O   UNL     1      25.549  23.790  27.461  0.00  0.00    +0.000 OA
ATOM      5  N   UNL     1      27.489  24.797  26.707  0.00  0.00    +0.000 NA
BRANCH   3   6
ATOM      6  C   UNL     1      27.557  22.786  28.210  0.00  0.00    +0.000 C 
BRANCH   6   8
ATOM      7  C   UNL     1      26.889  24.422  29.976  0.00  0.00    +0.000 C 
ATOM      8  C   UNL     1      27.390  23.029  29.691  0.00  0.00    +0.000 C 
ATOM      9  C   UNL     1      26.429  22.018  30.300  0.00  0.00    +0.000 C 
ATOM     10  C   UNL     1      28.768  22.864  30.320  0.00  0.00    +0.000 C 
ENDBRANCH   6   8
ENDBRANCH   3   6
ENDBRANCH   1   5
BRANCH   1  11
ATOM     11  N   UNL     1      26.354  25.508  24.661  0.00  0.00    +0.000 NA
BRANCH  11  12
ATOM     12  C   UNL     1      27.335  25.257  23.673  0.00  0.00    +0.000 A 
ATOM     13  C   UNL     1      28.392  26.095  23.408  0.00  0.00    +0.000 A 
ATOM     14  C   UNL     1      29.316  25.791  22.429  0.00  0.00    +0.000 A 
ATOM     15  C   UNL     1      29.215  24.636  21.680  0.00  0.00    +0.000 A 
ATOM     16  C   UNL     1      28.149  23.807  21.961  0.00  0.00    +0.000 A 
ATOM     17  C   UNL     1      27.216  24.097  22.936  0.00  0.00    +0.000 A 
BRANCH  17  18
ATOM     18  N   UNL     1      26.135  23.211  23.189  0.00  0.00    +0.000 N 
ATOM     19  O   UNL     1      25.409  22.877  22.237  0.00  0.00    +0.000 OA
ATOM     20  O   UNL     1      25.874  22.725  24.424  0.00  0.00    +0.000 OA
ENDBRANCH  17  18
ENDBRANCH  11  12
ENDBRANCH   1  11
TORSDOF 6
ENDMDL
MODEL 9
REMARK VINA RESULT:      -5.2     28.418     29.612
REMARK  Name = 
REMARK  6 active torsions:
REMARK  status: ('A' for Active; 'I' for Inactive)
REMARK    1  A    between atoms: C_2  and  C_5
REMARK    2  A    between atoms: C_5  and  C_6
REMARK    3  A    between atoms: N_8  and  C_9
REMARK    4  A    between atoms: C_9  and  N_11
REMARK    5  A    between atoms: N_11  and  C_12
REMARK    6  A    between atoms: C_17  and  N_18
REMARK                            x       y       z     vdW  Elec       q    Type
REMARK                         _______ _______ _______ _____ _____    ______ ____
ROOT
ATOM      1  C   UNL     1      33.552  -4.632  33.384  0.00  0.00    +0.000 C 
ATOM      2  S   UNL     1      34.798  -5.313  34.163  0.00  0.00    +0.000 S 
ENDROOT
BRANCH   1   5
ATOM      3  C   UNL     1      32.712  -2.654  34.539  0.00  0.00    +0.000 C 
ATOM      4  O   UNL     1      32.291  -3.410  35.470  0.00  0.00    +0.000 OA
ATOM      5  N   UNL     1      33.373  -3.235  33.434  0.00  0.00    +0.000 NA
BRANCH   3   6
ATOM      6  C   UNL     1      32.504  -1.207  34.631  0.00  0.00    +0.000 C 
BRANCH   6   8
ATOM      7  C   UNL     1      34.925  -1.299  35.237  0.00  0.00    +0.000 C 
ATOM      8  C   UNL     1      33.833  -0.493  34.582  0.00  0.00    +0.000 C 
ATOM      9  C   UNL     1      34.231  -0.188  33.145  0.00  0.00    +0.000 C 
ATOM     10  C   UNL     1      33.658   0.812  35.349  0.00  0.00    +0.000 C 
ENDBRANCH   6   8
ENDBRANCH   3   6
ENDBRANCH   1   5
BRANCH   1  11
ATOM     11  N   UNL     1      32.656  -5.442  32.661  0.00  0.00    +0.000 NA
BRANCH  11  12
ATOM     12  C   UNL     1      32.937  -5.782  31.317  0.00  0.00    +0.000 A 
ATOM     13  C   UNL     1      33.897  -5.165  30.552  0.00  0.00    +0.000 A 
ATOM     14  C   UNL     1      34.121  -5.545  29.244  0.00  0.00    +0.000 A 
ATOM     15  C   UNL     1      33.391  -6.558  28.655  0.00  0.00    +0.000 A 
ATOM     16  C   UNL     1      32.433  -7.166  29.438  0.00  0.00    +0.000 A 
ATOM     17  C   UNL     1      32.196  -6.797  30.747  0.00  0.00    +0.000 A 
BRANCH  17  18
ATOM     18  N   UNL     1      31.198  -7.454  31.514  0.00  0.00    +0.000 N 
ATOM     19  O   UNL     1      31.502  -8.504  32.105  0.00  0.00    +0.000 OA
ATOM     20  O   UNL     1      29.937  -6.976  31.618  0.00  0.00    +0.000 OA
ENDBRANCH  17  18
ENDBRANCH  11  12
ENDBRANCH   1  11
TORSDOF 6
ENDMDL
MODEL 10
REMARK VINA RESULT:      -5.2     22.093     23.226
REMARK  Name = 
REMARK  6 active torsions:
REMARK  status: ('A' for Active; 'I' for Inactive)
REMARK    1  A    between atoms: C_2  and  C_5
REMARK    2  A    between atoms: C_5  and  C_6
REMARK    3  A    between atoms: N_8  and  C_9
REMARK    4  A    between atoms: C_9  and  N_11
REMARK    5  A    between atoms: N_11  and  C_12
REMARK    6  A    between atoms: C_17  and  N_18
REMARK                            x       y       z     vdW  Elec       q    Type
REMARK                         _______ _______ _______ _____ _____    ______ ____
ROOT
ATOM      1  C   UNL     1      24.487   2.933  16.315  0.00  0.00    +0.000 C 
ATOM      2  S   UNL     1      24.006   3.622  14.931  0.00  0.00    +0.000 S 
ENDROOT
BRANCH   1   5
ATOM      3  C   UNL     1      25.400   4.491  17.954  0.00  0.00    +0.000 C 
ATOM      4  O   UNL     1      24.224   4.928  18.154  0.00  0.00    +0.000 OA
ATOM      5  N   UNL     1      25.594   3.456  17.012  0.00  0.00    +0.000 NA
BRANCH   3   6
ATOM      6  C   UNL     1      26.523   5.064  18.702  0.00  0.00    +0.000 C 
BRANCH   6   8
ATOM      7  C   UNL     1      28.223   5.648  16.968  0.00  0.00    +0.000 C 
ATOM      8  C   UNL     1      27.161   6.173  17.900  0.00  0.00    +0.000 C 
ATOM      9  C   UNL     1      26.116   6.927  17.092  0.00  0.00    +0.000 C 
ATOM     10  C   UNL     1      27.810   7.120  18.902  0.00  0.00    +0.000 C 
ENDBRANCH   6   8
ENDBRANCH   3   6
ENDBRANCH   1   5
BRANCH   1  11
ATOM     11  N   UNL     1      23.794   1.813  16.813  0.00  0.00    +0.000 NA
BRANCH  11  12
ATOM     12  C   UNL     1      22.392   1.872  16.995  0.00  0.00    +0.000 A 
ATOM     13  C   UNL     1      21.763   2.750  17.844  0.00  0.00    +0.000 A 
ATOM     14  C   UNL     1      20.389   2.756  17.976  0.00  0.00    +0.000 A 
ATOM     15  C   UNL     1      19.595   1.882  17.262  0.00  0.00    +0.000 A 
ATOM     16  C   UNL     1      20.244   1.008  16.414  0.00  0.00    +0.000 A 
ATOM     17  C   UNL     1      21.616   0.989  16.271  0.00  0.00    +0.000 A 
BRANCH  17  18
ATOM     18  N   UNL     1      22.239   0.071  15.385  0.00  0.00    +0.000 N 
ATOM     19  O   UNL     1      22.553  -1.050  15.820  0.00  0.00    +0.000 OA
ATOM     20  O   UNL     1      22.498   0.377  14.093  0.00  0.00    +0.000 OA
ENDBRANCH  17  18
ENDBRANCH  11  12
ENDBRANCH   1  11
TORSDOF 6
ENDMDL
