MODEL 1
REMARK VINA RESULT:      -6.1      0.000      0.000
REMARK  Name = 
REMARK  5 active torsions:
REMARK  status: ('A' for Active; 'I' for Inactive)
REMARK    1  A    between atoms: C_2  and  C_4
REMARK    2  A    between atoms: C_9  and  N_10
REMARK    3  A    between atoms: C_11  and  C_13
REMARK    4  A    between atoms: C_13  and  C_14
REMARK    5  A    between atoms: C_14  and  C_15
REMARK                            x       y       z     vdW  Elec       q    Type
REMARK                         _______ _______ _______ _____ _____    ______ ____
ROOT
ATOM      1  N   UNL     1      29.413  25.768  22.619  0.00  0.00    +0.000 NA
ATOM      2  C   UNL     1      29.455  25.650  21.207  0.00  0.00    +0.000 C 
ATOM      3  O   UNL     1      29.731  24.529  20.718  0.00  0.00    +0.000 OA
ENDROOT
BRANCH   1   9
ATOM      4  C   UNL     1      28.630  23.832  23.846  0.00  0.00    +0.000 A 
ATOM      5  C   UNL     1      28.859  22.741  24.645  0.00  0.00    +0.000 A 
ATOM      6  C   UNL     1      30.139  22.445  25.058  0.00  0.00    +0.000 A 
ATOM      7  C   UNL     1      31.215  23.231  24.682  0.00  0.00    +0.000 A 
ATOM      8  C   UNL     1      30.936  24.314  23.880  0.00  0.00    +0.000 A 
ATOM      9  C   UNL     1      29.675  24.645  23.446  0.00  0.00    +0.000 A 
BRANCH   4  11
ATOM     10  N   UNL     1      26.716  23.469  22.297  0.00  0.00    +0.000 NA
ATOM     11  C   UNL     1      27.262  24.115  23.428  0.00  0.00    +0.000 C 
ATOM     12  O   UNL     1      26.535  24.934  24.054  0.00  0.00    +0.000 OA
ENDBRANCH   4  11
ENDBRANCH   1   9
BRANCH   2  13
ATOM     13  C   UNL     1      29.171  26.864  20.405  0.00  0.00    +0.000 C 
BRANCH  13  14
ATOM     14  C   UNL     1      30.043  26.872  19.156  0.00  0.00    +0.000 C 
BRANCH  14  15
ATOM     15  C   UNL     1      30.177  28.337  18.752  0.00  0.00    +0.000 C 
ATOM     16  C   UNL     1      31.347  28.400  17.783  0.00  0.00    +0.000 C 
ATOM     17  C   UNL     1      30.954  27.521  16.592  0.00  0.00    +0.000 C 
ATOM     18  C   UNL     1      29.819  28.271  15.893  0.00  0.00    +0.000 C 
ATOM     19  C   UNL     1      28.609  28.331  16.790  0.00  0.00    +0.000 C 
ATOM     20  C   UNL     1      28.911  28.877  18.154  0.00  0.00    +0.000 C 
ENDBRANCH  14  15
ENDBRANCH  13  14
ENDBRANCH   2  13
TORSDOF 5
ENDMDL
MODEL 2
REMARK VINA RESULT:      -5.8     25.358     28.959
REMARK  Name = 
REMARK  5 active torsions:
REMARK  status: ('A' for Active; 'I' for Inactive)
REMARK    1  A    between atoms: C_2  and  C_4
REMARK    2  A    between atoms: C_9  and  N_10
REMARK    3  A    between atoms: C_11  and  C_13
REMARK    4  A    between atoms: C_13  and  C_14
REMARK    5  A    between atoms: C_14  and  C_15
REMARK                            x       y       z     vdW  Elec       q    Type
REMARK                         _______ _______ _______ _____ _____    ______ ____
ROOT
ATOM      1  N   UNL     1      34.919   0.030  35.889  0.00  0.00    +0.000 NA
ATOM      2  C   UNL     1      34.070   0.684  36.817  0.00  0.00    +0.000 C 
ATOM      3  O   UNL     1      32.982   0.134  37.107  0.00  0.00    +0.000 OA
ENDROOT
BRANCH   1   9
ATOM      4  C   UNL     1      33.894  -1.226  34.089  0.00  0.00    +0.000 A 
ATOM      5  C   UNL     1      33.517  -2.412  33.512  0.00  0.00    +0.000 A 
ATOM      6  C   UNL     1      33.781  -3.603  34.150  0.00  0.00    +0.000 A 
ATOM      7  C   UNL     1      34.425  -3.635  35.376  0.00  0.00    +0.000 A 
ATOM      8  C   UNL     1      34.783  -2.420  35.914  0.00  0.00    +0.000 A 
ATOM      9  C   UNL     1      34.540  -1.210  35.312  0.00  0.00    +0.000 A 
BRANCH   4  11
ATOM     10  N   UNL     1      34.452   0.470  32.355  0.00  0.00    +0.000 NA
ATOM     11  C   UNL     1      33.599   0.017  33.385  0.00  0.00    +0.000 C 
ATOM     12  O   UNL     1      32.587   0.715  33.671  0.00  0.00    +0.000 OA
ENDBRANCH   4  11
ENDBRANCH   1   9
BRANCH   2  13
ATOM     13  C   UNL     1      34.530   1.975  37.380  0.00  0.00    +0.000 C 
BRANCH  13  14
ATOM     14  C   UNL     1      33.831   3.126  36.667  0.00  0.00    +0.000 C 
BRANCH  14  15
ATOM     15  C   UNL     1      34.875   3.736  35.738  0.00  0.00    +0.000 C 
ATOM     16  C   UNL     1      34.134   4.124  34.470  0.00  0.00    +0.000 C 
ATOM     17  C   UNL     1      33.087   5.157  34.894  0.00  0.00    +0.000 C 
ATOM     18  C   UNL     1      33.883   6.404  35.285  0.00  0.00    +0.000 C 
ATOM     19  C   UNL     1      34.717   6.121  36.508  0.00  0.00    +0.000 C 
ATOM     20  C   UNL     1      35.580   4.903  36.367  0.00  0.00    +0.000 C 
ENDBRANCH  14  15
ENDBRANCH  13  14
ENDBRANCH   2  13
TORSDOF 5
ENDMDL
MODEL 3
REMARK VINA RESULT:      -5.8     33.480     35.210
REMARK  Name = 
REMARK  5 active torsions:
REMARK  status: ('A' for Active; 'I' for Inactive)
REMARK    1  A    between atoms: C_2  and  C_4
REMARK    2  A    between atoms: C_9  and  N_10
REMARK    3  A    between atoms: C_11  and  C_13
REMARK    4  A    between atoms: C_13  and  C_14
REMARK    5  A    between atoms: C_14  and  C_15
REMARK                            x       y       z     vdW  Elec       q    Type
REMARK                         _______ _______ _______ _____ _____    ______ ____
ROOT
ATOM      1  N   UNL     1      21.054  -8.441  25.623  0.00  0.00    +0.000 NA
ATOM      2  C   UNL     1      20.824  -9.207  24.452  0.00  0.00    +0.000 C 
ATOM      3  O   UNL     1      19.710  -9.099  23.889  0.00  0.00    +0.000 OA
ENDROOT
BRANCH   1   9
ATOM      4  C   UNL     1      19.127  -8.067  27.042  0.00  0.00    +0.000 A 
ATOM      5  C   UNL     1      18.145  -7.254  27.548  0.00  0.00    +0.000 A 
ATOM      6  C   UNL     1      18.067  -5.938  27.151  0.00  0.00    +0.000 A 
ATOM      7  C   UNL     1      18.967  -5.408  26.242  0.00  0.00    +0.000 A 
ATOM      8  C   UNL     1      19.934  -6.261  25.763  0.00  0.00    +0.000 A 
ATOM      9  C   UNL     1      20.048  -7.580  26.132  0.00  0.00    +0.000 A 
BRANCH   4  11
ATOM     10  N   UNL     1      18.383 -10.435  26.853  0.00  0.00    +0.000 NA
ATOM     11  C   UNL     1      19.180  -9.455  27.485  0.00  0.00    +0.000 C 
ATOM     12  O   UNL     1      19.929  -9.819  28.433  0.00  0.00    +0.000 OA
ENDBRANCH   4  11
ENDBRANCH   1   9
BRANCH   2  13
ATOM     13  C   UNL     1      21.919 -10.085  23.977  0.00  0.00    +0.000 C 
BRANCH  13  14
ATOM     14  C   UNL     1      23.255  -9.367  24.123  0.00  0.00    +0.000 C 
BRANCH  14  15
ATOM     15  C   UNL     1      23.514  -8.691  22.781  0.00  0.00    +0.000 C 
ATOM     16  C   UNL     1      23.176  -7.223  22.978  0.00  0.00    +0.000 C 
ATOM     17  C   UNL     1      24.133  -6.712  24.059  0.00  0.00    +0.000 C 
ATOM     18  C   UNL     1      25.518  -6.716  23.408  0.00  0.00    +0.000 C 
ATOM     19  C   UNL     1      25.941  -8.131  23.104  0.00  0.00    +0.000 C 
ATOM     20  C   UNL     1      24.924  -8.894  22.308  0.00  0.00    +0.000 C 
ENDBRANCH  14  15
ENDBRANCH  13  14
ENDBRANCH   2  13
TORSDOF 5
ENDMDL
MODEL 4
REMARK VINA RESULT:      -5.8     22.646     24.449
REMARK  Name = 
REMARK  5 active torsions:
REMARK  status: ('A' for Active; 'I' for Inactive)
REMARK    1  A    between atoms: C_2  and  C_4
REMARK    2  A    between atoms: C_9  and  N_10
REMARK    3  A    between atoms: C_11  and  C_13
REMARK    4  A    between atoms: C_13  and  C_14
REMARK    5  A    between atoms: C_14  and  C_15
REMARK                            x       y       z     vdW  Elec       q    Type
REMARK                         _______ _______ _______ _____ _____    ______ ____
ROOT
ATOM      1  N   UNL     1      20.932   9.844  37.773  0.00  0.00    +0.000 NA
ATOM      2  C   UNL     1      20.292  11.060  38.121  0.00  0.00    +0.000 C 
ATOM      3  O   UNL     1      20.978  12.109  38.109  0.00  0.00    +0.000 OA
ENDROOT
BRANCH   1   9
ATOM      4  C   UNL     1      23.251   9.484  38.373  0.00  0.00    +0.000 A 
ATOM      5  C   UNL     1      24.586   9.460  38.058  0.00  0.00    +0.000 A 
ATOM      6  C   UNL     1      24.999   9.778  36.783  0.00  0.00    +0.000 A 
ATOM      7  C   UNL     1      24.088  10.126  35.799  0.00  0.00    +0.000 A 
ATOM      8  C   UNL     1      22.762  10.135  36.163  0.00  0.00    +0.000 A 
ATOM      9  C   UNL     1      22.307   9.826  37.422  0.00  0.00    +0.000 A 
BRANCH   4  11
ATOM     10  N   UNL     1      22.595   7.798  40.082  0.00  0.00    +0.000 NA
ATOM     11  C   UNL     1      22.850   9.142  39.733  0.00  0.00    +0.000 C 
ATOM     12  O   UNL     1      22.720  10.024  40.626  0.00  0.00    +0.000 OA
ENDBRANCH   4  11
ENDBRANCH   1   9
BRANCH   2  13
ATOM     13  C   UNL     1      18.855  11.005  38.476  0.00  0.00    +0.000 C 
BRANCH  13  14
ATOM     14  C   UNL     1      18.022  11.602  37.349  0.00  0.00    +0.000 C 
BRANCH  14  15
ATOM     15  C   UNL     1      16.999  10.535  36.976  0.00  0.00    +0.000 C 
ATOM     16  C   UNL     1      15.996  11.216  36.060  0.00  0.00    +0.000 C 
ATOM     17  C   UNL     1      16.792  11.682  34.838  0.00  0.00    +0.000 C 
ATOM     18  C   UNL     1      17.194  10.402  34.104  0.00  0.00    +0.000 C 
ATOM     19  C   UNL     1      18.150   9.600  34.950  0.00  0.00    +0.000 C 
ATOM     20  C   UNL     1      17.637   9.338  36.335  0.00  0.00    +0.000 C 
ENDBRANCH  14  15
ENDBRANCH  13  14
ENDBRANCH   2  13
TORSDOF 5
ENDMDL
MODEL 5
REMARK VINA RESULT:      -5.8      5.216      7.799
REMARK  Name = 
REMARK  5 active torsions:
REMARK  status: ('A' for Active; 'I' for Inactive)
REMARK    1  A    between atoms: C_2  and  C_4
REMARK    2  A    between atoms: C_9  and  N_10
REMARK    3  A    between atoms: C_11  and  C_13
REMARK    4  A    between atoms: C_13  and  C_14
REMARK    5  A    between atoms: C_14  and  C_15
REMARK                            x       y       z     vdW  Elec       q    Type
REMARK                         _______ _______ _______ _____ _____    ______ ____
ROOT
ATOM      1  N   UNL     1      26.719  23.349  26.482  0.00  0.00    +0.000 NA
ATOM      2  C   UNL     1      26.582  24.522  27.267  0.00  0.00    +0.000 C 
ATOM      3  O   UNL     1      27.583  25.266  27.393  0.00  0.00    +0.000 OA
ENDROOT
BRANCH   1   9
ATOM      4  C   UNL     1      28.125  23.286  24.510  0.00  0.00    +0.000 A 
ATOM      5  C   UNL     1      29.311  22.993  23.887  0.00  0.00    +0.000 A 
ATOM      6  C   UNL     1      30.350  22.445  24.605  0.00  0.00    +0.000 A 
ATOM      7  C   UNL     1      30.225  22.178  25.959  0.00  0.00    +0.000 A 
ATOM      8  C   UNL     1      29.017  22.490  26.539  0.00  0.00    +0.000 A 
ATOM      9  C   UNL     1      27.956  23.038  25.860  0.00  0.00    +0.000 A 
BRANCH   4  11
ATOM     10  N   UNL     1      26.150  23.030  23.016  0.00  0.00    +0.000 NA
ATOM     11  C   UNL     1      27.046  23.866  23.718  0.00  0.00    +0.000 C 
ATOM     12  O   UNL     1      26.882  25.115  23.637  0.00  0.00    +0.000 OA
ENDBRANCH   4  11
ENDBRANCH   1   9
BRANCH   2  13
ATOM     13  C   UNL     1      25.262  24.786  27.887  0.00  0.00    +0.000 C 
BRANCH  13  14
ATOM     14  C   UNL     1      24.279  25.260  26.823  0.00  0.00    +0.000 C 
BRANCH  14  15
ATOM     15  C   UNL     1      23.805  26.636  27.278  0.00  0.00    +0.000 C 
ATOM     16  C   UNL     1      23.554  27.435  26.010  0.00  0.00    +0.000 C 
ATOM     17  C   UNL     1      22.457  26.684  25.250  0.00  0.00    +0.000 C 
ATOM     18  C   UNL     1      21.189  26.863  26.088  0.00  0.00    +0.000 C 
ATOM     19  C   UNL     1      21.343  26.160  27.413  0.00  0.00    +0.000 C 
ATOM     20  C   UNL     1      22.587  26.555  28.151  0.00  0.00    +0.000 C 
ENDBRANCH  14  15
ENDBRANCH  13  14
ENDBRANCH   2  13
TORSDOF 5
ENDMDL
MODEL 6
REMARK VINA RESULT:      -5.8      4.151      6.522
REMARK  Name = 
REMARK  5 active torsions:
REMARK  status: ('A' for Active; 'I' for Inactive)
REMARK    1  A    between atoms: C_2  and  C_4
REMARK    2  A    between atoms: C_9  and  N_10
REMARK    3  A    between atoms: C_11  and  C_13
REMARK    4  A    between atoms: C_13  and  C_14
REMARK    5  A    between atoms: C_14  and  C_15
REMARK                            x       y       z     vdW  Elec       q    Type
REMARK                         _______ _______ _______ _____ _____    ______ ____
ROOT
ATOM      1  N   UNL     1      27.665  22.505  27.386  0.00  0.00    +0.000 NA
ATOM      2  C   UNL     1      27.311  23.638  26.608  0.00  0.00    +0.000 C 
ATOM      3  O   UNL     1      27.790  24.748  26.936  0.00  0.00    +0.000 OA
ENDROOT
BRANCH   1   9
ATOM      4  C   UNL     1      28.010  22.712  29.774  0.00  0.00    +0.000 A 
ATOM      5  C   UNL     1      28.833  22.839  30.864  0.00  0.00    +0.000 A 
ATOM      6  C   UNL     1      30.198  22.893  30.695  0.00  0.00    +0.000 A 
ATOM      7  C   UNL     1      30.770  22.822  29.435  0.00  0.00    +0.000 A 
ATOM      8  C   UNL     1      29.904  22.695  28.373  0.00  0.00    +0.000 A 
ATOM      9  C   UNL     1      28.537  22.636  28.497  0.00  0.00    +0.000 A 
BRANCH   4  11
ATOM     10  N   UNL     1      25.963  21.466  30.447  0.00  0.00    +0.000 NA
ATOM     11  C   UNL     1      26.570  22.657  29.991  0.00  0.00    +0.000 C 
ATOM     12  O   UNL     1      25.831  23.658  29.781  0.00  0.00    +0.000 OA
ENDBRANCH   4  11
ENDBRANCH   1   9
BRANCH   2  13
ATOM     13  C   UNL     1      26.397  23.428  25.462  0.00  0.00    +0.000 C 
BRANCH  13  14
ATOM     14  C   UNL     1      26.812  24.323  24.301  0.00  0.00    +0.000 C 
BRANCH  14  15
ATOM     15  C   UNL     1      27.290  23.383  23.199  0.00  0.00    +0.000 C 
ATOM     16  C   UNL     1      26.860  24.020  21.888  0.00  0.00    +0.000 C 
ATOM     17  C   UNL     1      27.575  25.372  21.823  0.00  0.00    +0.000 C 
ATOM     18  C   UNL     1      29.057  25.038  21.635  0.00  0.00    +0.000 C 
ATOM     19  C   UNL     1      29.587  24.338  22.860  0.00  0.00    +0.000 C 
ATOM     20  C   UNL     1      28.770  23.146  23.261  0.00  0.00    +0.000 C 
ENDBRANCH  14  15
ENDBRANCH  13  14
ENDBRANCH   2  13
TORSDOF 5
ENDMDL
MODEL 7
REMARK VINA RESULT:      -5.7     29.742     33.007
REMARK  Name = 
REMARK  5 active torsions:
REMARK  status: ('A' for Active; 'I' for Inactive)
REMARK    1  A    between atoms: C_2  and  C_4
REMARK    2  A    between atoms: C_9  and  N_10
REMARK    3  A    between atoms: C_11  and  C_13
REMARK    4  A    between atoms: C_13  and  C_14
REMARK    5  A    between atoms: C_14  and  C_15
REMARK                            x       y       z     vdW  Elec       q    Type
REMARK                         _______ _______ _______ _____ _____    ______ ____
ROOT
ATOM      1  N   UNL     1      34.220  -5.123  31.823  0.00  0.00    +0.000 NA
ATOM      2  C   UNL     1      33.058  -5.164  32.635  0.00  0.00    +0.000 C 
ATOM      3  O   UNL     1      32.121  -5.919  32.283  0.00  0.00    +0.000 OA
ENDROOT
BRANCH   1   9
ATOM      4  C   UNL     1      34.827  -7.197  30.729  0.00  0.00    +0.000 A 
ATOM      5  C   UNL     1      34.924  -7.983  29.609  0.00  0.00    +0.000 A 
ATOM      6  C   UNL     1      34.505  -7.500  28.390  0.00  0.00    +0.000 A 
ATOM      7  C   UNL     1      33.980  -6.224  28.264  0.00  0.00    +0.000 A 
ATOM      8  C   UNL     1      33.903  -5.475  29.415  0.00  0.00    +0.000 A 
ATOM      9  C   UNL     1      34.309  -5.917  30.651  0.00  0.00    +0.000 A 
BRANCH   4  11
ATOM     10  N   UNL     1      34.449  -8.611  32.743  0.00  0.00    +0.000 NA
ATOM     11  C   UNL     1      35.281  -7.741  32.004  0.00  0.00    +0.000 C 
ATOM     12  O   UNL     1      36.415  -7.455  32.479  0.00  0.00    +0.000 OA
ENDBRANCH   4  11
ENDBRANCH   1   9
BRANCH   2  13
ATOM     13  C   UNL     1      33.032  -4.310  33.846  0.00  0.00    +0.000 C 
BRANCH  13  14
ATOM     14  C   UNL     1      33.428  -2.885  33.479  0.00  0.00    +0.000 C 
BRANCH  14  15
ATOM     15  C   UNL     1      33.712  -2.178  34.800  0.00  0.00    +0.000 C 
ATOM     16  C   UNL     1      34.834  -1.194  34.517  0.00  0.00    +0.000 C 
ATOM     17  C   UNL     1      34.288  -0.224  33.467  0.00  0.00    +0.000 C 
ATOM     18  C   UNL     1      33.216   0.595  34.189  0.00  0.00    +0.000 C 
ATOM     19  C   UNL     1      32.064  -0.295  34.582  0.00  0.00    +0.000 C 
ATOM     20  C   UNL     1      32.491  -1.507  35.357  0.00  0.00    +0.000 C 
ENDBRANCH  14  15
ENDBRANCH  13  14
ENDBRANCH   2  13
TORSDOF 5
ENDMDL
MODEL 8
REMARK VINA RESULT:      -5.6     22.627     24.974
REMARK  Name = 
REMARK  5 active torsions:
REMARK  status: ('A' for Active; 'I' for Inactive)
REMARK    1  A    between atoms: C_2  and  C_4
REMARK    2  A    between atoms: C_9  and  N_10
REMARK    3  A    between atoms: C_11  and  C_13
REMARK    4  A    between atoms: C_13  and  C_14
REMARK    5  A    between atoms: C_14  and  C_15
REMARK                            x       y       z     vdW  Elec       q    Type
REMARK                         _______ _______ _______ _____ _____    ______ ____
ROOT
ATOM      1  N   UNL     1      19.200   9.253  37.538  0.00  0.00    +0.000 NA
ATOM      2  C   UNL     1      20.410   9.986  37.642  0.00  0.00    +0.000 C 
ATOM      3  O   UNL     1      20.582  10.696  38.660  0.00  0.00    +0.000 OA
ENDROOT
BRANCH   1   9
ATOM      4  C   UNL     1      17.139  10.178  38.411  0.00  0.00    +0.000 A 
ATOM      5  C   UNL     1      16.179  10.268  39.387  0.00  0.00    +0.000 A 
ATOM      6  C   UNL     1      16.286   9.510  40.531  0.00  0.00    +0.000 A 
ATOM      7  C   UNL     1      17.351   8.647  40.724  0.00  0.00    +0.000 A 
ATOM      8  C   UNL     1      18.288   8.591  39.718  0.00  0.00    +0.000 A 
ATOM      9  C   UNL     1      18.220   9.329  38.561  0.00  0.00    +0.000 A 
BRANCH   4  11
ATOM     10  N   UNL     1      17.541  12.297  37.169  0.00  0.00    +0.000 NA
ATOM     11  C   UNL     1      16.994  10.996  37.213  0.00  0.00    +0.000 C 
ATOM     12  O   UNL     1      16.383  10.572  36.192  0.00  0.00    +0.000 OA
ENDBRANCH   4  11
ENDBRANCH   1   9
BRANCH   2  13
ATOM     13  C   UNL     1      21.389   9.859  36.537  0.00  0.00    +0.000 C 
BRANCH  13  14
ATOM     14  C   UNL     1      22.787   9.651  37.107  0.00  0.00    +0.000 C 
BRANCH  14  15
ATOM     15  C   UNL     1      23.642  10.778  36.537  0.00  0.00    +0.000 C 
ATOM     16  C   UNL     1      23.728  11.832  37.628  0.00  0.00    +0.000 C 
ATOM     17  C   UNL     1      24.413  11.152  38.817  0.00  0.00    +0.000 C 
ATOM     18  C   UNL     1      25.859  10.922  38.373  0.00  0.00    +0.000 C 
ATOM     19  C   UNL     1      25.899   9.930  37.238  0.00  0.00    +0.000 C 
ATOM     20  C   UNL     1      24.994  10.297  36.100  0.00  0.00    +0.000 C 
ENDBRANCH  14  15
ENDBRANCH  13  14
ENDBRANCH   2  13
TORSDOF 5
ENDMDL
MODEL 9
REMARK VINA RESULT:      -5.6     34.070     37.349
REMARK  Name = 
REMARK  5 active torsions:
REMARK  status: ('A' for Active; 'I' for Inactive)
REMARK    1  A    between atoms: C_2  and  C_4
REMARK    2  A    between atoms: C_9  and  N_10
REMARK    3  A    between atoms: C_11  and  C_13
REMARK    4  A    between atoms: C_13  and  C_14
REMARK    5  A    between atoms: C_14  and  C_15
REMARK                            x       y       z     vdW  Elec       q    Type
REMARK                         _______ _______ _______ _____ _____    ______ ____
ROOT
ATOM      1  N   UNL     1      17.267  -8.548  26.942  0.00  0.00    +0.000 NA
ATOM      2  C   UNL     1      16.063  -8.753  26.222  0.00  0.00    +0.000 C 
ATOM      3  O   UNL     1      15.760  -7.923  25.334  0.00  0.00    +0.000 OA
ENDROOT
BRANCH   1   9
ATOM      4  C   UNL     1      19.227  -7.606  25.875  0.00  0.00    +0.000 A 
ATOM      5  C   UNL     1      20.046  -6.544  25.585  0.00  0.00    +0.000 A 
ATOM      6  C   UNL     1      19.748  -5.291  26.071  0.00  0.00    +0.000 A 
ATOM      7  C   UNL     1      18.629  -5.073  26.857  0.00  0.00    +0.000 A 
ATOM      8  C   UNL     1      17.839  -6.167  27.120  0.00  0.00    +0.000 A 
ATOM      9  C   UNL     1      18.098  -7.434  26.655  0.00  0.00    +0.000 A 
BRANCH   4  11
ATOM     10  N   UNL     1      19.077  -9.329  24.085  0.00  0.00    +0.000 NA
ATOM     11  C   UNL     1      19.573  -8.918  25.342  0.00  0.00    +0.000 C 
ATOM     12  O   UNL     1      20.315  -9.716  25.979  0.00  0.00    +0.000 OA
ENDBRANCH   4  11
ENDBRANCH   1   9
BRANCH   2  13
ATOM     13  C   UNL     1      15.244  -9.937  26.574  0.00  0.00    +0.000 C 
BRANCH  13  14
ATOM     14  C   UNL     1      14.042 -10.027  25.642  0.00  0.00    +0.000 C 
BRANCH  14  15
ATOM     15  C   UNL     1      12.817  -9.772  26.515  0.00  0.00    +0.000 C 
ATOM     16  C   UNL     1      12.373  -8.351  26.210  0.00  0.00    +0.000 C 
ATOM     17  C   UNL     1      12.015  -8.333  24.721  0.00  0.00    +0.000 C 
ATOM     18  C   UNL     1      10.747  -9.181  24.599  0.00  0.00    +0.000 C 
ATOM     19  C   UNL     1      11.051 -10.617  24.944  0.00  0.00    +0.000 C 
ATOM     20  C   UNL     1      11.729 -10.776  26.272  0.00  0.00    +0.000 C 
ENDBRANCH  14  15
ENDBRANCH  13  14
ENDBRANCH   2  13
TORSDOF 5
ENDMDL
MODEL 10
REMARK VINA RESULT:      -5.6      3.451      8.422
REMARK  Name = 
REMARK  5 active torsions:
REMARK  status: ('A' for Active; 'I' for Inactive)
REMARK    1  A    between atoms: C_2  and  C_4
REMARK    2  A    between atoms: C_9  and  N_10
REMARK    3  A    between atoms: C_11  and  C_13
REMARK    4  A    between atoms: C_13  and  C_14
REMARK    5  A    between atoms: C_14  and  C_15
REMARK                            x       y       z     vdW  Elec       q    Type
REMARK                         _______ _______ _______ _____ _____    ______ ____
ROOT
ATOM      1  N   UNL     1      28.733  22.936  24.396  0.00  0.00    +0.000 NA
ATOM      2  C   UNL     1      29.150  23.388  25.674  0.00  0.00    +0.000 C 
ATOM      3  O   UNL     1      29.410  24.606  25.811  0.00  0.00    +0.000 OA
ENDROOT
BRANCH   1   9
ATOM      4  C   UNL     1      27.361  24.203  22.853  0.00  0.00    +0.000 A 
ATOM      5  C   UNL     1      27.222  25.078  21.807  0.00  0.00    +0.000 A 
ATOM      6  C   UNL     1      28.338  25.611  21.201  0.00  0.00    +0.000 A 
ATOM      7  C   UNL     1      29.614  25.280  21.627  0.00  0.00    +0.000 A 
ATOM      8  C   UNL     1      29.702  24.399  22.680  0.00  0.00    +0.000 A 
ATOM      9  C   UNL     1      28.616  23.844  23.312  0.00  0.00    +0.000 A 
BRANCH   4  11
ATOM     10  N   UNL     1      25.659  24.215  24.670  0.00  0.00    +0.000 NA
ATOM     11  C   UNL     1      26.157  23.659  23.471  0.00  0.00    +0.000 C 
ATOM     12  O   UNL     1      25.533  22.688  22.961  0.00  0.00    +0.000 OA
ENDBRANCH   4  11
ENDBRANCH   1   9
BRANCH   2  13
ATOM     13  C   UNL     1      29.250  22.385  26.761  0.00  0.00    +0.000 C 
BRANCH  13  14
ATOM     14  C   UNL     1      27.992  22.429  27.620  0.00  0.00    +0.000 C 
BRANCH  14  15
ATOM     15  C   UNL     1      28.452  22.858  29.009  0.00  0.00    +0.000 C 
ATOM     16  C   UNL     1      28.226  24.359  29.081  0.00  0.00    +0.000 C 
ATOM     17  C   UNL     1      26.720  24.567  28.897  0.00  0.00    +0.000 C 
ATOM     18  C   UNL     1      26.075  24.007  30.167  0.00  0.00    +0.000 C 
ATOM     19  C   UNL     1      26.290  22.517  30.242  0.00  0.00    +0.000 C 
ATOM     20  C   UNL     1      27.729  22.119  30.097  0.00  0.00    +0.000 C 
ENDBRANCH  14  15
ENDBRANCH  13  14
ENDBRANCH   2  13
TORSDOF 5
ENDMDL
