MODEL 1
REMARK VINA RESULT:      -7.4      0.000      0.000
REMARK  Name = 
REMARK  4 active torsions:
REMARK  status: ('A' for Active; 'I' for Inactive)
REMARK    1  A    between atoms: C_2  and  C_3
REMARK    2  A    between atoms: C_3  and  N_4
REMARK    3  A    between atoms: N_4  and  C_5
REMARK    4  A    between atoms: C_11  and  C_12
REMARK                            x       y       z     vdW  Elec       q    Type
REMARK                         _______ _______ _______ _____ _____    ______ ____
ROOT
ATOM      1  C   UNL     1      15.507  11.769  33.112  0.00  0.00    +0.000 A 
ATOM      2  C   UNL     1      14.580  12.481  33.834  0.00  0.00    +0.000 A 
ATOM      3  C   UNL     1      14.556  12.503  35.207  0.00  0.00    +0.000 A 
ATOM      4  C   UNL     1      13.529  13.291  35.951  0.00  0.00    +0.000 C 
ATOM      5  N   UNL     1      15.487  11.792  35.873  0.00  0.00    +0.000 NA
ATOM      6  C   UNL     1      16.400  11.091  35.196  0.00  0.00    +0.000 A 
ATOM      7  C   UNL     1      17.435  10.300  35.670  0.00  0.00    +0.000 A 
ATOM      8  N   UNL     1      18.050   9.827  34.581  0.00  0.00    +0.000 NA
ATOM      9  N   UNL     1      17.484  10.257  33.473  0.00  0.00    +0.000 NA
ATOM     10  C   UNL     1      16.453  11.048  33.821  0.00  0.00    +0.000 A 
ENDROOT
BRANCH   7  11
ATOM     11  C   UNL     1      17.774  10.044  37.065  0.00  0.00    +0.000 A 
ATOM     12  C   UNL     1      19.048   9.668  37.443  0.00  0.00    +0.000 A 
ATOM     13  C   UNL     1      19.373   9.425  38.769  0.00  0.00    +0.000 A 
ATOM     14  C   UNL     1      18.428   9.549  39.766  0.00  0.00    +0.000 A 
ATOM     15  C   UNL     1      17.153   9.924  39.395  0.00  0.00    +0.000 A 
ATOM     16  C   UNL     1      16.836  10.165  38.074  0.00  0.00    +0.000 A 
ENDBRANCH   7  11
BRANCH   1  17
ATOM     17  N   UNL     1      15.569  11.718  31.708  0.00  0.00    +0.000 NA
BRANCH  17  18
ATOM     18  C   UNL     1      14.715  12.548  30.862  0.00  0.00    +0.000 C 
BRANCH  18  20
ATOM     19  C   UNL     1      16.757  13.685  30.160  0.00  0.00    +0.000 C 
ATOM     20  C   UNL     1      15.467  13.805  30.528  0.00  0.00    +0.000 C 
ENDBRANCH  18  20
ENDBRANCH  17  18
ENDBRANCH   1  17
TORSDOF 4
ENDMDL
MODEL 2
REMARK VINA RESULT:      -6.9     18.086     20.826
REMARK  Name = 
REMARK  4 active torsions:
REMARK  status: ('A' for Active; 'I' for Inactive)
REMARK    1  A    between atoms: C_2  and  C_3
REMARK    2  A    between atoms: C_3  and  N_4
REMARK    3  A    between atoms: N_4  and  C_5
REMARK    4  A    between atoms: C_11  and  C_12
REMARK                            x       y       z     vdW  Elec       q    Type
REMARK                         _______ _______ _______ _____ _____    ______ ____
ROOT
ATOM      1  C   UNL     1      33.685  -1.465  34.155  0.00  0.00    +0.000 A 
ATOM      2  C   UNL     1      33.453  -1.565  35.506  0.00  0.00    +0.000 A 
ATOM      3  C   UNL     1      33.321  -0.472  36.326  0.00  0.00    +0.000 A 
ATOM      4  C   UNL     1      33.070  -0.628  37.790  0.00  0.00    +0.000 C 
ATOM      5  N   UNL     1      33.425   0.754  35.778  0.00  0.00    +0.000 NA
ATOM      6  C   UNL     1      33.651   0.881  34.467  0.00  0.00    +0.000 A 
ATOM      7  C   UNL     1      33.792   2.029  33.703  0.00  0.00    +0.000 A 
ATOM      8  N   UNL     1      34.002   1.602  32.453  0.00  0.00    +0.000 NA
ATOM      9  N   UNL     1      34.004   0.287  32.379  0.00  0.00    +0.000 NA
ATOM     10  C   UNL     1      33.788  -0.193  33.617  0.00  0.00    +0.000 A 
ENDROOT
BRANCH   7  11
ATOM     11  C   UNL     1      33.723   3.407  34.172  0.00  0.00    +0.000 A 
ATOM     12  C   UNL     1      32.809   4.303  33.654  0.00  0.00    +0.000 A 
ATOM     13  C   UNL     1      32.741   5.616  34.099  0.00  0.00    +0.000 A 
ATOM     14  C   UNL     1      33.591   6.076  35.081  0.00  0.00    +0.000 A 
ATOM     15  C   UNL     1      34.508   5.187  35.602  0.00  0.00    +0.000 A 
ATOM     16  C   UNL     1      34.570   3.883  35.156  0.00  0.00    +0.000 A 
ENDBRANCH   7  11
BRANCH   1  17
ATOM     17  N   UNL     1      33.827  -2.555  33.278  0.00  0.00    +0.000 NA
BRANCH  17  18
ATOM     18  C   UNL     1      33.222  -3.857  33.554  0.00  0.00    +0.000 C 
BRANCH  18  20
ATOM     19  C   UNL     1      33.477  -4.942  31.383  0.00  0.00    +0.000 C 
ATOM     20  C   UNL     1      33.880  -4.875  32.666  0.00  0.00    +0.000 C 
ENDBRANCH  18  20
ENDBRANCH  17  18
ENDBRANCH   1  17
TORSDOF 4
ENDMDL
MODEL 3
REMARK VINA RESULT:      -6.7     18.460     20.334
REMARK  Name = 
REMARK  4 active torsions:
REMARK  status: ('A' for Active; 'I' for Inactive)
REMARK    1  A    between atoms: C_2  and  C_3
REMARK    2  A    between atoms: C_3  and  N_4
REMARK    3  A    between atoms: N_4  and  C_5
REMARK    4  A    between atoms: C_11  and  C_12
REMARK                            x       y       z     vdW  Elec       q    Type
REMARK                         _______ _______ _______ _____ _____    ______ ____
ROOT
ATOM      1  C   UNL     1      33.328   0.469  35.035  0.00  0.00    +0.000 A 
ATOM      2  C   UNL     1      33.556   0.304  36.380  0.00  0.00    +0.000 A 
ATOM      3  C   UNL     1      34.001   1.317  37.194  0.00  0.00    +0.000 A 
ATOM      4  C   UNL     1      34.237   1.092  38.651  0.00  0.00    +0.000 C 
ATOM      5  N   UNL     1      34.223   2.527  36.645  0.00  0.00    +0.000 NA
ATOM      6  C   UNL     1      34.009   2.715  35.340  0.00  0.00    +0.000 A 
ATOM      7  C   UNL     1      34.170   3.861  34.575  0.00  0.00    +0.000 A 
ATOM      8  N   UNL     1      33.820   3.512  33.333  0.00  0.00    +0.000 NA
ATOM      9  N   UNL     1      33.457   2.249  33.263  0.00  0.00    +0.000 NA
ATOM     10  C   UNL     1      33.563   1.723  34.496  0.00  0.00    +0.000 A 
ENDROOT
BRANCH   7  11
ATOM     11  C   UNL     1      34.624   5.166  35.039  0.00  0.00    +0.000 A 
ATOM     12  C   UNL     1      35.967   5.459  35.173  0.00  0.00    +0.000 A 
ATOM     13  C   UNL     1      36.402   6.700  35.614  0.00  0.00    +0.000 A 
ATOM     14  C   UNL     1      35.503   7.694  35.937  0.00  0.00    +0.000 A 
ATOM     15  C   UNL     1      34.159   7.408  35.805  0.00  0.00    +0.000 A 
ATOM     16  C   UNL     1      33.733   6.171  35.366  0.00  0.00    +0.000 A 
ENDBRANCH   7  11
BRANCH   1  17
ATOM     17  N   UNL     1      32.873  -0.538  34.165  0.00  0.00    +0.000 NA
BRANCH  17  18
ATOM     18  C   UNL     1      33.792  -1.422  33.453  0.00  0.00    +0.000 C 
BRANCH  18  20
ATOM     19  C   UNL     1      33.550  -3.786  32.896  0.00  0.00    +0.000 C 
ATOM     20  C   UNL     1      33.481  -2.837  33.849  0.00  0.00    +0.000 C 
ENDBRANCH  18  20
ENDBRANCH  17  18
ENDBRANCH   1  17
TORSDOF 4
ENDMDL
MODEL 4
REMARK VINA RESULT:      -6.5     18.341     19.763
REMARK  Name = 
REMARK  4 active torsions:
REMARK  status: ('A' for Active; 'I' for Inactive)
REMARK    1  A    between atoms: C_2  and  C_3
REMARK    2  A    between atoms: C_3  and  N_4
REMARK    3  A    between atoms: N_4  and  C_5
REMARK    4  A    between atoms: C_11  and  C_12
REMARK                            x       y       z     vdW  Elec       q    Type
REMARK                         _______ _______ _______ _____ _____    ______ ____
ROOT
ATOM      1  C   UNL     1      34.736   6.863  35.802  0.00  0.00    +0.000 A 
ATOM      2  C   UNL     1      35.900   6.459  36.409  0.00  0.00    +0.000 A 
ATOM      3  C   UNL     1      36.375   5.172  36.335  0.00  0.00    +0.000 A 
ATOM      4  C   UNL     1      37.646   4.777  37.013  0.00  0.00    +0.000 C 
ATOM      5  N   UNL     1      35.665   4.269  35.632  0.00  0.00    +0.000 NA
ATOM      6  C   UNL     1      34.530   4.635  35.032  0.00  0.00    +0.000 A 
ATOM      7  C   UNL     1      33.653   3.881  34.268  0.00  0.00    +0.000 A 
ATOM      8  N   UNL     1      32.681   4.723  33.905  0.00  0.00    +0.000 NA
ATOM      9  N   UNL     1      32.881   5.935  34.379  0.00  0.00    +0.000 NA
ATOM     10  C   UNL     1      34.026   5.914  35.085  0.00  0.00    +0.000 A 
ENDROOT
BRANCH   7  11
ATOM     11  C   UNL     1      33.774   2.466  33.935  0.00  0.00    +0.000 A 
ATOM     12  C   UNL     1      34.062   2.047  32.652  0.00  0.00    +0.000 A 
ATOM     13  C   UNL     1      34.178   0.701  32.333  0.00  0.00    +0.000 A 
ATOM     14  C   UNL     1      34.008  -0.272  33.294  0.00  0.00    +0.000 A 
ATOM     15  C   UNL     1      33.719   0.140  34.578  0.00  0.00    +0.000 A 
ATOM     16  C   UNL     1      33.605   1.479  34.889  0.00  0.00    +0.000 A 
ENDBRANCH   7  11
BRANCH   1  17
ATOM     17  N   UNL     1      34.211   8.167  35.851  0.00  0.00    +0.000 NA
BRANCH  17  18
ATOM     18  C   UNL     1      34.979   9.294  36.376  0.00  0.00    +0.000 C 
BRANCH  18  20
ATOM     19  C   UNL     1      36.058  11.009  35.017  0.00  0.00    +0.000 C 
ATOM     20  C   UNL     1      34.905  10.415  35.380  0.00  0.00    +0.000 C 
ENDBRANCH  18  20
ENDBRANCH  17  18
ENDBRANCH   1  17
TORSDOF 4
ENDMDL
MODEL 5
REMARK VINA RESULT:      -6.4     19.089     20.098
REMARK  Name = 
REMARK  4 active torsions:
REMARK  status: ('A' for Active; 'I' for Inactive)
REMARK    1  A    between atoms: C_2  and  C_3
REMARK    2  A    between atoms: C_3  and  N_4
REMARK    3  A    between atoms: N_4  and  C_5
REMARK    4  A    between atoms: C_11  and  C_12
REMARK                            x       y       z     vdW  Elec       q    Type
REMARK                         _______ _______ _______ _____ _____    ______ ____
ROOT
ATOM      1  C   UNL     1      34.342   4.460  35.567  0.00  0.00    +0.000 A 
ATOM      2  C   UNL     1      34.464   4.137  36.897  0.00  0.00    +0.000 A 
ATOM      3  C   UNL     1      34.275   2.865  37.379  0.00  0.00    +0.000 A 
ATOM      4  C   UNL     1      34.417   2.560  38.834  0.00  0.00    +0.000 C 
ATOM      5  N   UNL     1      33.956   1.891  36.504  0.00  0.00    +0.000 NA
ATOM      6  C   UNL     1      33.832   2.178  35.206  0.00  0.00    +0.000 A 
ATOM      7  C   UNL     1      33.514   1.344  34.145  0.00  0.00    +0.000 A 
ATOM      8  N   UNL     1      33.521   2.127  33.061  0.00  0.00    +0.000 NA
ATOM      9  N   UNL     1      33.815   3.375  33.361  0.00  0.00    +0.000 NA
ATOM     10  C   UNL     1      34.014   3.440  34.689  0.00  0.00    +0.000 A 
ENDROOT
BRANCH   7  11
ATOM     11  C   UNL     1      33.235  -0.086  34.208  0.00  0.00    +0.000 A 
ATOM     12  C   UNL     1      33.936  -0.994  33.439  0.00  0.00    +0.000 A 
ATOM     13  C   UNL     1      33.672  -2.355  33.497  0.00  0.00    +0.000 A 
ATOM     14  C   UNL     1      32.693  -2.853  34.330  0.00  0.00    +0.000 A 
ATOM     15  C   UNL     1      31.988  -1.951  35.100  0.00  0.00    +0.000 A 
ATOM     16  C   UNL     1      32.255  -0.598  35.037  0.00  0.00    +0.000 A 
ENDBRANCH   7  11
BRANCH   1  17
ATOM     17  N   UNL     1      34.526   5.747  35.030  0.00  0.00    +0.000 NA
BRANCH  17  18
ATOM     18  C   UNL     1      35.852   6.339  34.869  0.00  0.00    +0.000 C 
BRANCH  18  20
ATOM     19  C   UNL     1      35.061   8.361  35.982  0.00  0.00    +0.000 C 
ATOM     20  C   UNL     1      36.014   7.413  35.907  0.00  0.00    +0.000 C 
ENDBRANCH  18  20
ENDBRANCH  17  18
ENDBRANCH   1  17
TORSDOF 4
ENDMDL
MODEL 6
REMARK VINA RESULT:      -6.3      1.873      3.612
REMARK  Name = 
REMARK  4 active torsions:
REMARK  status: ('A' for Active; 'I' for Inactive)
REMARK    1  A    between atoms: C_2  and  C_3
REMARK    2  A    between atoms: C_3  and  N_4
REMARK    3  A    between atoms: N_4  and  C_5
REMARK    4  A    between atoms: C_11  and  C_12
REMARK                            x       y       z     vdW  Elec       q    Type
REMARK                         _______ _______ _______ _____ _____    ______ ____
ROOT
ATOM      1  C   UNL     1      15.585  11.622  35.165  0.00  0.00    +0.000 A 
ATOM      2  C   UNL     1      16.714  10.975  34.724  0.00  0.00    +0.000 A 
ATOM      3  C   UNL     1      17.491  10.186  35.537  0.00  0.00    +0.000 A 
ATOM      4  C   UNL     1      18.711   9.503  35.015  0.00  0.00    +0.000 C 
ATOM      5  N   UNL     1      17.124  10.040  36.825  0.00  0.00    +0.000 NA
ATOM      6  C   UNL     1      16.030  10.657  37.280  0.00  0.00    +0.000 A 
ATOM      7  C   UNL     1      15.476  10.648  38.550  0.00  0.00    +0.000 A 
ATOM      8  N   UNL     1      14.390  11.424  38.471  0.00  0.00    +0.000 NA
ATOM      9  N   UNL     1      14.225  11.913  37.260  0.00  0.00    +0.000 NA
ATOM     10  C   UNL     1      15.230  11.455  36.493  0.00  0.00    +0.000 A 
ENDROOT
BRANCH   7  11
ATOM     11  C   UNL     1      15.978   9.937  39.720  0.00  0.00    +0.000 A 
ATOM     12  C   UNL     1      15.124   9.388  40.655  0.00  0.00    +0.000 A 
ATOM     13  C   UNL     1      15.599   8.711  41.769  0.00  0.00    +0.000 A 
ATOM     14  C   UNL     1      16.952   8.563  41.984  0.00  0.00    +0.000 A 
ATOM     15  C   UNL     1      17.812   9.110  41.055  0.00  0.00    +0.000 A 
ATOM     16  C   UNL     1      17.333   9.782  39.949  0.00  0.00    +0.000 A 
ENDBRANCH   7  11
BRANCH   1  17
ATOM     17  N   UNL     1      14.761  12.438  34.370  0.00  0.00    +0.000 NA
BRANCH  17  18
ATOM     18  C   UNL     1      14.829  12.424  32.910  0.00  0.00    +0.000 C 
BRANCH  18  20
ATOM     19  C   UNL     1      14.288  14.154  31.276  0.00  0.00    +0.000 C 
ATOM     20  C   UNL     1      13.913  13.493  32.389  0.00  0.00    +0.000 C 
ENDBRANCH  18  20
ENDBRANCH  17  18
ENDBRANCH   1  17
TORSDOF 4
ENDMDL
MODEL 7
REMARK VINA RESULT:      -6.3     19.928     23.415
REMARK  Name = 
REMARK  4 active torsions:
REMARK  status: ('A' for Active; 'I' for Inactive)
REMARK    1  A    between atoms: C_2  and  C_3
REMARK    2  A    between atoms: C_3  and  N_4
REMARK    3  A    between atoms: N_4  and  C_5
REMARK    4  A    between atoms: C_11  and  C_12
REMARK                            x       y       z     vdW  Elec       q    Type
REMARK                         _______ _______ _______ _____ _____    ______ ____
ROOT
ATOM      1  C   UNL     1      29.500  26.920  19.922  0.00  0.00    +0.000 A 
ATOM      2  C   UNL     1      28.792  28.058  20.224  0.00  0.00    +0.000 A 
ATOM      3  C   UNL     1      27.879  28.122  21.248  0.00  0.00    +0.000 A 
ATOM      4  C   UNL     1      27.131  29.380  21.541  0.00  0.00    +0.000 C 
ATOM      5  N   UNL     1      27.672  27.016  21.989  0.00  0.00    +0.000 NA
ATOM      6  C   UNL     1      28.347  25.896  21.717  0.00  0.00    +0.000 A 
ATOM      7  C   UNL     1      28.292  24.659  22.340  0.00  0.00    +0.000 A 
ATOM      8  N   UNL     1      29.165  23.889  21.683  0.00  0.00    +0.000 NA
ATOM      9  N   UNL     1      29.756  24.544  20.705  0.00  0.00    +0.000 NA
ATOM     10  C   UNL     1      29.268  25.797  20.699  0.00  0.00    +0.000 A 
ENDROOT
BRANCH   7  11
ATOM     11  C   UNL     1      27.455  24.286  23.475  0.00  0.00    +0.000 A 
ATOM     12  C   UNL     1      27.752  24.698  24.759  0.00  0.00    +0.000 A 
ATOM     13  C   UNL     1      26.958  24.345  25.840  0.00  0.00    +0.000 A 
ATOM     14  C   UNL     1      25.835  23.564  25.670  0.00  0.00    +0.000 A 
ATOM     15  C   UNL     1      25.533  23.148  24.390  0.00  0.00    +0.000 A 
ATOM     16  C   UNL     1      26.327  23.502  23.319  0.00  0.00    +0.000 A 
ENDBRANCH   7  11
BRANCH   1  17
ATOM     17  N   UNL     1      30.443  26.809  18.884  0.00  0.00    +0.000 NA
BRANCH  17  18
ATOM     18  C   UNL     1      30.172  27.296  17.533  0.00  0.00    +0.000 C 
BRANCH  18  20
ATOM     19  C   UNL     1      32.419  28.208  17.810  0.00  0.00    +0.000 C 
ATOM     20  C   UNL     1      31.234  28.296  17.176  0.00  0.00    +0.000 C 
ENDBRANCH  18  20
ENDBRANCH  17  18
ENDBRANCH   1  17
TORSDOF 4
ENDMDL
MODEL 8
REMARK VINA RESULT:      -6.1     21.673     22.913
REMARK  Name = 
REMARK  4 active torsions:
REMARK  status: ('A' for Active; 'I' for Inactive)
REMARK    1  A    between atoms: C_2  and  C_3
REMARK    2  A    between atoms: C_3  and  N_4
REMARK    3  A    between atoms: N_4  and  C_5
REMARK    4  A    between atoms: C_11  and  C_12
REMARK                            x       y       z     vdW  Elec       q    Type
REMARK                         _______ _______ _______ _____ _____    ______ ____
ROOT
ATOM      1  C   UNL     1      24.429  -8.434  23.928  0.00  0.00    +0.000 A 
ATOM      2  C   UNL     1      24.382  -9.548  24.731  0.00  0.00    +0.000 A 
ATOM      3  C   UNL     1      23.368  -9.783  25.627  0.00  0.00    +0.000 A 
ATOM      4  C   UNL     1      23.359 -11.007  26.482  0.00  0.00    +0.000 C 
ATOM      5  N   UNL     1      22.374  -8.878  25.719  0.00  0.00    +0.000 NA
ATOM      6  C   UNL     1      22.395  -7.787  24.950  0.00  0.00    +0.000 A 
ATOM      7  C   UNL     1      21.489  -6.739  24.880  0.00  0.00    +0.000 A 
ATOM      8  N   UNL     1      21.976  -5.908  23.952  0.00  0.00    +0.000 NA
ATOM      9  N   UNL     1      23.106  -6.352  23.442  0.00  0.00    +0.000 NA
ATOM     10  C   UNL     1      23.394  -7.520  24.042  0.00  0.00    +0.000 A 
ENDROOT
BRANCH   7  11
ATOM     11  C   UNL     1      20.266  -6.586  25.658  0.00  0.00    +0.000 A 
ATOM     12  C   UNL     1      19.536  -7.679  26.080  0.00  0.00    +0.000 A 
ATOM     13  C   UNL     1      18.371  -7.536  26.821  0.00  0.00    +0.000 A 
ATOM     14  C   UNL     1      17.897  -6.288  27.164  0.00  0.00    +0.000 A 
ATOM     15  C   UNL     1      18.621  -5.191  26.744  0.00  0.00    +0.000 A 
ATOM     16  C   UNL     1      19.779  -5.340  26.007  0.00  0.00    +0.000 A 
ENDBRANCH   7  11
BRANCH   1  17
ATOM     17  N   UNL     1      25.446  -8.153  22.998  0.00  0.00    +0.000 NA
BRANCH  17  18
ATOM     18  C   UNL     1      26.513  -9.106  22.702  0.00  0.00    +0.000 C 
BRANCH  18  20
ATOM     19  C   UNL     1      27.855  -7.150  22.128  0.00  0.00    +0.000 C 
ATOM     20  C   UNL     1      27.523  -8.420  21.827  0.00  0.00    +0.000 C 
ENDBRANCH  18  20
ENDBRANCH  17  18
ENDBRANCH   1  17
TORSDOF 4
ENDMDL
MODEL 9
REMARK VINA RESULT:      -6.1     20.098     23.339
REMARK  Name = 
REMARK  4 active torsions:
REMARK  status: ('A' for Active; 'I' for Inactive)
REMARK    1  A    between atoms: C_2  and  C_3
REMARK    2  A    between atoms: C_3  and  N_4
REMARK    3  A    between atoms: N_4  and  C_5
REMARK    4  A    between atoms: C_11  and  C_12
REMARK                            x       y       z     vdW  Elec       q    Type
REMARK                         _______ _______ _______ _____ _____    ______ ____
ROOT
ATOM      1  C   UNL     1      29.370  27.266  20.754  0.00  0.00    +0.000 A 
ATOM      2  C   UNL     1      29.229  28.244  21.709  0.00  0.00    +0.000 A 
ATOM      3  C   UNL     1      29.096  27.970  23.049  0.00  0.00    +0.000 A 
ATOM      4  C   UNL     1      28.945  29.065  24.052  0.00  0.00    +0.000 C 
ATOM      5  N   UNL     1      29.106  26.681  23.440  0.00  0.00    +0.000 NA
ATOM      6  C   UNL     1      29.242  25.710  22.533  0.00  0.00    +0.000 A 
ATOM      7  C   UNL     1      29.278  24.335  22.710  0.00  0.00    +0.000 A 
ATOM      8  N   UNL     1      29.430  23.822  21.485  0.00  0.00    +0.000 NA
ATOM      9  N   UNL     1      29.491  24.761  20.565  0.00  0.00    +0.000 NA
ATOM     10  C   UNL     1      29.377  25.950  21.185  0.00  0.00    +0.000 A 
ENDROOT
BRANCH   7  11
ATOM     11  C   UNL     1      29.171  23.612  23.971  0.00  0.00    +0.000 A 
ATOM     12  C   UNL     1      27.956  23.430  24.601  0.00  0.00    +0.000 A 
ATOM     13  C   UNL     1      27.851  22.742  25.801  0.00  0.00    +0.000 A 
ATOM     14  C   UNL     1      28.967  22.211  26.413  0.00  0.00    +0.000 A 
ATOM     15  C   UNL     1      30.185  22.389  25.790  0.00  0.00    +0.000 A 
ATOM     16  C   UNL     1      30.282  23.075  24.596  0.00  0.00    +0.000 A 
ENDBRANCH   7  11
BRANCH   1  17
ATOM     17  N   UNL     1      29.509  27.501  19.375  0.00  0.00    +0.000 NA
BRANCH  17  18
ATOM     18  C   UNL     1      30.412  28.521  18.847  0.00  0.00    +0.000 C 
BRANCH  18  20
ATOM     19  C   UNL     1      32.615  28.508  17.796  0.00  0.00    +0.000 C 
ATOM     20  C   UNL     1      31.476  27.831  18.042  0.00  0.00    +0.000 C 
ENDBRANCH  18  20
ENDBRANCH  17  18
ENDBRANCH   1  17
TORSDOF 4
ENDMDL
MODEL 10
REMARK VINA RESULT:      -6.0     20.341     22.718
REMARK  Name = 
REMARK  4 active torsions:
REMARK  status: ('A' for Active; 'I' for Inactive)
REMARK    1  A    between atoms: C_2  and  C_3
REMARK    2  A    between atoms: C_3  and  N_4
REMARK    3  A    between atoms: N_4  and  C_5
REMARK    4  A    between atoms: C_11  and  C_12
REMARK                            x       y       z     vdW  Elec       q    Type
REMARK                         _______ _______ _______ _____ _____    ______ ____
ROOT
ATOM      1  C   UNL     1      33.025  -0.881  35.522  0.00  0.00    +0.000 A 
ATOM      2  C   UNL     1      33.426   0.047  34.591  0.00  0.00    +0.000 A 
ATOM      3  C   UNL     1      33.879  -0.295  33.341  0.00  0.00    +0.000 A 
ATOM      4  C   UNL     1      34.305   0.748  32.361  0.00  0.00    +0.000 C 
ATOM      5  N   UNL     1      33.930  -1.601  33.015  0.00  0.00    +0.000 NA
ATOM      6  C   UNL     1      33.546  -2.524  33.901  0.00  0.00    +0.000 A 
ATOM      7  C   UNL     1      33.517  -3.905  33.780  0.00  0.00    +0.000 A 
ATOM      8  N   UNL     1      33.051  -4.355  34.949  0.00  0.00    +0.000 NA
ATOM      9  N   UNL     1      32.790  -3.371  35.784  0.00  0.00    +0.000 NA
ATOM     10  C   UNL     1      33.087  -2.217  35.161  0.00  0.00    +0.000 A 
ENDROOT
BRANCH   7  11
ATOM     11  C   UNL     1      33.912  -4.691  32.617  0.00  0.00    +0.000 A 
ATOM     12  C   UNL     1      33.165  -4.690  31.456  0.00  0.00    +0.000 A 
ATOM     13  C   UNL     1      33.539  -5.437  30.348  0.00  0.00    +0.000 A 
ATOM     14  C   UNL     1      34.679  -6.213  30.367  0.00  0.00    +0.000 A 
ATOM     15  C   UNL     1      35.429  -6.219  31.525  0.00  0.00    +0.000 A 
ATOM     16  C   UNL     1      35.052  -5.474  32.623  0.00  0.00    +0.000 A 
ENDBRANCH   7  11
BRANCH   1  17
ATOM     17  N   UNL     1      32.555  -0.578  36.813  0.00  0.00    +0.000 NA
BRANCH  17  18
ATOM     18  C   UNL     1      33.449  -0.490  37.964  0.00  0.00    +0.000 C 
BRANCH  18  20
ATOM     19  C   UNL     1      34.774   1.548  37.750  0.00  0.00    +0.000 C 
ATOM     20  C   UNL     1      33.678   0.962  38.270  0.00  0.00    +0.000 C 
ENDBRANCH  18  20
ENDBRANCH  17  18
ENDBRANCH   1  17
TORSDOF 4
ENDMDL
