MODEL 1
REMARK VINA RESULT:      -6.4      0.000      0.000
REMARK  Name = 
REMARK  4 active torsions:
REMARK  status: ('A' for Active; 'I' for Inactive)
REMARK    1  A    between atoms: C_2  and  C_3
REMARK    2  A    between atoms: C_3  and  C_10
REMARK    3  A    between atoms: C_4  and  C_5
REMARK    4  A    between atoms: N_12  and  C_13
REMARK                            x       y       z     vdW  Elec       q    Type
REMARK                         _______ _______ _______ _____ _____    ______ ____
ROOT
ATOM      1  C   UNL     1      15.634  11.196  35.305  0.00  0.00    +0.000 C 
ATOM      2  O   UNL     1      14.508  11.685  35.639  0.00  0.00    +0.000 OA
ATOM      3  N   UNL     1      16.012  11.175  33.931  0.00  0.00    +0.000 NA
ENDROOT
BRANCH   3   4
ATOM      4  C   UNL     1      15.121  11.715  32.921  0.00  0.00    +0.000 C 
ATOM      5  C   UNL     1      14.989  13.200  33.209  0.00  0.00    +0.000 C 
ATOM      6  C   UNL     1      13.675  13.755  32.642  0.00  0.00    +0.000 C 
ATOM      7  C   UNL     1      14.014  14.322  31.286  0.00  0.00    +0.000 C 
ATOM      8  C   UNL     1      14.335  13.134  30.382  0.00  0.00    +0.000 C 
ATOM      9  C   UNL     1      15.771  12.680  30.690  0.00  0.00    +0.000 C 
ATOM     10  C   UNL     1      15.746  11.455  31.573  0.00  0.00    +0.000 C 
ENDBRANCH   3   4
BRANCH   1  11
ATOM     11  C   UNL     1      16.544  10.653  36.293  0.00  0.00    +0.000 C 
ATOM     12  C   UNL     1      16.549  11.143  37.518  0.00  0.00    +0.000 C 
BRANCH  12  13
ATOM     13  C   UNL     1      17.503  10.543  38.469  0.00  0.00    +0.000 A 
ATOM     14  C   UNL     1      17.200   9.612  39.411  0.00  0.00    +0.000 A 
ATOM     15  C   UNL     1      18.184   9.168  40.192  0.00  0.00    +0.000 A 
ATOM     16  C   UNL     1      19.431   9.683  39.990  0.00  0.00    +0.000 A 
ATOM     17  S   UNL     1      19.175  10.773  38.707  0.00  0.00    +0.000 S 
ENDBRANCH  12  13
BRANCH  11  19
ATOM     18  N   UNL     1      18.173   8.720  35.678  0.00  0.00    +0.000 NA
ATOM     19  C   UNL     1      17.435   9.591  35.949  0.00  0.00    +0.000 C 
ENDBRANCH  11  19
ENDBRANCH   1  11
TORSDOF 4
ENDMDL
MODEL 2
REMARK VINA RESULT:      -6.3      2.532      7.574
REMARK  Name = 
REMARK  4 active torsions:
REMARK  status: ('A' for Active; 'I' for Inactive)
REMARK    1  A    between atoms: C_2  and  C_3
REMARK    2  A    between atoms: C_3  and  C_10
REMARK    3  A    between atoms: C_4  and  C_5
REMARK    4  A    between atoms: N_12  and  C_13
REMARK                            x       y       z     vdW  Elec       q    Type
REMARK                         _______ _______ _______ _____ _____    ______ ____
ROOT
ATOM      1  C   UNL     1      16.413  11.341  36.584  0.00  0.00    +0.000 C 
ATOM      2  O   UNL     1      15.670  11.454  37.610  0.00  0.00    +0.000 OA
ATOM      3  N   UNL     1      17.785  10.988  36.743  0.00  0.00    +0.000 NA
ENDROOT
BRANCH   3   4
ATOM      4  C   UNL     1      18.328  10.753  38.068  0.00  0.00    +0.000 C 
ATOM      5  C   UNL     1      18.448   9.247  38.226  0.00  0.00    +0.000 C 
ATOM      6  C   UNL     1      18.422   8.847  39.707  0.00  0.00    +0.000 C 
ATOM      7  C   UNL     1      19.865   8.736  40.133  0.00  0.00    +0.000 C 
ATOM      8  C   UNL     1      20.430  10.154  40.141  0.00  0.00    +0.000 C 
ATOM      9  C   UNL     1      20.757  10.542  38.691  0.00  0.00    +0.000 C 
ATOM     10  C   UNL     1      19.672  11.436  38.139  0.00  0.00    +0.000 C 
ENDBRANCH   3   4
BRANCH   1  11
ATOM     11  C   UNL     1      15.896  11.567  35.249  0.00  0.00    +0.000 C 
ATOM     12  C   UNL     1      16.364  10.861  34.238  0.00  0.00    +0.000 C 
BRANCH  12  13
ATOM     13  C   UNL     1      15.792  11.147  32.908  0.00  0.00    +0.000 A 
ATOM     14  C   UNL     1      16.190  12.142  32.074  0.00  0.00    +0.000 A 
ATOM     15  C   UNL     1      15.569  12.263  30.902  0.00  0.00    +0.000 A 
ATOM     16  C   UNL     1      14.571  11.376  30.622  0.00  0.00    +0.000 A 
ATOM     17  S   UNL     1      14.544  10.401  32.019  0.00  0.00    +0.000 S 
ENDBRANCH  12  13
BRANCH  11  19
ATOM     18  N   UNL     1      14.047  13.353  34.848  0.00  0.00    +0.000 NA
ATOM     19  C   UNL     1      14.883  12.548  35.023  0.00  0.00    +0.000 C 
ENDBRANCH  11  19
ENDBRANCH   1  11
TORSDOF 4
ENDMDL
MODEL 3
REMARK VINA RESULT:      -6.1      3.946      7.454
REMARK  Name = 
REMARK  4 active torsions:
REMARK  status: ('A' for Active; 'I' for Inactive)
REMARK    1  A    between atoms: C_2  and  C_3
REMARK    2  A    between atoms: C_3  and  C_10
REMARK    3  A    between atoms: C_4  and  C_5
REMARK    4  A    between atoms: N_12  and  C_13
REMARK                            x       y       z     vdW  Elec       q    Type
REMARK                         _______ _______ _______ _____ _____    ______ ____
ROOT
ATOM      1  C   UNL     1      19.464   9.971  37.712  0.00  0.00    +0.000 C 
ATOM      2  O   UNL     1      19.682   9.126  38.638  0.00  0.00    +0.000 OA
ATOM      3  N   UNL     1      20.564  10.606  37.066  0.00  0.00    +0.000 NA
ENDROOT
BRANCH   3   4
ATOM      4  C   UNL     1      21.924  10.285  37.458  0.00  0.00    +0.000 C 
ATOM      5  C   UNL     1      22.702  10.058  36.173  0.00  0.00    +0.000 C 
ATOM      6  C   UNL     1      23.921   9.159  36.421  0.00  0.00    +0.000 C 
ATOM      7  C   UNL     1      25.086  10.090  36.645  0.00  0.00    +0.000 C 
ATOM      8  C   UNL     1      24.849  10.772  37.990  0.00  0.00    +0.000 C 
ATOM      9  C   UNL     1      23.828  11.900  37.775  0.00  0.00    +0.000 C 
ATOM     10  C   UNL     1      22.462  11.456  38.244  0.00  0.00    +0.000 C 
ENDBRANCH   3   4
BRANCH   1  11
ATOM     11  C   UNL     1      18.117  10.307  37.299  0.00  0.00    +0.000 C 
ATOM     12  C   UNL     1      17.430  11.208  37.976  0.00  0.00    +0.000 C 
BRANCH  12  13
ATOM     13  C   UNL     1      16.065  11.498  37.499  0.00  0.00    +0.000 A 
ATOM     14  C   UNL     1      14.916  11.057  38.074  0.00  0.00    +0.000 A 
ATOM     15  C   UNL     1      13.759  11.413  37.517  0.00  0.00    +0.000 A 
ATOM     16  C   UNL     1      13.812  12.198  36.403  0.00  0.00    +0.000 A 
ATOM     17  S   UNL     1      15.487  12.409  36.179  0.00  0.00    +0.000 S 
ENDBRANCH  12  13
BRANCH  11  19
ATOM     18  N   UNL     1      17.032   9.148  35.239  0.00  0.00    +0.000 NA
ATOM     19  C   UNL     1      17.527   9.670  36.165  0.00  0.00    +0.000 C 
ENDBRANCH  11  19
ENDBRANCH   1  11
TORSDOF 4
ENDMDL
MODEL 4
REMARK VINA RESULT:      -5.9     18.938     20.686
REMARK  Name = 
REMARK  4 active torsions:
REMARK  status: ('A' for Active; 'I' for Inactive)
REMARK    1  A    between atoms: C_2  and  C_3
REMARK    2  A    between atoms: C_3  and  C_10
REMARK    3  A    between atoms: C_4  and  C_5
REMARK    4  A    between atoms: N_12  and  C_13
REMARK                            x       y       z     vdW  Elec       q    Type
REMARK                         _______ _______ _______ _____ _____    ______ ____
ROOT
ATOM      1  C   UNL     1      33.555   2.229  34.481  0.00  0.00    +0.000 C 
ATOM      2  O   UNL     1      33.170   2.171  33.270  0.00  0.00    +0.000 OA
ATOM      3  N   UNL     1      33.504   1.057  35.292  0.00  0.00    +0.000 NA
ENDROOT
BRANCH   3   4
ATOM      4  C   UNL     1      33.021  -0.193  34.737  0.00  0.00    +0.000 C 
ATOM      5  C   UNL     1      34.247  -0.968  34.284  0.00  0.00    +0.000 C 
ATOM      6  C   UNL     1      33.885  -1.972  33.181  0.00  0.00    +0.000 C 
ATOM      7  C   UNL     1      33.644  -3.288  33.880  0.00  0.00    +0.000 C 
ATOM      8  C   UNL     1      32.352  -3.130  34.676  0.00  0.00    +0.000 C 
ATOM      9  C   UNL     1      32.681  -2.363  35.966  0.00  0.00    +0.000 C 
ATOM     10  C   UNL     1      32.268  -0.917  35.826  0.00  0.00    +0.000 C 
ENDBRANCH   3   4
BRANCH   1  11
ATOM     11  C   UNL     1      34.045   3.463  35.060  0.00  0.00    +0.000 C 
ATOM     12  C   UNL     1      34.198   4.528  34.296  0.00  0.00    +0.000 C 
BRANCH  12  13
ATOM     13  C   UNL     1      34.702   5.749  34.954  0.00  0.00    +0.000 A 
ATOM     14  C   UNL     1      33.938   6.684  35.577  0.00  0.00    +0.000 A 
ATOM     15  C   UNL     1      34.552   7.731  36.126  0.00  0.00    +0.000 A 
ATOM     16  C   UNL     1      35.911   7.790  36.022  0.00  0.00    +0.000 A 
ATOM     17  S   UNL     1      36.276   6.368  35.157  0.00  0.00    +0.000 S 
ENDBRANCH  12  13
BRANCH  11  19
ATOM     18  N   UNL     1      34.622   3.605  37.592  0.00  0.00    +0.000 NA
ATOM     19  C   UNL     1      34.362   3.534  36.451  0.00  0.00    +0.000 C 
ENDBRANCH  11  19
ENDBRANCH   1  11
TORSDOF 4
ENDMDL
MODEL 5
REMARK VINA RESULT:      -5.8     18.789     20.748
REMARK  Name = 
REMARK  4 active torsions:
REMARK  status: ('A' for Active; 'I' for Inactive)
REMARK    1  A    between atoms: C_2  and  C_3
REMARK    2  A    between atoms: C_3  and  C_10
REMARK    3  A    between atoms: C_4  and  C_5
REMARK    4  A    between atoms: N_12  and  C_13
REMARK                            x       y       z     vdW  Elec       q    Type
REMARK                         _______ _______ _______ _____ _____    ______ ____
ROOT
ATOM      1  C   UNL     1      34.103   1.939  36.625  0.00  0.00    +0.000 C 
ATOM      2  O   UNL     1      34.055   2.207  37.867  0.00  0.00    +0.000 OA
ATOM      3  N   UNL     1      34.307   2.991  35.686  0.00  0.00    +0.000 NA
ENDROOT
BRANCH   3   4
ATOM      4  C   UNL     1      34.465   4.358  36.145  0.00  0.00    +0.000 C 
ATOM      5  C   UNL     1      35.755   4.875  35.532  0.00  0.00    +0.000 C 
ATOM      6  C   UNL     1      36.342   6.020  36.369  0.00  0.00    +0.000 C 
ATOM      7  C   UNL     1      35.845   7.295  35.735  0.00  0.00    +0.000 C 
ATOM      8  C   UNL     1      34.345   7.366  36.010  0.00  0.00    +0.000 C 
ATOM      9  C   UNL     1      33.636   6.444  35.005  0.00  0.00    +0.000 C 
ATOM     10  C   UNL     1      33.264   5.142  35.675  0.00  0.00    +0.000 C 
ENDBRANCH   3   4
BRANCH   1  11
ATOM     11  C   UNL     1      33.951   0.582  36.138  0.00  0.00    +0.000 C 
ATOM     12  C   UNL     1      33.159   0.340  35.111  0.00  0.00    +0.000 C 
BRANCH  12  13
ATOM     13  C   UNL     1      33.053  -1.064  34.673  0.00  0.00    +0.000 A 
ATOM     14  C   UNL     1      33.752  -1.629  33.655  0.00  0.00    +0.000 A 
ATOM     15  C   UNL     1      33.540  -2.917  33.387  0.00  0.00    +0.000 A 
ATOM     16  C   UNL     1      32.630  -3.579  34.158  0.00  0.00    +0.000 A 
ATOM     17  S   UNL     1      32.106  -2.366  35.233  0.00  0.00    +0.000 S 
ENDBRANCH  12  13
BRANCH  11  19
ATOM     18  N   UNL     1      35.220  -1.379  37.283  0.00  0.00    +0.000 NA
ATOM     19  C   UNL     1      34.653  -0.493  36.763  0.00  0.00    +0.000 C 
ENDBRANCH  11  19
ENDBRANCH   1  11
TORSDOF 4
ENDMDL
MODEL 6
REMARK VINA RESULT:      -5.7     21.391     23.971
REMARK  Name = 
REMARK  4 active torsions:
REMARK  status: ('A' for Active; 'I' for Inactive)
REMARK    1  A    between atoms: C_2  and  C_3
REMARK    2  A    between atoms: C_3  and  C_10
REMARK    3  A    between atoms: C_4  and  C_5
REMARK    4  A    between atoms: N_12  and  C_13
REMARK                            x       y       z     vdW  Elec       q    Type
REMARK                         _______ _______ _______ _____ _____    ______ ____
ROOT
ATOM      1  C   UNL     1      33.072  -4.257  33.582  0.00  0.00    +0.000 C 
ATOM      2  O   UNL     1      32.508  -4.682  34.640  0.00  0.00    +0.000 OA
ATOM      3  N   UNL     1      33.579  -2.926  33.542  0.00  0.00    +0.000 NA
ENDROOT
BRANCH   3   4
ATOM      4  C   UNL     1      33.458  -2.063  34.701  0.00  0.00    +0.000 C 
ATOM      5  C   UNL     1      34.860  -1.886  35.258  0.00  0.00    +0.000 C 
ATOM      6  C   UNL     1      34.817  -1.532  36.751  0.00  0.00    +0.000 C 
ATOM      7  C   UNL     1      34.889  -0.027  36.824  0.00  0.00    +0.000 C 
ATOM      8  C   UNL     1      33.564   0.501  36.280  0.00  0.00    +0.000 C 
ATOM      9  C   UNL     1      33.628   0.447  34.745  0.00  0.00    +0.000 C 
ATOM     10  C   UNL     1      32.866  -0.755  34.239  0.00  0.00    +0.000 C 
ENDBRANCH   3   4
BRANCH   1  11
ATOM     11  C   UNL     1      33.210  -5.098  32.410  0.00  0.00    +0.000 C 
ATOM     12  C   UNL     1      34.311  -5.036  31.686  0.00  0.00    +0.000 C 
BRANCH  12  13
ATOM     13  C   UNL     1      34.380  -5.919  30.507  0.00  0.00    +0.000 A 
ATOM     14  C   UNL     1      34.039  -5.572  29.238  0.00  0.00    +0.000 A 
ATOM     15  C   UNL     1      34.163  -6.492  28.282  0.00  0.00    +0.000 A 
ATOM     16  C   UNL     1      34.625  -7.723  28.647  0.00  0.00    +0.000 A 
ATOM     17  S   UNL     1      34.870  -7.541  30.323  0.00  0.00    +0.000 S 
ENDBRANCH  12  13
BRANCH  11  19
ATOM     18  N   UNL     1      31.298  -6.728  31.738  0.00  0.00    +0.000 NA
ATOM     19  C   UNL     1      32.162  -5.993  32.034  0.00  0.00    +0.000 C 
ENDBRANCH  11  19
ENDBRANCH   1  11
TORSDOF 4
ENDMDL
MODEL 7
REMARK VINA RESULT:      -5.7     22.053     24.857
REMARK  Name = 
REMARK  4 active torsions:
REMARK  status: ('A' for Active; 'I' for Inactive)
REMARK    1  A    between atoms: C_2  and  C_3
REMARK    2  A    between atoms: C_3  and  C_10
REMARK    3  A    between atoms: C_4  and  C_5
REMARK    4  A    between atoms: N_12  and  C_13
REMARK                            x       y       z     vdW  Elec       q    Type
REMARK                         _______ _______ _______ _____ _____    ______ ____
ROOT
ATOM      1  C   UNL     1      29.398  25.373  21.360  0.00  0.00    +0.000 C 
ATOM      2  O   UNL     1      29.697  24.281  20.781  0.00  0.00    +0.000 OA
ATOM      3  N   UNL     1      29.245  25.398  22.777  0.00  0.00    +0.000 NA
ENDROOT
BRANCH   3   4
ATOM      4  C   UNL     1      29.434  24.187  23.553  0.00  0.00    +0.000 C 
ATOM      5  C   UNL     1      30.748  24.350  24.297  0.00  0.00    +0.000 C 
ATOM      6  C   UNL     1      31.353  22.984  24.650  0.00  0.00    +0.000 C 
ATOM      7  C   UNL     1      30.903  22.681  26.058  0.00  0.00    +0.000 C 
ATOM      8  C   UNL     1      29.401  22.416  25.990  0.00  0.00    +0.000 C 
ATOM      9  C   UNL     1      28.683  23.773  25.919  0.00  0.00    +0.000 C 
ATOM     10  C   UNL     1      28.263  24.060  24.497  0.00  0.00    +0.000 C 
ENDBRANCH   3   4
BRANCH   1  11
ATOM     11  C   UNL     1      29.207  26.598  20.610  0.00  0.00    +0.000 C 
ATOM     12  C   UNL     1      28.265  27.447  20.974  0.00  0.00    +0.000 C 
BRANCH  12  13
ATOM     13  C   UNL     1      28.128  28.672  20.163  0.00  0.00    +0.000 A 
ATOM     14  C   UNL     1      27.280  28.834  19.114  0.00  0.00    +0.000 A 
ATOM     15  C   UNL     1      27.277  30.009  18.487  0.00  0.00    +0.000 A 
ATOM     16  C   UNL     1      28.130  30.970  18.944  0.00  0.00    +0.000 A 
ATOM     17  S   UNL     1      28.906  30.186  20.242  0.00  0.00    +0.000 S 
ENDBRANCH  12  13
BRANCH  11  19
ATOM     18  N   UNL     1      30.718  27.132  18.561  0.00  0.00    +0.000 NA
ATOM     19  C   UNL     1      30.031  26.891  19.481  0.00  0.00    +0.000 C 
ENDBRANCH  11  19
ENDBRANCH   1  11
TORSDOF 4
ENDMDL
MODEL 8
REMARK VINA RESULT:      -5.6     22.274     25.094
REMARK  Name = 
REMARK  4 active torsions:
REMARK  status: ('A' for Active; 'I' for Inactive)
REMARK    1  A    between atoms: C_2  and  C_3
REMARK    2  A    between atoms: C_3  and  C_10
REMARK    3  A    between atoms: C_4  and  C_5
REMARK    4  A    between atoms: N_12  and  C_13
REMARK                            x       y       z     vdW  Elec       q    Type
REMARK                         _______ _______ _______ _____ _____    ______ ____
ROOT
ATOM      1  C   UNL     1      29.354  25.441  21.351  0.00  0.00    +0.000 C 
ATOM      2  O   UNL     1      29.724  24.367  20.779  0.00  0.00    +0.000 OA
ATOM      3  N   UNL     1      29.126  25.446  22.758  0.00  0.00    +0.000 NA
ENDROOT
BRANCH   3   4
ATOM      4  C   UNL     1      29.321  24.235  23.533  0.00  0.00    +0.000 C 
ATOM      5  C   UNL     1      30.674  24.366  24.209  0.00  0.00    +0.000 C 
ATOM      6  C   UNL     1      31.258  22.986  24.541  0.00  0.00    +0.000 C 
ATOM      7  C   UNL     1      30.872  22.704  25.972  0.00  0.00    +0.000 C 
ATOM      8  C   UNL     1      29.362  22.480  25.982  0.00  0.00    +0.000 C 
ATOM      9  C   UNL     1      28.679  23.856  25.937  0.00  0.00    +0.000 C 
ATOM     10  C   UNL     1      28.196  24.147  24.535  0.00  0.00    +0.000 C 
ENDBRANCH   3   4
BRANCH   1  11
ATOM     11  C   UNL     1      29.156  26.666  20.603  0.00  0.00    +0.000 C 
ATOM     12  C   UNL     1      29.953  26.951  19.591  0.00  0.00    +0.000 C 
BRANCH  12  13
ATOM     13  C   UNL     1      29.691  28.215  18.877  0.00  0.00    +0.000 A 
ATOM     14  C   UNL     1      30.301  29.403  19.125  0.00  0.00    +0.000 A 
ATOM     15  C   UNL     1      29.951  30.454  18.384  0.00  0.00    +0.000 A 
ATOM     16  C   UNL     1      29.000  30.261  17.425  0.00  0.00    +0.000 A 
ATOM     17  S   UNL     1      28.634  28.606  17.599  0.00  0.00    +0.000 S 
ENDBRANCH  12  13
BRANCH  11  19
ATOM     18  N   UNL     1      27.231  28.296  21.240  0.00  0.00    +0.000 NA
ATOM     19  C   UNL     1      28.103  27.565  20.954  0.00  0.00    +0.000 C 
ENDBRANCH  11  19
ENDBRANCH   1  11
TORSDOF 4
ENDMDL
MODEL 9
REMARK VINA RESULT:      -5.4     22.137     24.925
REMARK  Name = 
REMARK  4 active torsions:
REMARK  status: ('A' for Active; 'I' for Inactive)
REMARK    1  A    between atoms: C_2  and  C_3
REMARK    2  A    between atoms: C_3  and  C_10
REMARK    3  A    between atoms: C_4  and  C_5
REMARK    4  A    between atoms: N_12  and  C_13
REMARK                            x       y       z     vdW  Elec       q    Type
REMARK                         _______ _______ _______ _____ _____    ______ ____
ROOT
ATOM      1  C   UNL     1      29.206  25.522  21.257  0.00  0.00    +0.000 C 
ATOM      2  O   UNL     1      29.652  24.370  20.954  0.00  0.00    +0.000 OA
ATOM      3  N   UNL     1      28.399  25.679  22.421  0.00  0.00    +0.000 NA
ENDROOT
BRANCH   3   4
ATOM      4  C   UNL     1      28.093  24.534  23.258  0.00  0.00    +0.000 C 
ATOM      5  C   UNL     1      28.208  25.006  24.697  0.00  0.00    +0.000 C 
ATOM      6  C   UNL     1      28.505  23.831  25.638  0.00  0.00    +0.000 C 
ATOM      7  C   UNL     1      27.170  23.380  26.175  0.00  0.00    +0.000 C 
ATOM      8  C   UNL     1      26.422  22.740  25.009  0.00  0.00    +0.000 C 
ATOM      9  C   UNL     1      25.835  23.869  24.147  0.00  0.00    +0.000 C 
ATOM     10  C   UNL     1      26.693  24.082  22.922  0.00  0.00    +0.000 C 
ENDBRANCH   3   4
BRANCH   1  11
ATOM     11  C   UNL     1      29.499  26.683  20.442  0.00  0.00    +0.000 C 
ATOM     12  C   UNL     1      29.992  26.524  19.229  0.00  0.00    +0.000 C 
BRANCH  12  13
ATOM     13  C   UNL     1      30.266  27.751  18.458  0.00  0.00    +0.000 A 
ATOM     14  C   UNL     1      31.471  28.373  18.365  0.00  0.00    +0.000 A 
ATOM     15  C   UNL     1      31.550  29.476  17.621  0.00  0.00    +0.000 A 
ATOM     16  C   UNL     1      30.411  29.905  17.005  0.00  0.00    +0.000 A 
ATOM     17  S   UNL     1      29.268  28.739  17.493  0.00  0.00    +0.000 S 
ENDBRANCH  12  13
BRANCH  11  19
ATOM     18  N   UNL     1      29.060  29.075  21.366  0.00  0.00    +0.000 NA
ATOM     19  C   UNL     1      29.256  27.998  20.943  0.00  0.00    +0.000 C 
ENDBRANCH  11  19
ENDBRANCH   1  11
TORSDOF 4
ENDMDL
MODEL 10
REMARK VINA RESULT:      -5.4      5.563      7.562
REMARK  Name = 
REMARK  4 active torsions:
REMARK  status: ('A' for Active; 'I' for Inactive)
REMARK    1  A    between atoms: C_2  and  C_3
REMARK    2  A    between atoms: C_3  and  C_10
REMARK    3  A    between atoms: C_4  and  C_5
REMARK    4  A    between atoms: N_12  and  C_13
REMARK                            x       y       z     vdW  Elec       q    Type
REMARK                         _______ _______ _______ _____ _____    ______ ____
ROOT
ATOM      1  C   UNL     1      19.930  10.661  38.577  0.00  0.00    +0.000 C 
ATOM      2  O   UNL     1      19.861  11.803  38.020  0.00  0.00    +0.000 OA
ATOM      3  N   UNL     1      21.130   9.899  38.472  0.00  0.00    +0.000 NA
ENDROOT
BRANCH   3   4
ATOM      4  C   UNL     1      22.266  10.425  37.739  0.00  0.00    +0.000 C 
ATOM      5  C   UNL     1      23.488  10.196  38.612  0.00  0.00    +0.000 C 
ATOM      6  C   UNL     1      24.603  11.194  38.269  0.00  0.00    +0.000 C 
ATOM      7  C   UNL     1      25.505  10.489  37.288  0.00  0.00    +0.000 C 
ATOM      8  C   UNL     1      24.717  10.352  35.988  0.00  0.00    +0.000 C 
ATOM      9  C   UNL     1      23.750   9.167  36.142  0.00  0.00    +0.000 C 
ATOM     10  C   UNL     1      22.357   9.673  36.434  0.00  0.00    +0.000 C 
ENDBRANCH   3   4
BRANCH   1  11
ATOM     11  C   UNL     1      18.812  10.114  39.318  0.00  0.00    +0.000 C 
ATOM     12  C   UNL     1      19.024   9.509  40.471  0.00  0.00    +0.000 C 
BRANCH  12  13
ATOM     13  C   UNL     1      17.839   8.974  41.168  0.00  0.00    +0.000 A 
ATOM     14  C   UNL     1      17.093   9.643  42.086  0.00  0.00    +0.000 A 
ATOM     15  C   UNL     1      16.047   9.015  42.621  0.00  0.00    +0.000 A 
ATOM     16  C   UNL     1      15.799   7.739  42.208  0.00  0.00    +0.000 A 
ATOM     17  S   UNL     1      17.046   7.468  41.079  0.00  0.00    +0.000 S 
ENDBRANCH  12  13
BRANCH  11  19
ATOM     18  N   UNL     1      16.388  10.322  38.398  0.00  0.00    +0.000 NA
ATOM     19  C   UNL     1      17.483  10.224  38.808  0.00  0.00    +0.000 C 
ENDBRANCH  11  19
ENDBRANCH   1  11
TORSDOF 4
ENDMDL
