MODEL 1
REMARK VINA RESULT:      -7.7      0.000      0.000
REMARK  Name = 
REMARK  2 active torsions:
REMARK  status: ('A' for Active; 'I' for Inactive)
REMARK    1  A    between atoms: C_1  and  C_11
REMARK    2  A    between atoms: N_2  and  N_3
REMARK                            x       y       z     vdW  Elec       q    Type
REMARK                         _______ _______ _______ _____ _____    ______ ____
ROOT
ATOM      1  C   UNL     1      16.239  12.744  36.888  0.00  0.00    +0.000 C 
ATOM      2  N   UNL     1      16.468  12.522  35.660  0.00  0.00    +0.000 NA
ENDROOT
BRANCH   1   3
ATOM      3  C   UNL     1      15.372  11.815  37.601  0.00  0.00    +0.000 A 
ATOM      4  C   UNL     1      15.676  10.825  38.488  0.00  0.00    +0.000 A 
ATOM      5  N   UNL     1      14.523  10.257  38.861  0.00  0.00    +0.000 NA
ATOM      6  C   UNL     1      13.487  10.842  38.245  0.00  0.00    +0.000 A 
ATOM      7  C   UNL     1      12.125  10.630  38.287  0.00  0.00    +0.000 A 
ATOM      8  C   UNL     1      11.293  11.416  37.520  0.00  0.00    +0.000 A 
ATOM      9  C   UNL     1      11.791  12.411  36.711  0.00  0.00    +0.000 A 
ATOM     10  C   UNL     1      13.147  12.625  36.667  0.00  0.00    +0.000 A 
ATOM     11  C   UNL     1      14.007  11.831  37.445  0.00  0.00    +0.000 A 
ENDBRANCH   1   3
BRANCH   2  12
ATOM     12  N   UNL     1      15.897  11.402  35.003  0.00  0.00    +0.000 NA
ATOM     13  C   UNL     1      15.332  11.495  33.716  0.00  0.00    +0.000 C 
ATOM     14  N   UNL     1      14.862  12.664  33.443  0.00  0.00    +0.000 NA
ATOM     15  C   UNL     1      14.205  13.150  32.225  0.00  0.00    +0.000 C 
ATOM     16  C   UNL     1      14.240  12.072  31.159  0.00  0.00    +0.000 C 
ATOM     17  C   UNL     1      15.633  11.717  30.754  0.00  0.00    +0.000 C 
ATOM     18  C   UNL     1      16.240  10.666  31.642  0.00  0.00    +0.000 C 
ATOM     19  C   UNL     1      15.316  10.316  32.814  0.00  0.00    +0.000 C 
ENDBRANCH   2  12
TORSDOF 2
ENDMDL
MODEL 2
REMARK VINA RESULT:      -6.7     19.493     22.139
REMARK  Name = 
REMARK  2 active torsions:
REMARK  status: ('A' for Active; 'I' for Inactive)
REMARK    1  A    between atoms: C_1  and  C_11
REMARK    2  A    between atoms: N_2  and  N_3
REMARK                            x       y       z     vdW  Elec       q    Type
REMARK                         _______ _______ _______ _____ _____    ______ ____
ROOT
ATOM      1  C   UNL     1      28.488  25.877  22.486  0.00  0.00    +0.000 C 
ATOM      2  N   UNL     1      29.721  25.581  22.499  0.00  0.00    +0.000 NA
ENDROOT
BRANCH   1   3
ATOM      3  C   UNL     1      27.526  24.819  22.761  0.00  0.00    +0.000 A 
ATOM      4  C   UNL     1      26.943  23.914  21.925  0.00  0.00    +0.000 A 
ATOM      5  N   UNL     1      26.129  23.152  22.666  0.00  0.00    +0.000 NA
ATOM      6  C   UNL     1      26.165  23.534  23.950  0.00  0.00    +0.000 A 
ATOM      7  C   UNL     1      25.526  23.081  25.084  0.00  0.00    +0.000 A 
ATOM      8  C   UNL     1      25.776  23.693  26.293  0.00  0.00    +0.000 A 
ATOM      9  C   UNL     1      26.651  24.749  26.395  0.00  0.00    +0.000 A 
ATOM     10  C   UNL     1      27.290  25.203  25.266  0.00  0.00    +0.000 A 
ATOM     11  C   UNL     1      27.044  24.587  24.027  0.00  0.00    +0.000 A 
ENDBRANCH   1   3
BRANCH   2  12
ATOM     12  N   UNL     1      30.149  24.257  22.775  0.00  0.00    +0.000 NA
ATOM     13  C   UNL     1      30.644  23.876  24.038  0.00  0.00    +0.000 C 
ATOM     14  N   UNL     1      31.200  24.841  24.686  0.00  0.00    +0.000 NA
ATOM     15  C   UNL     1      31.824  24.843  26.013  0.00  0.00    +0.000 C 
ATOM     16  C   UNL     1      31.630  23.491  26.672  0.00  0.00    +0.000 C 
ATOM     17  C   UNL     1      30.190  23.173  26.903  0.00  0.00    +0.000 C 
ATOM     18  C   UNL     1      29.544  22.528  25.707  0.00  0.00    +0.000 C 
ATOM     19  C   UNL     1      30.501  22.476  24.511  0.00  0.00    +0.000 C 
ENDBRANCH   2  12
TORSDOF 2
ENDMDL
MODEL 3
REMARK VINA RESULT:      -6.6      1.491      2.677
REMARK  Name = 
REMARK  2 active torsions:
REMARK  status: ('A' for Active; 'I' for Inactive)
REMARK    1  A    between atoms: C_1  and  C_11
REMARK    2  A    between atoms: N_2  and  N_3
REMARK                            x       y       z     vdW  Elec       q    Type
REMARK                         _______ _______ _______ _____ _____    ______ ____
ROOT
ATOM      1  C   UNL     1      17.050  12.067  36.227  0.00  0.00    +0.000 C 
ATOM      2  N   UNL     1      17.059  11.659  35.026  0.00  0.00    +0.000 NA
ENDROOT
BRANCH   1   3
ATOM      3  C   UNL     1      15.913  11.706  37.064  0.00  0.00    +0.000 A 
ATOM      4  C   UNL     1      14.595  12.033  36.954  0.00  0.00    +0.000 A 
ATOM      5  N   UNL     1      13.953  11.451  37.975  0.00  0.00    +0.000 NA
ATOM      6  C   UNL     1      14.811  10.764  38.741  0.00  0.00    +0.000 A 
ATOM      7  C   UNL     1      14.653  10.007  39.883  0.00  0.00    +0.000 A 
ATOM      8  C   UNL     1      15.754   9.407  40.455  0.00  0.00    +0.000 A 
ATOM      9  C   UNL     1      17.009   9.544  39.910  0.00  0.00    +0.000 A 
ATOM     10  C   UNL     1      17.169  10.296  38.771  0.00  0.00    +0.000 A 
ATOM     11  C   UNL     1      16.054  10.914  38.178  0.00  0.00    +0.000 A 
ENDBRANCH   1   3
BRANCH   2  12
ATOM     12  N   UNL     1      15.994  10.875  34.515  0.00  0.00    +0.000 NA
ATOM     13  C   UNL     1      15.203  11.299  33.429  0.00  0.00    +0.000 C 
ATOM     14  N   UNL     1      15.118  12.581  33.324  0.00  0.00    +0.000 NA
ATOM     15  C   UNL     1      14.399  13.397  32.340  0.00  0.00    +0.000 C 
ATOM     16  C   UNL     1      13.798  12.500  31.274  0.00  0.00    +0.000 C 
ATOM     17  C   UNL     1      14.838  11.758  30.502  0.00  0.00    +0.000 C 
ATOM     18  C   UNL     1      15.237  10.469  31.166  0.00  0.00    +0.000 C 
ATOM     19  C   UNL     1      14.561  10.306  32.532  0.00  0.00    +0.000 C 
ENDBRANCH   2  12
TORSDOF 2
ENDMDL
MODEL 4
REMARK VINA RESULT:      -6.5      3.708      5.088
REMARK  Name = 
REMARK  2 active torsions:
REMARK  status: ('A' for Active; 'I' for Inactive)
REMARK    1  A    between atoms: C_1  and  C_11
REMARK    2  A    between atoms: N_2  and  N_3
REMARK                            x       y       z     vdW  Elec       q    Type
REMARK                         _______ _______ _______ _____ _____    ______ ____
ROOT
ATOM      1  C   UNL     1      19.630  10.095  39.459  0.00  0.00    +0.000 C 
ATOM      2  N   UNL     1      19.410  10.386  38.244  0.00  0.00    +0.000 NA
ENDROOT
BRANCH   1   3
ATOM      3  C   UNL     1      19.099   8.837  39.968  0.00  0.00    +0.000 A 
ATOM      4  C   UNL     1      19.686   7.613  40.089  0.00  0.00    +0.000 A 
ATOM      5  N   UNL     1      18.776   6.785  40.615  0.00  0.00    +0.000 NA
ATOM      6  C   UNL     1      17.622   7.430  40.837  0.00  0.00    +0.000 A 
ATOM      7  C   UNL     1      16.407   7.033  41.353  0.00  0.00    +0.000 A 
ATOM      8  C   UNL     1      15.384   7.951  41.460  0.00  0.00    +0.000 A 
ATOM      9  C   UNL     1      15.549   9.257  41.062  0.00  0.00    +0.000 A 
ATOM     10  C   UNL     1      16.759   9.656  40.547  0.00  0.00    +0.000 A 
ATOM     11  C   UNL     1      17.810   8.729  40.433  0.00  0.00    +0.000 A 
ENDBRANCH   1   3
BRANCH   2  12
ATOM     12  N   UNL     1      18.669   9.513  37.407  0.00  0.00    +0.000 NA
ATOM     13  C   UNL     1      17.682   9.982  36.519  0.00  0.00    +0.000 C 
ATOM     14  N   UNL     1      17.119  11.075  36.906  0.00  0.00    +0.000 NA
ATOM     15  C   UNL     1      16.062  11.864  36.265  0.00  0.00    +0.000 C 
ATOM     16  C   UNL     1      15.741  11.278  34.903  0.00  0.00    +0.000 C 
ATOM     17  C   UNL     1      16.907  11.331  33.971  0.00  0.00    +0.000 C 
ATOM     18  C   UNL     1      17.814  10.140  34.117  0.00  0.00    +0.000 C 
ATOM     19  C   UNL     1      17.374   9.236  35.273  0.00  0.00    +0.000 C 
ENDBRANCH   2  12
TORSDOF 2
ENDMDL
MODEL 5
REMARK VINA RESULT:      -6.5     17.508     19.131
REMARK  Name = 
REMARK  2 active torsions:
REMARK  status: ('A' for Active; 'I' for Inactive)
REMARK    1  A    between atoms: C_1  and  C_11
REMARK    2  A    between atoms: N_2  and  N_3
REMARK                            x       y       z     vdW  Elec       q    Type
REMARK                         _______ _______ _______ _____ _____    ______ ____
ROOT
ATOM      1  C   UNL     1      11.103  25.249  19.909  0.00  0.00    +0.000 C 
ATOM      2  N   UNL     1      10.022  24.594  20.015  0.00  0.00    +0.000 NA
ENDROOT
BRANCH   1   3
ATOM      3  C   UNL     1      12.118  25.067  20.938  0.00  0.00    +0.000 A 
ATOM      4  C   UNL     1      12.345  25.760  22.089  0.00  0.00    +0.000 A 
ATOM      5  N   UNL     1      13.400  25.199  22.692  0.00  0.00    +0.000 NA
ATOM      6  C   UNL     1      13.864  24.170  21.969  0.00  0.00    +0.000 A 
ATOM      7  C   UNL     1      14.907  23.287  22.152  0.00  0.00    +0.000 A 
ATOM      8  C   UNL     1      15.140  22.310  21.209  0.00  0.00    +0.000 A 
ATOM      9  C   UNL     1      14.353  22.194  20.087  0.00  0.00    +0.000 A 
ATOM     10  C   UNL     1      13.312  23.071  19.903  0.00  0.00    +0.000 A 
ATOM     11  C   UNL     1      13.063  24.073  20.857  0.00  0.00    +0.000 A 
ENDBRANCH   1   3
BRANCH   2  12
ATOM     12  N   UNL     1       9.810  23.710  21.104  0.00  0.00    +0.000 NA
ATOM     13  C   UNL     1       9.715  22.315  20.931  0.00  0.00    +0.000 C 
ATOM     14  N   UNL     1       9.270  21.969  19.772  0.00  0.00    +0.000 NA
ATOM     15  C   UNL     1       9.033  20.631  19.219  0.00  0.00    +0.000 C 
ATOM     16  C   UNL     1       9.523  19.579  20.196  0.00  0.00    +0.000 C 
ATOM     17  C   UNL     1      10.996  19.665  20.431  0.00  0.00    +0.000 C 
ATOM     18  C   UNL     1      11.348  20.642  21.520  0.00  0.00    +0.000 C 
ATOM     19  C   UNL     1      10.111  21.392  22.024  0.00  0.00    +0.000 C 
ENDBRANCH   2  12
TORSDOF 2
ENDMDL
MODEL 6
REMARK VINA RESULT:      -6.3     17.244     19.063
REMARK  Name = 
REMARK  2 active torsions:
REMARK  status: ('A' for Active; 'I' for Inactive)
REMARK    1  A    between atoms: C_1  and  C_11
REMARK    2  A    between atoms: N_2  and  N_3
REMARK                            x       y       z     vdW  Elec       q    Type
REMARK                         _______ _______ _______ _____ _____    ______ ____
ROOT
ATOM      1  C   UNL     1       9.085  23.762  21.406  0.00  0.00    +0.000 C 
ATOM      2  N   UNL     1      10.071  24.556  21.325  0.00  0.00    +0.000 NA
ENDROOT
BRANCH   1   3
ATOM      3  C   UNL     1       9.005  22.669  20.445  0.00  0.00    +0.000 A 
ATOM      4  C   UNL     1       8.335  22.578  19.263  0.00  0.00    +0.000 A 
ATOM      5  N   UNL     1       8.583  21.364  18.756  0.00  0.00    +0.000 NA
ATOM      6  C   UNL     1       9.388  20.668  19.570  0.00  0.00    +0.000 A 
ATOM      7  C   UNL     1       9.925  19.400  19.503  0.00  0.00    +0.000 A 
ATOM      8  C   UNL     1      10.740  18.955  20.522  0.00  0.00    +0.000 A 
ATOM      9  C   UNL     1      11.030  19.749  21.607  0.00  0.00    +0.000 A 
ATOM     10  C   UNL     1      10.497  21.013  21.676  0.00  0.00    +0.000 A 
ATOM     11  C   UNL     1       9.665  21.480  20.643  0.00  0.00    +0.000 A 
ENDBRANCH   1   3
BRANCH   2  12
ATOM     12  N   UNL     1      11.067  24.383  20.329  0.00  0.00    +0.000 NA
ATOM     13  C   UNL     1      12.424  24.188  20.650  0.00  0.00    +0.000 C 
ATOM     14  N   UNL     1      12.772  24.727  21.768  0.00  0.00    +0.000 NA
ATOM     15  C   UNL     1      14.077  24.744  22.436  0.00  0.00    +0.000 C 
ATOM     16  C   UNL     1      15.056  23.876  21.669  0.00  0.00    +0.000 C 
ATOM     17  C   UNL     1      14.638  22.443  21.632  0.00  0.00    +0.000 C 
ATOM     18  C   UNL     1      13.698  22.146  20.496  0.00  0.00    +0.000 C 
ATOM     19  C   UNL     1      13.311  23.421  19.739  0.00  0.00    +0.000 C 
ENDBRANCH   2  12
TORSDOF 2
ENDMDL
MODEL 7
REMARK VINA RESULT:      -6.1     20.175     22.072
REMARK  Name = 
REMARK  2 active torsions:
REMARK  status: ('A' for Active; 'I' for Inactive)
REMARK    1  A    between atoms: C_1  and  C_11
REMARK    2  A    between atoms: N_2  and  N_3
REMARK                            x       y       z     vdW  Elec       q    Type
REMARK                         _______ _______ _______ _____ _____    ______ ____
ROOT
ATOM      1  C   UNL     1      29.829  26.045  23.523  0.00  0.00    +0.000 C 
ATOM      2  N   UNL     1      30.780  25.674  24.277  0.00  0.00    +0.000 NA
ENDROOT
BRANCH   1   3
ATOM      3  C   UNL     1      28.922  25.025  23.013  0.00  0.00    +0.000 A 
ATOM      4  C   UNL     1      29.028  24.211  21.926  0.00  0.00    +0.000 A 
ATOM      5  N   UNL     1      27.928  23.449  21.890  0.00  0.00    +0.000 NA
ATOM      6  C   UNL     1      27.116  23.744  22.914  0.00  0.00    +0.000 A 
ATOM      7  C   UNL     1      25.890  23.253  23.313  0.00  0.00    +0.000 A 
ATOM      8  C   UNL     1      25.289  23.771  24.440  0.00  0.00    +0.000 A 
ATOM      9  C   UNL     1      25.884  24.768  25.177  0.00  0.00    +0.000 A 
ATOM     10  C   UNL     1      27.105  25.258  24.782  0.00  0.00    +0.000 A 
ATOM     11  C   UNL     1      27.730  24.738  23.634  0.00  0.00    +0.000 A 
ENDBRANCH   1   3
BRANCH   2  12
ATOM     12  N   UNL     1      30.953  24.307  24.612  0.00  0.00    +0.000 NA
ATOM     13  C   UNL     1      30.511  23.773  25.839  0.00  0.00    +0.000 C 
ATOM     14  N   UNL     1      30.486  24.635  26.797  0.00  0.00    +0.000 NA
ATOM     15  C   UNL     1      30.092  24.468  28.199  0.00  0.00    +0.000 C 
ATOM     16  C   UNL     1      29.544  23.070  28.414  0.00  0.00    +0.000 C 
ATOM     17  C   UNL     1      28.310  22.813  27.613  0.00  0.00    +0.000 C 
ATOM     18  C   UNL     1      28.618  22.330  26.222  0.00  0.00    +0.000 C 
ATOM     19  C   UNL     1      30.124  22.344  25.942  0.00  0.00    +0.000 C 
ENDBRANCH   2  12
TORSDOF 2
ENDMDL
MODEL 8
REMARK VINA RESULT:      -6.1     20.491     22.818
REMARK  Name = 
REMARK  2 active torsions:
REMARK  status: ('A' for Active; 'I' for Inactive)
REMARK    1  A    between atoms: C_1  and  C_11
REMARK    2  A    between atoms: N_2  and  N_3
REMARK                            x       y       z     vdW  Elec       q    Type
REMARK                         _______ _______ _______ _____ _____    ______ ____
ROOT
ATOM      1  C   UNL     1      17.711  -9.012  28.158  0.00  0.00    +0.000 C 
ATOM      2  N   UNL     1      16.787  -9.735  27.676  0.00  0.00    +0.000 NA
ENDROOT
BRANCH   1   3
ATOM      3  C   UNL     1      18.092  -7.810  27.428  0.00  0.00    +0.000 A 
ATOM      4  C   UNL     1      17.446  -6.619  27.286  0.00  0.00    +0.000 A 
ATOM      5  N   UNL     1      18.213  -5.838  26.516  0.00  0.00    +0.000 NA
ATOM      6  C   UNL     1      19.330  -6.483  26.155  0.00  0.00    +0.000 A 
ATOM      7  C   UNL     1      20.416  -6.125  25.384  0.00  0.00    +0.000 A 
ATOM      8  C   UNL     1      21.437  -7.030  25.189  0.00  0.00    +0.000 A 
ATOM      9  C   UNL     1      21.398  -8.286  25.748  0.00  0.00    +0.000 A 
ATOM     10  C   UNL     1      20.318  -8.646  26.517  0.00  0.00    +0.000 A 
ATOM     11  C   UNL     1      19.270  -7.732  26.724  0.00  0.00    +0.000 A 
ENDBRANCH   1   3
BRANCH   2  12
ATOM     12  N   UNL     1      16.145  -9.383  26.461  0.00  0.00    +0.000 NA
ATOM     13  C   UNL     1      14.793  -9.690  26.210  0.00  0.00    +0.000 C 
ATOM     14  N   UNL     1      14.379 -10.740  26.833  0.00  0.00    +0.000 NA
ATOM     15  C   UNL     1      13.056 -11.372  26.830  0.00  0.00    +0.000 C 
ATOM     16  C   UNL     1      12.084 -10.520  26.037  0.00  0.00    +0.000 C 
ATOM     17  C   UNL     1      11.886  -9.169  26.642  0.00  0.00    +0.000 C 
ATOM     18  C   UNL     1      12.917  -8.176  26.181  0.00  0.00    +0.000 C 
ATOM     19  C   UNL     1      13.984  -8.838  25.303  0.00  0.00    +0.000 C 
ENDBRANCH   2  12
TORSDOF 2
ENDMDL
MODEL 9
REMARK VINA RESULT:      -5.9     20.558     22.904
REMARK  Name = 
REMARK  2 active torsions:
REMARK  status: ('A' for Active; 'I' for Inactive)
REMARK    1  A    between atoms: C_1  and  C_11
REMARK    2  A    between atoms: N_2  and  N_3
REMARK                            x       y       z     vdW  Elec       q    Type
REMARK                         _______ _______ _______ _____ _____    ______ ____
ROOT
ATOM      1  C   UNL     1      17.298  -9.698  26.643  0.00  0.00    +0.000 C 
ATOM      2  N   UNL     1      17.561 -10.341  27.704  0.00  0.00    +0.000 NA
ENDROOT
BRANCH   1   3
ATOM      3  C   UNL     1      17.569  -8.266  26.625  0.00  0.00    +0.000 A 
ATOM      4  C   UNL     1      16.789  -7.214  27.001  0.00  0.00    +0.000 A 
ATOM      5  N   UNL     1      17.496  -6.098  26.790  0.00  0.00    +0.000 NA
ATOM      6  C   UNL     1      18.704  -6.392  26.289  0.00  0.00    +0.000 A 
ATOM      7  C   UNL     1      19.779  -5.617  25.910  0.00  0.00    +0.000 A 
ATOM      8  C   UNL     1      20.914  -6.226  25.419  0.00  0.00    +0.000 A 
ATOM      9  C   UNL     1      20.999  -7.594  25.299  0.00  0.00    +0.000 A 
ATOM     10  C   UNL     1      19.930  -8.369  25.678  0.00  0.00    +0.000 A 
ATOM     11  C   UNL     1      18.766  -7.760  26.180  0.00  0.00    +0.000 A 
ENDBRANCH   1   3
BRANCH   2  12
ATOM     12  N   UNL     1      18.102  -9.685  28.839  0.00  0.00    +0.000 NA
ATOM     13  C   UNL     1      17.727 -10.026  30.154  0.00  0.00    +0.000 C 
ATOM     14  N   UNL     1      16.534 -10.505  30.241  0.00  0.00    +0.000 NA
ATOM     15  C   UNL     1      15.793 -10.969  31.418  0.00  0.00    +0.000 C 
ATOM     16  C   UNL     1      16.697 -10.942  32.636  0.00  0.00    +0.000 C 
ATOM     17  C   UNL     1      17.862 -11.867  32.500  0.00  0.00    +0.000 C 
ATOM     18  C   UNL     1      19.025 -11.227  31.793  0.00  0.00    +0.000 C 
ATOM     19  C   UNL     1      18.672  -9.826  31.281  0.00  0.00    +0.000 C 
ENDBRANCH   2  12
TORSDOF 2
ENDMDL
MODEL 10
REMARK VINA RESULT:      -5.9     18.443     21.338
REMARK  Name = 
REMARK  2 active torsions:
REMARK  status: ('A' for Active; 'I' for Inactive)
REMARK    1  A    between atoms: C_1  and  C_11
REMARK    2  A    between atoms: N_2  and  N_3
REMARK                            x       y       z     vdW  Elec       q    Type
REMARK                         _______ _______ _______ _____ _____    ______ ____
ROOT
ATOM      1  C   UNL     1      26.065  23.490  25.114  0.00  0.00    +0.000 C 
ATOM      2  N   UNL     1      25.739  23.654  26.329  0.00  0.00    +0.000 NA
ENDROOT
BRANCH   1   3
ATOM      3  C   UNL     1      27.189  24.260  24.597  0.00  0.00    +0.000 A 
ATOM      4  C   UNL     1      27.223  25.484  24.000  0.00  0.00    +0.000 A 
ATOM      5  N   UNL     1      28.501  25.750  23.707  0.00  0.00    +0.000 NA
ATOM      6  C   UNL     1      29.293  24.740  24.091  0.00  0.00    +0.000 A 
ATOM      7  C   UNL     1      30.655  24.531  24.016  0.00  0.00    +0.000 A 
ATOM      8  C   UNL     1      31.189  23.361  24.511  0.00  0.00    +0.000 A 
ATOM      9  C   UNL     1      30.393  22.395  25.081  0.00  0.00    +0.000 A 
ATOM     10  C   UNL     1      29.037  22.600  25.158  0.00  0.00    +0.000 A 
ATOM     11  C   UNL     1      28.479  23.790  24.656  0.00  0.00    +0.000 A 
ENDBRANCH   1   3
BRANCH   2  12
ATOM     12  N   UNL     1      26.449  24.559  27.158  0.00  0.00    +0.000 NA
ATOM     13  C   UNL     1      27.256  24.123  28.228  0.00  0.00    +0.000 C 
ATOM     14  N   UNL     1      26.872  23.004  28.739  0.00  0.00    +0.000 NA
ATOM     15  C   UNL     1      27.444  22.235  29.850  0.00  0.00    +0.000 C 
ATOM     16  C   UNL     1      28.733  22.886  30.313  0.00  0.00    +0.000 C 
ATOM     17  C   UNL     1      29.780  22.897  29.248  0.00  0.00    +0.000 C 
ATOM     18  C   UNL     1      29.664  24.091  28.340  0.00  0.00    +0.000 C 
ATOM     19  C   UNL     1      28.423  24.928  28.667  0.00  0.00    +0.000 C 
ENDBRANCH   2  12
TORSDOF 2
ENDMDL
