MODEL 1
REMARK VINA RESULT:      -8.0      0.000      0.000
REMARK  Name = 
REMARK  7 active torsions:
REMARK  status: ('A' for Active; 'I' for Inactive)
REMARK    1  A    between atoms: C_2  and  C_4
REMARK    2  A    between atoms: C_4  and  O_5
REMARK    3  A    between atoms: O_5  and  C_6
REMARK    4  A    between atoms: C_9  and  C_10
REMARK    5  A    between atoms: C_20  and  O_21
REMARK    6  A    between atoms: O_21  and  C_22
REMARK    7  A    between atoms: C_22  and  C_23
REMARK                            x       y       z     vdW  Elec       q    Type
REMARK                         _______ _______ _______ _____ _____    ______ ____
ROOT
ATOM      1  C   UNL     1      37.913   4.786  15.164  0.00  0.00    +0.000 C 
ATOM      2  N   UNL     1      39.341   4.076  15.005  0.00  0.00    +0.000 NA
ATOM      3  C   UNL     1      39.216   3.379  13.750  0.00  0.00    +0.000 C 
ATOM      4  C   UNL     1      37.914   2.633  13.589  0.00  0.00    +0.000 C 
ATOM      5  C   UNL     1      37.250   2.432  14.881  0.00  0.00    +0.000 A 
ATOM      6  C   UNL     1      37.194   3.478  15.760  0.00  0.00    +0.000 A 
ATOM      7  N   UNL     1      36.577   3.132  16.837  0.00  0.00    +0.000 NA
ATOM      8  C   UNL     1      36.187   1.853  16.751  0.00  0.00    +0.000 A 
ATOM      9  C   UNL     1      35.518   1.011  17.585  0.00  0.00    +0.000 A 
ATOM     10  C   UNL     1      35.235  -0.315  17.232  0.00  0.00    +0.000 A 
ATOM     11  C   UNL     1      35.646  -0.810  15.988  0.00  0.00    +0.000 A 
ATOM     12  C   UNL     1      36.316   0.080  15.187  0.00  0.00    +0.000 A 
ATOM     13  C   UNL     1      36.603   1.391  15.520  0.00  0.00    +0.000 A 
ENDROOT
BRANCH   1  17
ATOM     14  C   UNL     1      38.864   6.755  18.957  0.00  0.00    +0.000 A 
ATOM     15  C   UNL     1      39.218   5.447  18.734  0.00  0.00    +0.000 A 
ATOM     16  C   UNL     1      38.916   4.804  17.514  0.00  0.00    +0.000 A 
ATOM     17  C   UNL     1      38.261   5.497  16.543  0.00  0.00    +0.000 A 
ATOM     18  C   UNL     1      37.897   6.795  16.736  0.00  0.00    +0.000 A 
ATOM     19  C   UNL     1      38.204   7.429  17.959  0.00  0.00    +0.000 A 
BRANCH  14  20
ATOM     20  O   UNL     1      39.147   7.417  20.147  0.00  0.00    +0.000 OA
BRANCH  20  21
ATOM     21  C   UNL     1      40.320   8.246  20.217  0.00  0.00    +0.000 C 
BRANCH  21  23
ATOM     22  C   UNL     1      38.552   9.642  21.103  0.00  0.00    +0.000 C 
ATOM     23  C   UNL     1      39.799   9.669  20.211  0.00  0.00    +0.000 C 
ATOM     24  C   UNL     1      40.800  10.573  20.943  0.00  0.00    +0.000 C 
ENDBRANCH  21  23
ENDBRANCH  20  21
ENDBRANCH  14  20
ENDBRANCH   1  17
BRANCH  11  25
ATOM     25  O   UNL     1      35.376  -2.122  15.622  0.00  0.00    +0.000 OA
BRANCH  25  26
ATOM     26  C   UNL     1      36.278  -3.108  16.055  0.00  0.00    +0.000 C 
BRANCH  26  27
ATOM     27  C   UNL     1      37.547  -2.955  15.320  0.00  0.00    +0.000 A 
ATOM     28  C   UNL     1      38.763  -2.639  15.891  0.00  0.00    +0.000 A 
ATOM     29  C   UNL     1      39.882  -2.523  15.094  0.00  0.00    +0.000 A 
ATOM     30  C   UNL     1      39.806  -2.714  13.745  0.00  0.00    +0.000 A 
ATOM     31  C   UNL     1      38.603  -3.026  13.167  0.00  0.00    +0.000 A 
ATOM     32  C   UNL     1      37.491  -3.146  13.933  0.00  0.00    +0.000 A 
ENDBRANCH  26  27
ENDBRANCH  25  26
ENDBRANCH  11  25
TORSDOF 7
ENDMDL
MODEL 2
REMARK VINA RESULT:      -7.9      2.994     10.276
REMARK  Name = 
REMARK  7 active torsions:
REMARK  status: ('A' for Active; 'I' for Inactive)
REMARK    1  A    between atoms: C_2  and  C_4
REMARK    2  A    between atoms: C_4  and  O_5
REMARK    3  A    between atoms: O_5  and  C_6
REMARK    4  A    between atoms: C_9  and  C_10
REMARK    5  A    between atoms: C_20  and  O_21
REMARK    6  A    between atoms: O_21  and  C_22
REMARK    7  A    between atoms: C_22  and  C_23
REMARK                            x       y       z     vdW  Elec       q    Type
REMARK                         _______ _______ _______ _____ _____    ______ ____
ROOT
ATOM      1  C   UNL     1      39.379  -2.426  15.077  0.00  0.00    +0.000 C 
ATOM      2  N   UNL     1      39.362  -2.348  13.476  0.00  0.00    +0.000 NA
ATOM      3  C   UNL     1      40.545  -1.581  13.179  0.00  0.00    +0.000 C 
ATOM      4  C   UNL     1      40.722  -0.362  14.051  0.00  0.00    +0.000 C 
ATOM      5  C   UNL     1      39.467   0.007  14.715  0.00  0.00    +0.000 A 
ATOM      6  C   UNL     1      38.706  -0.980  15.276  0.00  0.00    +0.000 A 
ATOM      7  N   UNL     1      37.647  -0.483  15.815  0.00  0.00    +0.000 NA
ATOM      8  C   UNL     1      37.629   0.846  15.652  0.00  0.00    +0.000 A 
ATOM      9  C   UNL     1      36.764   1.832  16.016  0.00  0.00    +0.000 A 
ATOM     10  C   UNL     1      37.000   3.179  15.709  0.00  0.00    +0.000 A 
ATOM     11  C   UNL     1      38.154   3.543  15.004  0.00  0.00    +0.000 A 
ATOM     12  C   UNL     1      38.991   2.511  14.662  0.00  0.00    +0.000 A 
ATOM     13  C   UNL     1      38.774   1.179  14.958  0.00  0.00    +0.000 A 
ENDROOT
BRANCH   1  17
ATOM     14  C   UNL     1      35.746  -4.848  15.401  0.00  0.00    +0.000 A 
ATOM     15  C   UNL     1      36.000  -4.105  14.274  0.00  0.00    +0.000 A 
ATOM     16  C   UNL     1      37.169  -3.321  14.160  0.00  0.00    +0.000 A 
ATOM     17  C   UNL     1      38.059  -3.304  15.191  0.00  0.00    +0.000 A 
ATOM     18  C   UNL     1      37.833  -4.030  16.320  0.00  0.00    +0.000 A 
ATOM     19  C   UNL     1      36.662  -4.810  16.424  0.00  0.00    +0.000 A 
BRANCH  14  20
ATOM     20  O   UNL     1      34.605  -5.629  15.544  0.00  0.00    +0.000 OA
BRANCH  20  21
ATOM     21  C   UNL     1      33.881  -6.021  14.365  0.00  0.00    +0.000 C 
BRANCH  21  23
ATOM     22  C   UNL     1      33.141  -8.187  15.154  0.00  0.00    +0.000 C 
ATOM     23  C   UNL     1      34.143  -7.506  14.214  0.00  0.00    +0.000 C 
ATOM     24  C   UNL     1      33.738  -7.948  12.802  0.00  0.00    +0.000 C 
ENDBRANCH  21  23
ENDBRANCH  20  21
ENDBRANCH  14  20
ENDBRANCH   1  17
BRANCH  11  25
ATOM     25  O   UNL     1      38.402   4.872  14.689  0.00  0.00    +0.000 OA
BRANCH  25  26
ATOM     26  C   UNL     1      38.003   5.839  15.626  0.00  0.00    +0.000 C 
BRANCH  26  27
ATOM     27  C   UNL     1      39.054   5.977  16.652  0.00  0.00    +0.000 A 
ATOM     28  C   UNL     1      40.379   6.267  16.399  0.00  0.00    +0.000 A 
ATOM     29  C   UNL     1      41.268   6.369  17.447  0.00  0.00    +0.000 A 
ATOM     30  C   UNL     1      40.858   6.186  18.736  0.00  0.00    +0.000 A 
ATOM     31  C   UNL     1      39.545   5.896  18.999  0.00  0.00    +0.000 A 
ATOM     32  C   UNL     1      38.655   5.792  17.982  0.00  0.00    +0.000 A 
ENDBRANCH  26  27
ENDBRANCH  25  26
ENDBRANCH  11  25
TORSDOF 7
ENDMDL
MODEL 3
REMARK VINA RESULT:      -7.9      1.054      1.826
REMARK  Name = 
REMARK  7 active torsions:
REMARK  status: ('A' for Active; 'I' for Inactive)
REMARK    1  A    between atoms: C_2  and  C_4
REMARK    2  A    between atoms: C_4  and  O_5
REMARK    3  A    between atoms: O_5  and  C_6
REMARK    4  A    between atoms: C_9  and  C_10
REMARK    5  A    between atoms: C_20  and  O_21
REMARK    6  A    between atoms: O_21  and  C_22
REMARK    7  A    between atoms: C_22  and  C_23
REMARK                            x       y       z     vdW  Elec       q    Type
REMARK                         _______ _______ _______ _____ _____    ______ ____
ROOT
ATOM      1  C   UNL     1      38.193   4.974  15.117  0.00  0.00    +0.000 C 
ATOM      2  N   UNL     1      39.611   4.228  15.166  0.00  0.00    +0.000 NA
ATOM      3  C   UNL     1      39.629   3.489  13.929  0.00  0.00    +0.000 C 
ATOM      4  C   UNL     1      38.339   2.767  13.627  0.00  0.00    +0.000 C 
ATOM      5  C   UNL     1      37.510   2.627  14.829  0.00  0.00    +0.000 A 
ATOM      6  C   UNL     1      37.370   3.705  15.658  0.00  0.00    +0.000 A 
ATOM      7  N   UNL     1      36.611   3.411  16.658  0.00  0.00    +0.000 NA
ATOM      8  C   UNL     1      36.203   2.139  16.565  0.00  0.00    +0.000 A 
ATOM      9  C   UNL     1      35.410   1.342  17.332  0.00  0.00    +0.000 A 
ATOM     10  C   UNL     1      35.139   0.010  16.989  0.00  0.00    +0.000 A 
ATOM     11  C   UNL     1      35.693  -0.538  15.826  0.00  0.00    +0.000 A 
ATOM     12  C   UNL     1      36.483   0.308  15.089  0.00  0.00    +0.000 A 
ATOM     13  C   UNL     1      36.759   1.623  15.413  0.00  0.00    +0.000 A 
ENDROOT
BRANCH   1  17
ATOM     14  C   UNL     1      38.716   7.037  18.944  0.00  0.00    +0.000 A 
ATOM     15  C   UNL     1      38.121   7.668  17.879  0.00  0.00    +0.000 A 
ATOM     16  C   UNL     1      37.949   7.011  16.641  0.00  0.00    +0.000 A 
ATOM     17  C   UNL     1      38.381   5.727  16.505  0.00  0.00    +0.000 A 
ATOM     18  C   UNL     1      38.974   5.076  17.544  0.00  0.00    +0.000 A 
ATOM     19  C   UNL     1      39.142   5.742  18.777  0.00  0.00    +0.000 A 
BRANCH  14  20
ATOM     20  O   UNL     1      38.900   7.656  20.175  0.00  0.00    +0.000 OA
BRANCH  20  21
ATOM     21  C   UNL     1      37.913   8.595  20.633  0.00  0.00    +0.000 C 
BRANCH  21  23
ATOM     22  C   UNL     1      40.137   9.549  20.562  0.00  0.00    +0.000 C 
ATOM     23  C   UNL     1      38.685   9.862  20.943  0.00  0.00    +0.000 C 
ATOM     24  C   UNL     1      38.244  10.969  19.976  0.00  0.00    +0.000 C 
ENDBRANCH  21  23
ENDBRANCH  20  21
ENDBRANCH  14  20
ENDBRANCH   1  17
BRANCH  11  25
ATOM     25  O   UNL     1      35.437  -1.856  15.471  0.00  0.00    +0.000 OA
BRANCH  25  26
ATOM     26  C   UNL     1      36.482  -2.572  14.864  0.00  0.00    +0.000 C 
BRANCH  26  27
ATOM     27  C   UNL     1      37.221  -3.315  15.901  0.00  0.00    +0.000 A 
ATOM     28  C   UNL     1      38.200  -2.783  16.715  0.00  0.00    +0.000 A 
ATOM     29  C   UNL     1      38.821  -3.584  17.650  0.00  0.00    +0.000 A 
ATOM     30  C   UNL     1      38.483  -4.899  17.783  0.00  0.00    +0.000 A 
ATOM     31  C   UNL     1      37.513  -5.439  16.979  0.00  0.00    +0.000 A 
ATOM     32  C   UNL     1      36.890  -4.668  16.054  0.00  0.00    +0.000 A 
ENDBRANCH  26  27
ENDBRANCH  25  26
ENDBRANCH  11  25
TORSDOF 7
ENDMDL
MODEL 4
REMARK VINA RESULT:      -7.8      1.908      8.900
REMARK  Name = 
REMARK  7 active torsions:
REMARK  status: ('A' for Active; 'I' for Inactive)
REMARK    1  A    between atoms: C_2  and  C_4
REMARK    2  A    between atoms: C_4  and  O_5
REMARK    3  A    between atoms: O_5  and  C_6
REMARK    4  A    between atoms: C_9  and  C_10
REMARK    5  A    between atoms: C_20  and  O_21
REMARK    6  A    between atoms: O_21  and  C_22
REMARK    7  A    between atoms: C_22  and  C_23
REMARK                            x       y       z     vdW  Elec       q    Type
REMARK                         _______ _______ _______ _____ _____    ______ ____
ROOT
ATOM      1  C   UNL     1      36.786   3.291  14.087  0.00  0.00    +0.000 C 
ATOM      2  N   UNL     1      35.348   3.954  14.330  0.00  0.00    +0.000 NA
ATOM      3  C   UNL     1      35.507   5.278  13.782  0.00  0.00    +0.000 C 
ATOM      4  C   UNL     1      36.794   5.956  14.181  0.00  0.00    +0.000 C 
ATOM      5  C   UNL     1      37.398   5.311  15.352  0.00  0.00    +0.000 A 
ATOM      6  C   UNL     1      37.445   3.946  15.398  0.00  0.00    +0.000 A 
ATOM      7  N   UNL     1      38.006   3.549  16.488  0.00  0.00    +0.000 NA
ATOM      8  C   UNL     1      38.365   4.604  17.230  0.00  0.00    +0.000 A 
ATOM      9  C   UNL     1      38.976   4.747  18.438  0.00  0.00    +0.000 A 
ATOM     10  C   UNL     1      39.239   6.006  18.994  0.00  0.00    +0.000 A 
ATOM     11  C   UNL     1      38.867   7.166  18.304  0.00  0.00    +0.000 A 
ATOM     12  C   UNL     1      38.255   6.966  17.092  0.00  0.00    +0.000 A 
ATOM     13  C   UNL     1      37.990   5.732  16.529  0.00  0.00    +0.000 A 
ENDROOT
BRANCH   1  17
ATOM     14  C   UNL     1      35.730  -0.598  15.801  0.00  0.00    +0.000 A 
ATOM     15  C   UNL     1      35.148   0.558  16.262  0.00  0.00    +0.000 A 
ATOM     16  C   UNL     1      35.482   1.816  15.716  0.00  0.00    +0.000 A 
ATOM     17  C   UNL     1      36.399   1.881  14.712  0.00  0.00    +0.000 A 
ATOM     18  C   UNL     1      36.993   0.752  14.235  0.00  0.00    +0.000 A 
ATOM     19  C   UNL     1      36.652  -0.501  14.788  0.00  0.00    +0.000 A 
BRANCH  14  20
ATOM     20  O   UNL     1      35.422  -1.851  16.318  0.00  0.00    +0.000 OA
BRANCH  20  21
ATOM     21  C   UNL     1      35.721  -2.124  17.697  0.00  0.00    +0.000 C 
BRANCH  21  23
ATOM     22  C   UNL     1      37.489  -1.691  19.294  0.00  0.00    +0.000 C 
ATOM     23  C   UNL     1      37.226  -1.982  17.812  0.00  0.00    +0.000 C 
ATOM     24  C   UNL     1      37.881  -3.344  17.544  0.00  0.00    +0.000 C 
ENDBRANCH  21  23
ENDBRANCH  20  21
ENDBRANCH  14  20
ENDBRANCH   1  17
BRANCH  11  25
ATOM     25  O   UNL     1      39.118   8.422  18.841  0.00  0.00    +0.000 OA
BRANCH  25  26
ATOM     26  C   UNL     1      40.279   9.084  18.410  0.00  0.00    +0.000 C 
BRANCH  26  27
ATOM     27  C   UNL     1      41.460   8.335  18.877  0.00  0.00    +0.000 A 
ATOM     28  C   UNL     1      41.857   8.214  20.193  0.00  0.00    +0.000 A 
ATOM     29  C   UNL     1      42.985   7.484  20.503  0.00  0.00    +0.000 A 
ATOM     30  C   UNL     1      43.719   6.878  19.525  0.00  0.00    +0.000 A 
ATOM     31  C   UNL     1      43.335   6.992  18.214  0.00  0.00    +0.000 A 
ATOM     32  C   UNL     1      42.229   7.704  17.889  0.00  0.00    +0.000 A 
ENDBRANCH  26  27
ENDBRANCH  25  26
ENDBRANCH  11  25
TORSDOF 7
ENDMDL
MODEL 5
REMARK VINA RESULT:      -7.8      1.783     10.361
REMARK  Name = 
REMARK  7 active torsions:
REMARK  status: ('A' for Active; 'I' for Inactive)
REMARK    1  A    between atoms: C_2  and  C_4
REMARK    2  A    between atoms: C_4  and  O_5
REMARK    3  A    between atoms: O_5  and  C_6
REMARK    4  A    between atoms: C_9  and  C_10
REMARK    5  A    between atoms: C_20  and  O_21
REMARK    6  A    between atoms: O_21  and  C_22
REMARK    7  A    between atoms: C_22  and  C_23
REMARK                            x       y       z     vdW  Elec       q    Type
REMARK                         _______ _______ _______ _____ _____    ______ ____
ROOT
ATOM      1  C   UNL     1      37.076   3.053  14.148  0.00  0.00    +0.000 C 
ATOM      2  N   UNL     1      35.584   3.617  14.296  0.00  0.00    +0.000 NA
ATOM      3  C   UNL     1      35.665   4.912  13.670  0.00  0.00    +0.000 C 
ATOM      4  C   UNL     1      36.881   5.712  14.070  0.00  0.00    +0.000 C 
ATOM      5  C   UNL     1      37.483   5.189  15.301  0.00  0.00    +0.000 A 
ATOM      6  C   UNL     1      37.630   3.837  15.436  0.00  0.00    +0.000 A 
ATOM      7  N   UNL     1      38.175   3.553  16.569  0.00  0.00    +0.000 NA
ATOM      8  C   UNL     1      38.423   4.677  17.253  0.00  0.00    +0.000 A 
ATOM      9  C   UNL     1      38.973   4.941  18.470  0.00  0.00    +0.000 A 
ATOM     10  C   UNL     1      39.118   6.248  18.953  0.00  0.00    +0.000 A 
ATOM     11  C   UNL     1      38.688   7.331  18.176  0.00  0.00    +0.000 A 
ATOM     12  C   UNL     1      38.142   7.010  16.959  0.00  0.00    +0.000 A 
ATOM     13  C   UNL     1      37.993   5.726  16.468  0.00  0.00    +0.000 A 
ENDROOT
BRANCH   1  17
ATOM     14  C   UNL     1      36.249  -0.791  16.074  0.00  0.00    +0.000 A 
ATOM     15  C   UNL     1      35.338   0.236  16.130  0.00  0.00    +0.000 A 
ATOM     16  C   UNL     1      35.596   1.479  15.512  0.00  0.00    +0.000 A 
ATOM     17  C   UNL     1      36.772   1.659  14.848  0.00  0.00    +0.000 A 
ATOM     18  C   UNL     1      37.693   0.659  14.777  0.00  0.00    +0.000 A 
ATOM     19  C   UNL     1      37.425  -0.580  15.399  0.00  0.00    +0.000 A 
BRANCH  14  20
ATOM     20  O   UNL     1      36.024  -2.026  16.673  0.00  0.00    +0.000 OA
BRANCH  20  21
ATOM     21  C   UNL     1      34.753  -2.669  16.479  0.00  0.00    +0.000 C 
BRANCH  21  23
ATOM     22  C   UNL     1      35.973  -4.544  15.552  0.00  0.00    +0.000 C 
ATOM     23  C   UNL     1      34.914  -3.489  15.214  0.00  0.00    +0.000 C 
ATOM     24  C   UNL     1      33.623  -4.279  14.959  0.00  0.00    +0.000 C 
ENDBRANCH  21  23
ENDBRANCH  20  21
ENDBRANCH  14  20
ENDBRANCH   1  17
BRANCH  11  25
ATOM     25  O   UNL     1      38.822   8.634  18.640  0.00  0.00    +0.000 OA
BRANCH  25  26
ATOM     26  C   UNL     1      37.656   9.413  18.710  0.00  0.00    +0.000 C 
BRANCH  26  27
ATOM     27  C   UNL     1      37.908  10.576  19.582  0.00  0.00    +0.000 A 
ATOM     28  C   UNL     1      38.556  10.532  20.799  0.00  0.00    +0.000 A 
ATOM     29  C   UNL     1      38.730  11.692  21.523  0.00  0.00    +0.000 A 
ATOM     30  C   UNL     1      38.269  12.888  21.054  0.00  0.00    +0.000 A 
ATOM     31  C   UNL     1      37.622  12.943  19.847  0.00  0.00    +0.000 A 
ATOM     32  C   UNL     1      37.441  11.814  19.120  0.00  0.00    +0.000 A 
ENDBRANCH  26  27
ENDBRANCH  25  26
ENDBRANCH  11  25
TORSDOF 7
ENDMDL
MODEL 6
REMARK VINA RESULT:      -7.7      2.457      9.262
REMARK  Name = 
REMARK  7 active torsions:
REMARK  status: ('A' for Active; 'I' for Inactive)
REMARK    1  A    between atoms: C_2  and  C_4
REMARK    2  A    between atoms: C_4  and  O_5
REMARK    3  A    between atoms: O_5  and  C_6
REMARK    4  A    between atoms: C_9  and  C_10
REMARK    5  A    between atoms: C_20  and  O_21
REMARK    6  A    between atoms: O_21  and  C_22
REMARK    7  A    between atoms: C_22  and  C_23
REMARK                            x       y       z     vdW  Elec       q    Type
REMARK                         _______ _______ _______ _____ _____    ______ ____
ROOT
ATOM      1  C   UNL     1      37.038  -0.696  15.169  0.00  0.00    +0.000 C 
ATOM      2  N   UNL     1      37.501  -0.794  16.700  0.00  0.00    +0.000 NA
ATOM      3  C   UNL     1      36.425  -0.144  17.405  0.00  0.00    +0.000 C 
ATOM      4  C   UNL     1      35.971   1.149  16.773  0.00  0.00    +0.000 C 
ATOM      5  C   UNL     1      36.976   1.671  15.841  0.00  0.00    +0.000 A 
ATOM      6  C   UNL     1      37.580   0.803  14.974  0.00  0.00    +0.000 A 
ATOM      7  N   UNL     1      38.429   1.425  14.230  0.00  0.00    +0.000 NA
ATOM      8  C   UNL     1      38.448   2.727  14.546  0.00  0.00    +0.000 A 
ATOM      9  C   UNL     1      39.144   3.802  14.083  0.00  0.00    +0.000 A 
ATOM     10  C   UNL     1      38.961   5.088  14.609  0.00  0.00    +0.000 A 
ATOM     11  C   UNL     1      38.040   5.295  15.643  0.00  0.00    +0.000 A 
ATOM     12  C   UNL     1      37.366   4.179  16.072  0.00  0.00    +0.000 A 
ATOM     13  C   UNL     1      37.535   2.905  15.564  0.00  0.00    +0.000 A 
ENDROOT
BRANCH   1  17
ATOM     14  C   UNL     1      40.521  -2.821  13.581  0.00  0.00    +0.000 A 
ATOM     15  C   UNL     1      39.393  -2.648  12.818  0.00  0.00    +0.000 A 
ATOM     16  C   UNL     1      38.264  -1.964  13.321  0.00  0.00    +0.000 A 
ATOM     17  C   UNL     1      38.300  -1.468  14.588  0.00  0.00    +0.000 A 
ATOM     18  C   UNL     1      39.405  -1.625  15.369  0.00  0.00    +0.000 A 
ATOM     19  C   UNL     1      40.528  -2.310  14.855  0.00  0.00    +0.000 A 
BRANCH  14  20
ATOM     20  O   UNL     1      41.647  -3.489  13.114  0.00  0.00    +0.000 OA
BRANCH  20  21
ATOM     21  C   UNL     1      42.899  -2.784  13.060  0.00  0.00    +0.000 C 
BRANCH  21  23
ATOM     22  C   UNL     1      43.241  -0.427  12.622  0.00  0.00    +0.000 C 
ATOM     23  C   UNL     1      42.709  -1.721  11.996  0.00  0.00    +0.000 C 
ATOM     24  C   UNL     1      43.647  -2.016  10.818  0.00  0.00    +0.000 C 
ENDBRANCH  21  23
ENDBRANCH  20  21
ENDBRANCH  14  20
ENDBRANCH   1  17
BRANCH  11  25
ATOM     25  O   UNL     1      37.848   6.563  16.177  0.00  0.00    +0.000 OA
BRANCH  25  26
ATOM     26  C   UNL     1      38.987   7.364  16.357  0.00  0.00    +0.000 C 
BRANCH  26  27
ATOM     27  C   UNL     1      39.574   7.073  17.679  0.00  0.00    +0.000 A 
ATOM     28  C   UNL     1      38.913   7.182  18.885  0.00  0.00    +0.000 A 
ATOM     29  C   UNL     1      39.573   6.881  20.056  0.00  0.00    +0.000 A 
ATOM     30  C   UNL     1      40.876   6.477  20.043  0.00  0.00    +0.000 A 
ATOM     31  C   UNL     1      41.544   6.366  18.851  0.00  0.00    +0.000 A 
ATOM     32  C   UNL     1      40.912   6.657  17.688  0.00  0.00    +0.000 A 
ENDBRANCH  26  27
ENDBRANCH  25  26
ENDBRANCH  11  25
TORSDOF 7
ENDMDL
MODEL 7
REMARK VINA RESULT:      -7.6      1.854      2.876
REMARK  Name = 
REMARK  7 active torsions:
REMARK  status: ('A' for Active; 'I' for Inactive)
REMARK    1  A    between atoms: C_2  and  C_4
REMARK    2  A    between atoms: C_4  and  O_5
REMARK    3  A    between atoms: O_5  and  C_6
REMARK    4  A    between atoms: C_9  and  C_10
REMARK    5  A    between atoms: C_20  and  O_21
REMARK    6  A    between atoms: O_21  and  C_22
REMARK    7  A    between atoms: C_22  and  C_23
REMARK                            x       y       z     vdW  Elec       q    Type
REMARK                         _______ _______ _______ _____ _____    ______ ____
ROOT
ATOM      1  C   UNL     1      37.847   3.483  14.485  0.00  0.00    +0.000 C 
ATOM      2  N   UNL     1      39.319   2.858  14.587  0.00  0.00    +0.000 NA
ATOM      3  C   UNL     1      39.263   1.750  13.667  0.00  0.00    +0.000 C 
ATOM      4  C   UNL     1      38.013   0.913  13.791  0.00  0.00    +0.000 C 
ATOM      5  C   UNL     1      37.337   1.147  15.072  0.00  0.00    +0.000 A 
ATOM      6  C   UNL     1      37.199   2.433  15.515  0.00  0.00    +0.000 A 
ATOM      7  N   UNL     1      36.584   2.458  16.647  0.00  0.00    +0.000 NA
ATOM      8  C   UNL     1      36.276   1.211  17.029  0.00  0.00    +0.000 A 
ATOM      9  C   UNL     1      35.644   0.683  18.112  0.00  0.00    +0.000 A 
ATOM     10  C   UNL     1      35.451  -0.697  18.262  0.00  0.00    +0.000 A 
ATOM     11  C   UNL     1      35.917  -1.578  17.278  0.00  0.00    +0.000 A 
ATOM     12  C   UNL     1      36.546  -0.994  16.207  0.00  0.00    +0.000 A 
ATOM     13  C   UNL     1      36.744   0.365  16.045  0.00  0.00    +0.000 A 
ENDROOT
BRANCH   1  17
ATOM     14  C   UNL     1      38.613   6.726  17.325  0.00  0.00    +0.000 A 
ATOM     15  C   UNL     1      37.931   6.959  16.157  0.00  0.00    +0.000 A 
ATOM     16  C   UNL     1      37.679   5.920  15.234  0.00  0.00    +0.000 A 
ATOM     17  C   UNL     1      38.123   4.663  15.514  0.00  0.00    +0.000 A 
ATOM     18  C   UNL     1      38.802   4.403  16.665  0.00  0.00    +0.000 A 
ATOM     19  C   UNL     1      39.048   5.449  17.580  0.00  0.00    +0.000 A 
BRANCH  14  20
ATOM     20  O   UNL     1      38.876   7.728  18.253  0.00  0.00    +0.000 OA
BRANCH  20  21
ATOM     21  C   UNL     1      40.243   8.097  18.504  0.00  0.00    +0.000 C 
BRANCH  21  23
ATOM     22  C   UNL     1      39.020   7.881  20.583  0.00  0.00    +0.000 C 
ATOM     23  C   UNL     1      40.436   7.907  19.995  0.00  0.00    +0.000 C 
ATOM     24  C   UNL     1      41.007   6.506  20.254  0.00  0.00    +0.000 C 
ENDBRANCH  21  23
ENDBRANCH  20  21
ENDBRANCH  14  20
ENDBRANCH   1  17
BRANCH  11  25
ATOM     25  O   UNL     1      35.736  -2.948  17.410  0.00  0.00    +0.000 OA
BRANCH  25  26
ATOM     26  C   UNL     1      36.438  -3.778  16.521  0.00  0.00    +0.000 C 
BRANCH  26  27
ATOM     27  C   UNL     1      35.471  -4.577  15.744  0.00  0.00    +0.000 A 
ATOM     28  C   UNL     1      34.670  -4.091  14.731  0.00  0.00    +0.000 A 
ATOM     29  C   UNL     1      33.803  -4.942  14.079  0.00  0.00    +0.000 A 
ATOM     30  C   UNL     1      33.723  -6.260  14.421  0.00  0.00    +0.000 A 
ATOM     31  C   UNL     1      34.513  -6.753  15.426  0.00  0.00    +0.000 A 
ATOM     32  C   UNL     1      35.373  -5.934  16.080  0.00  0.00    +0.000 A 
ENDBRANCH  26  27
ENDBRANCH  25  26
ENDBRANCH  11  25
TORSDOF 7
ENDMDL
MODEL 8
REMARK VINA RESULT:      -7.5      4.483     10.188
REMARK  Name = 
REMARK  7 active torsions:
REMARK  status: ('A' for Active; 'I' for Inactive)
REMARK    1  A    between atoms: C_2  and  C_4
REMARK    2  A    between atoms: C_4  and  O_5
REMARK    3  A    between atoms: O_5  and  C_6
REMARK    4  A    between atoms: C_9  and  C_10
REMARK    5  A    between atoms: C_20  and  O_21
REMARK    6  A    between atoms: O_21  and  C_22
REMARK    7  A    between atoms: C_22  and  C_23
REMARK                            x       y       z     vdW  Elec       q    Type
REMARK                         _______ _______ _______ _____ _____    ______ ____
ROOT
ATOM      1  C   UNL     1      38.591  -1.486  14.589  0.00  0.00    +0.000 C 
ATOM      2  N   UNL     1      38.155  -1.602  13.051  0.00  0.00    +0.000 NA
ATOM      3  C   UNL     1      38.847  -0.499  12.436  0.00  0.00    +0.000 C 
ATOM      4  C   UNL     1      38.756   0.793  13.212  0.00  0.00    +0.000 C 
ATOM      5  C   UNL     1      37.658   0.756  14.184  0.00  0.00    +0.000 A 
ATOM      6  C   UNL     1      37.491  -0.369  14.943  0.00  0.00    +0.000 A 
ATOM      7  N   UNL     1      36.488  -0.232  15.740  0.00  0.00    +0.000 NA
ATOM      8  C   UNL     1      35.929   0.973  15.570  0.00  0.00    +0.000 A 
ATOM      9  C   UNL     1      34.872   1.614  16.141  0.00  0.00    +0.000 A 
ATOM     10  C   UNL     1      34.496   2.910  15.764  0.00  0.00    +0.000 A 
ATOM     11  C   UNL     1      35.216   3.585  14.769  0.00  0.00    +0.000 A 
ATOM     12  C   UNL     1      36.271   2.894  14.228  0.00  0.00    +0.000 A 
ATOM     13  C   UNL     1      36.655   1.616  14.589  0.00  0.00    +0.000 A 
ENDROOT
BRANCH   1  17
ATOM     14  C   UNL     1      36.345  -5.004  15.912  0.00  0.00    +0.000 A 
ATOM     15  C   UNL     1      36.054  -4.390  14.719  0.00  0.00    +0.000 A 
ATOM     16  C   UNL     1      36.772  -3.255  14.284  0.00  0.00    +0.000 A 
ATOM     17  C   UNL     1      37.773  -2.764  15.065  0.00  0.00    +0.000 A 
ATOM     18  C   UNL     1      38.084  -3.352  16.254  0.00  0.00    +0.000 A 
ATOM     19  C   UNL     1      37.359  -4.486  16.679  0.00  0.00    +0.000 A 
BRANCH  14  20
ATOM     20  O   UNL     1      35.657  -6.123  16.368  0.00  0.00    +0.000 OA
BRANCH  20  21
ATOM     21  C   UNL     1      34.480  -6.548  15.660  0.00  0.00    +0.000 C 
BRANCH  21  23
ATOM     22  C   UNL     1      35.047  -8.097  17.433  0.00  0.00    +0.000 C 
ATOM     23  C   UNL     1      34.202  -7.951  16.162  0.00  0.00    +0.000 C 
ATOM     24  C   UNL     1      32.745  -8.037  16.634  0.00  0.00    +0.000 C 
ENDBRANCH  21  23
ENDBRANCH  20  21
ENDBRANCH  14  20
ENDBRANCH   1  17
BRANCH  11  25
ATOM     25  O   UNL     1      34.856   4.869  14.382  0.00  0.00    +0.000 OA
BRANCH  25  26
ATOM     26  C   UNL     1      35.821   5.627  13.699  0.00  0.00    +0.000 C 
BRANCH  26  27
ATOM     27  C   UNL     1      35.207   6.209  12.491  0.00  0.00    +0.000 A 
ATOM     28  C   UNL     1      34.033   6.934  12.465  0.00  0.00    +0.000 A 
ATOM     29  C   UNL     1      33.560   7.427  11.268  0.00  0.00    +0.000 A 
ATOM     30  C   UNL     1      34.236   7.209  10.103  0.00  0.00    +0.000 A 
ATOM     31  C   UNL     1      35.403   6.490  10.116  0.00  0.00    +0.000 A 
ATOM     32  C   UNL     1      35.885   5.997  11.282  0.00  0.00    +0.000 A 
ENDBRANCH  26  27
ENDBRANCH  25  26
ENDBRANCH  11  25
TORSDOF 7
ENDMDL
MODEL 9
REMARK VINA RESULT:      -7.5     16.198     20.650
REMARK  Name = 
REMARK  7 active torsions:
REMARK  status: ('A' for Active; 'I' for Inactive)
REMARK    1  A    between atoms: C_2  and  C_4
REMARK    2  A    between atoms: C_4  and  O_5
REMARK    3  A    between atoms: O_5  and  C_6
REMARK    4  A    between atoms: C_9  and  C_10
REMARK    5  A    between atoms: C_20  and  O_21
REMARK    6  A    between atoms: O_21  and  C_22
REMARK    7  A    between atoms: C_22  and  C_23
REMARK                            x       y       z     vdW  Elec       q    Type
REMARK                         _______ _______ _______ _____ _____    ______ ____
ROOT
ATOM      1  C   UNL     1      25.866  17.795  21.561  0.00  0.00    +0.000 C 
ATOM      2  N   UNL     1      25.948  16.303  20.983  0.00  0.00    +0.000 NA
ATOM      3  C   UNL     1      27.260  15.870  21.390  0.00  0.00    +0.000 C 
ATOM      4  C   UNL     1      28.344  16.894  21.156  0.00  0.00    +0.000 C 
ATOM      5  C   UNL     1      27.913  17.919  20.199  0.00  0.00    +0.000 A 
ATOM      6  C   UNL     1      26.658  18.447  20.324  0.00  0.00    +0.000 A 
ATOM      7  N   UNL     1      26.446  19.330  19.410  0.00  0.00    +0.000 NA
ATOM      8  C   UNL     1      27.526  19.448  18.627  0.00  0.00    +0.000 A 
ATOM      9  C   UNL     1      27.829  20.214  17.542  0.00  0.00    +0.000 A 
ATOM     10  C   UNL     1      29.071  20.133  16.899  0.00  0.00    +0.000 A 
ATOM     11  C   UNL     1      30.044  19.242  17.368  0.00  0.00    +0.000 A 
ATOM     12  C   UNL     1      29.688  18.496  18.462  0.00  0.00    +0.000 A 
ATOM     13  C   UNL     1      28.468  18.563  19.109  0.00  0.00    +0.000 A 
ENDROOT
BRANCH   1  17
ATOM     14  C   UNL     1      21.791  18.531  20.139  0.00  0.00    +0.000 A 
ATOM     15  C   UNL     1      22.432  19.441  20.942  0.00  0.00    +0.000 A 
ATOM     16  C   UNL     1      23.747  19.213  21.406  0.00  0.00    +0.000 A 
ATOM     17  C   UNL     1      24.387  18.066  21.046  0.00  0.00    +0.000 A 
ATOM     18  C   UNL     1      23.775  17.145  20.252  0.00  0.00    +0.000 A 
ATOM     19  C   UNL     1      22.461  17.383  19.794  0.00  0.00    +0.000 A 
BRANCH  14  20
ATOM     20  O   UNL     1      20.498  18.726  19.667  0.00  0.00    +0.000 OA
BRANCH  20  21
ATOM     21  C   UNL     1      20.316  19.301  18.362  0.00  0.00    +0.000 C 
BRANCH  21  23
ATOM     22  C   UNL     1      18.094  18.446  18.799  0.00  0.00    +0.000 C 
ATOM     23  C   UNL     1      19.193  18.503  17.731  0.00  0.00    +0.000 C 
ATOM     24  C   UNL     1      18.590  19.310  16.574  0.00  0.00    +0.000 C 
ENDBRANCH  21  23
ENDBRANCH  20  21
ENDBRANCH  14  20
ENDBRANCH   1  17
BRANCH  11  25
ATOM     25  O   UNL     1      31.280  19.148  16.741  0.00  0.00    +0.000 OA
BRANCH  25  26
ATOM     26  C   UNL     1      31.318  19.385  15.357  0.00  0.00    +0.000 C 
BRANCH  26  27
ATOM     27  C   UNL     1      31.494  18.100  14.655  0.00  0.00    +0.000 A 
ATOM     28  C   UNL     1      32.528  17.801  13.791  0.00  0.00    +0.000 A 
ATOM     29  C   UNL     1      32.583  16.560  13.195  0.00  0.00    +0.000 A 
ATOM     30  C   UNL     1      31.626  15.619  13.443  0.00  0.00    +0.000 A 
ATOM     31  C   UNL     1      30.594  15.905  14.298  0.00  0.00    +0.000 A 
ATOM     32  C   UNL     1      30.523  17.119  14.896  0.00  0.00    +0.000 A 
ENDBRANCH  26  27
ENDBRANCH  25  26
ENDBRANCH  11  25
TORSDOF 7
ENDMDL
MODEL 10
REMARK VINA RESULT:      -7.4      4.317      9.823
REMARK  Name = 
REMARK  7 active torsions:
REMARK  status: ('A' for Active; 'I' for Inactive)
REMARK    1  A    between atoms: C_2  and  C_4
REMARK    2  A    between atoms: C_4  and  O_5
REMARK    3  A    between atoms: O_5  and  C_6
REMARK    4  A    between atoms: C_9  and  C_10
REMARK    5  A    between atoms: C_20  and  O_21
REMARK    6  A    between atoms: O_21  and  C_22
REMARK    7  A    between atoms: C_22  and  C_23
REMARK                            x       y       z     vdW  Elec       q    Type
REMARK                         _______ _______ _______ _____ _____    ______ ____
ROOT
ATOM      1  C   UNL     1      36.387  -1.050  15.605  0.00  0.00    +0.000 C 
ATOM      2  N   UNL     1      37.019  -0.507  16.974  0.00  0.00    +0.000 NA
ATOM      3  C   UNL     1      35.877   0.044  17.659  0.00  0.00    +0.000 C 
ATOM      4  C   UNL     1      34.984   0.888  16.784  0.00  0.00    +0.000 C 
ATOM      5  C   UNL     1      35.675   1.306  15.559  0.00  0.00    +0.000 A 
ATOM      6  C   UNL     1      36.420   0.383  14.879  0.00  0.00    +0.000 A 
ATOM      7  N   UNL     1      36.954   0.914  13.833  0.00  0.00    +0.000 NA
ATOM      8  C   UNL     1      36.607   2.205  13.748  0.00  0.00    +0.000 A 
ATOM      9  C   UNL     1      36.886   3.202  12.864  0.00  0.00    +0.000 A 
ATOM     10  C   UNL     1      36.375   4.498  13.019  0.00  0.00    +0.000 A 
ATOM     11  C   UNL     1      35.551   4.798  14.111  0.00  0.00    +0.000 A 
ATOM     12  C   UNL     1      35.301   3.757  14.970  0.00  0.00    +0.000 A 
ATOM     13  C   UNL     1      35.797   2.475  14.831  0.00  0.00    +0.000 A 
ENDROOT
BRANCH   1  17
ATOM     14  C   UNL     1      40.152  -2.629  14.022  0.00  0.00    +0.000 A 
ATOM     15  C   UNL     1      40.131  -1.875  15.169  0.00  0.00    +0.000 A 
ATOM     16  C   UNL     1      38.922  -1.361  15.687  0.00  0.00    +0.000 A 
ATOM     17  C   UNL     1      37.756  -1.622  15.034  0.00  0.00    +0.000 A 
ATOM     18  C   UNL     1      37.746  -2.366  13.894  0.00  0.00    +0.000 A 
ATOM     19  C   UNL     1      38.961  -2.875  13.384  0.00  0.00    +0.000 A 
BRANCH  14  20
ATOM     20  O   UNL     1      41.325  -3.148  13.486  0.00  0.00    +0.000 OA
BRANCH  20  21
ATOM     21  C   UNL     1      41.428  -3.301  12.061  0.00  0.00    +0.000 C 
BRANCH  21  23
ATOM     22  C   UNL     1      42.488  -1.177  11.586  0.00  0.00    +0.000 C 
ATOM     23  C   UNL     1      42.761  -2.682  11.691  0.00  0.00    +0.000 C 
ATOM     24  C   UNL     1      43.731  -2.836  12.870  0.00  0.00    +0.000 C 
ENDBRANCH  21  23
ENDBRANCH  20  21
ENDBRANCH  14  20
ENDBRANCH   1  17
BRANCH  11  25
ATOM     25  O   UNL     1      35.038   6.077  14.281  0.00  0.00    +0.000 OA
BRANCH  25  26
ATOM     26  C   UNL     1      34.403   6.666  13.176  0.00  0.00    +0.000 C 
BRANCH  26  27
ATOM     27  C   UNL     1      34.282   8.118  13.409  0.00  0.00    +0.000 A 
ATOM     28  C   UNL     1      33.975   8.706  14.619  0.00  0.00    +0.000 A 
ATOM     29  C   UNL     1      33.891  10.079  14.709  0.00  0.00    +0.000 A 
ATOM     30  C   UNL     1      34.105  10.869  13.616  0.00  0.00    +0.000 A 
ATOM     31  C   UNL     1      34.409  10.295  12.409  0.00  0.00    +0.000 A 
ATOM     32  C   UNL     1      34.497   8.947  12.300  0.00  0.00    +0.000 A 
ENDBRANCH  26  27
ENDBRANCH  25  26
ENDBRANCH  11  25
TORSDOF 7
ENDMDL
