MODEL 1
REMARK VINA RESULT:      -8.6      0.000      0.000
REMARK  Name = 
REMARK  7 active torsions:
REMARK  status: ('A' for Active; 'I' for Inactive)
REMARK    1  A    between atoms: C_2  and  C_3
REMARK    2  A    between atoms: C_8  and  N_9
REMARK    3  A    between atoms: N_9  and  C_10
REMARK    4  A    between atoms: C_11  and  S_12
REMARK    5  A    between atoms: S_12  and  C_13
REMARK    6  A    between atoms: N_22  and  C_23
REMARK    7  A    between atoms: C_23  and  C_24
REMARK                            x       y       z     vdW  Elec       q    Type
REMARK                         _______ _______ _______ _____ _____    ______ ____
ROOT
ATOM      1  C   UNL     1      36.448   4.144  14.752  0.00  0.00    +0.000 C 
ATOM      2  C   UNL     1      37.707   3.730  14.827  0.00  0.00    +0.000 C 
ATOM      3  C   UNL     1      37.775   2.291  15.017  0.00  0.00    +0.000 C 
ATOM      4  O   UNL     1      38.820   1.633  15.121  0.00  0.00    +0.000 OA
ATOM      5  N   UNL     1      36.441   1.801  15.059  0.00  0.00    +0.000 N 
ATOM      6  C   UNL     1      35.610   2.935  14.896  0.00  0.00    +0.000 C 
ATOM      7  O   UNL     1      34.367   2.986  14.868  0.00  0.00    +0.000 OA
ENDROOT
BRANCH   1   8
ATOM      8  N   UNL     1      35.968   5.473  14.569  0.00  0.00    +0.000 NA
BRANCH   8  14
ATOM      9  C   UNL     1      34.433   6.675  13.119  0.00  0.00    +0.000 A 
ATOM     10  C   UNL     1      34.054   7.076  11.834  0.00  0.00    +0.000 A 
ATOM     11  C   UNL     1      34.779   6.714  10.717  0.00  0.00    +0.000 A 
ATOM     12  C   UNL     1      35.910   5.930  10.878  0.00  0.00    +0.000 A 
ATOM     13  C   UNL     1      36.261   5.550  12.136  0.00  0.00    +0.000 A 
ATOM     14  C   UNL     1      35.561   5.895  13.273  0.00  0.00    +0.000 A 
BRANCH   9  16
ATOM     15  C   UNL     1      33.838   8.525  14.672  0.00  0.00    +0.000 C 
ATOM     16  C   UNL     1      33.667   7.056  14.318  0.00  0.00    +0.000 C 
ENDBRANCH   9  16
ENDBRANCH   8  14
ENDBRANCH   1   8
BRANCH   2  17
ATOM     17  S   UNL     1      39.097   4.846  14.704  0.00  0.00    +0.000 S 
BRANCH  17  18
ATOM     18  C   UNL     1      39.650   5.378  16.309  0.00  0.00    +0.000 A 
ATOM     19  C   UNL     1      40.804   6.100  16.508  0.00  0.00    +0.000 A 
ATOM     20  C   UNL     1      41.181   6.486  17.778  0.00  0.00    +0.000 A 
ATOM     21  C   UNL     1      40.418   6.163  18.881  0.00  0.00    +0.000 A 
ATOM     22  C   UNL     1      40.759   6.543  20.274  0.00  0.00    +0.000 C 
ATOM     23  C   UNL     1      39.263   5.441  18.674  0.00  0.00    +0.000 A 
ATOM     24  C   UNL     1      38.891   5.059  17.411  0.00  0.00    +0.000 A 
ENDBRANCH  17  18
ENDBRANCH   2  17
BRANCH   5  25
ATOM     25  C   UNL     1      36.015   0.433  15.231  0.00  0.00    +0.000 C 
BRANCH  25  26
ATOM     26  C   UNL     1      36.216  -0.069  16.591  0.00  0.00    +0.000 A 
ATOM     27  C   UNL     1      35.545   0.494  17.655  0.00  0.00    +0.000 A 
ATOM     28  C   UNL     1      35.734   0.018  18.952  0.00  0.00    +0.000 A 
ATOM     29  C   UNL     1      36.608  -1.037  19.185  0.00  0.00    +0.000 A 
ATOM     30  C   UNL     1      37.286  -1.612  18.133  0.00  0.00    +0.000 A 
ATOM     31  C   UNL     1      37.071  -1.112  16.867  0.00  0.00    +0.000 A 
ENDBRANCH  25  26
ENDBRANCH   5  25
TORSDOF 7
ENDMDL
MODEL 2
REMARK VINA RESULT:      -8.0      3.108      7.717
REMARK  Name = 
REMARK  7 active torsions:
REMARK  status: ('A' for Active; 'I' for Inactive)
REMARK    1  A    between atoms: C_2  and  C_3
REMARK    2  A    between atoms: C_8  and  N_9
REMARK    3  A    between atoms: N_9  and  C_10
REMARK    4  A    between atoms: C_11  and  S_12
REMARK    5  A    between atoms: S_12  and  C_13
REMARK    6  A    between atoms: N_22  and  C_23
REMARK    7  A    between atoms: C_23  and  C_24
REMARK                            x       y       z     vdW  Elec       q    Type
REMARK                         _______ _______ _______ _____ _____    ______ ____
ROOT
ATOM      1  C   UNL     1      36.419   0.505  15.248  0.00  0.00    +0.000 C 
ATOM      2  C   UNL     1      37.285   0.745  14.273  0.00  0.00    +0.000 C 
ATOM      3  C   UNL     1      37.571   2.167  14.164  0.00  0.00    +0.000 C 
ATOM      4  O   UNL     1      38.343   2.679  13.341  0.00  0.00    +0.000 OA
ATOM      5  N   UNL     1      36.808   2.834  15.161  0.00  0.00    +0.000 N 
ATOM      6  C   UNL     1      36.091   1.820  15.839  0.00  0.00    +0.000 C 
ATOM      7  O   UNL     1      35.295   1.937  16.789  0.00  0.00    +0.000 OA
ENDROOT
BRANCH   1   8
ATOM      8  N   UNL     1      35.891  -0.751  15.667  0.00  0.00    +0.000 NA
BRANCH   8  14
ATOM      9  C   UNL     1      36.699  -3.042  15.707  0.00  0.00    +0.000 A 
ATOM     10  C   UNL     1      37.579  -4.000  16.220  0.00  0.00    +0.000 A 
ATOM     11  C   UNL     1      38.522  -3.683  17.175  0.00  0.00    +0.000 A 
ATOM     12  C   UNL     1      38.594  -2.378  17.637  0.00  0.00    +0.000 A 
ATOM     13  C   UNL     1      37.728  -1.462  17.126  0.00  0.00    +0.000 A 
ATOM     14  C   UNL     1      36.775  -1.745  16.171  0.00  0.00    +0.000 A 
BRANCH   9  16
ATOM     15  C   UNL     1      34.474  -4.070  15.278  0.00  0.00    +0.000 C 
ATOM     16  C   UNL     1      35.688  -3.370  14.687  0.00  0.00    +0.000 C 
ENDBRANCH   9  16
ENDBRANCH   8  14
ENDBRANCH   1   8
BRANCH   2  17
ATOM     17  S   UNL     1      37.979  -0.551  13.257  0.00  0.00    +0.000 S 
BRANCH  17  18
ATOM     18  C   UNL     1      39.657  -0.916  13.721  0.00  0.00    +0.000 A 
ATOM     19  C   UNL     1      40.064  -2.150  14.173  0.00  0.00    +0.000 A 
ATOM     20  C   UNL     1      41.380  -2.372  14.518  0.00  0.00    +0.000 A 
ATOM     21  C   UNL     1      42.326  -1.372  14.421  0.00  0.00    +0.000 A 
ATOM     22  C   UNL     1      43.758  -1.538  14.773  0.00  0.00    +0.000 C 
ATOM     23  C   UNL     1      41.912  -0.139  13.966  0.00  0.00    +0.000 A 
ATOM     24  C   UNL     1      40.602   0.079  13.625  0.00  0.00    +0.000 A 
ENDBRANCH  17  18
ENDBRANCH   2  17
BRANCH   5  25
ATOM     25  C   UNL     1      36.769   4.250  15.432  0.00  0.00    +0.000 C 
BRANCH  25  26
ATOM     26  C   UNL     1      37.902   4.719  16.232  0.00  0.00    +0.000 A 
ATOM     27  C   UNL     1      38.953   5.386  15.641  0.00  0.00    +0.000 A 
ATOM     28  C   UNL     1      40.032   5.833  16.401  0.00  0.00    +0.000 A 
ATOM     29  C   UNL     1      40.059   5.608  17.772  0.00  0.00    +0.000 A 
ATOM     30  C   UNL     1      39.017   4.944  18.379  0.00  0.00    +0.000 A 
ATOM     31  C   UNL     1      37.968   4.518  17.593  0.00  0.00    +0.000 A 
ENDBRANCH  25  26
ENDBRANCH   5  25
TORSDOF 7
ENDMDL
MODEL 3
REMARK VINA RESULT:      -7.9      2.838      7.492
REMARK  Name = 
REMARK  7 active torsions:
REMARK  status: ('A' for Active; 'I' for Inactive)
REMARK    1  A    between atoms: C_2  and  C_3
REMARK    2  A    between atoms: C_8  and  N_9
REMARK    3  A    between atoms: N_9  and  C_10
REMARK    4  A    between atoms: C_11  and  S_12
REMARK    5  A    between atoms: S_12  and  C_13
REMARK    6  A    between atoms: N_22  and  C_23
REMARK    7  A    between atoms: C_23  and  C_24
REMARK                            x       y       z     vdW  Elec       q    Type
REMARK                         _______ _______ _______ _____ _____    ______ ____
ROOT
ATOM      1  C   UNL     1      38.024   1.842  13.969  0.00  0.00    +0.000 C 
ATOM      2  C   UNL     1      37.048   1.677  14.852  0.00  0.00    +0.000 C 
ATOM      3  C   UNL     1      36.767   2.916  15.560  0.00  0.00    +0.000 C 
ATOM      4  O   UNL     1      35.905   3.056  16.440  0.00  0.00    +0.000 OA
ATOM      5  N   UNL     1      37.652   3.907  15.056  0.00  0.00    +0.000 N 
ATOM      6  C   UNL     1      38.435   3.259  14.072  0.00  0.00    +0.000 C 
ATOM      7  O   UNL     1      39.342   3.735  13.365  0.00  0.00    +0.000 OA
ENDROOT
BRANCH   1   8
ATOM      8  N   UNL     1      38.585   0.874  13.086  0.00  0.00    +0.000 NA
BRANCH   8  14
ATOM      9  C   UNL     1      39.477  -1.351  13.481  0.00  0.00    +0.000 A 
ATOM     10  C   UNL     1      40.510  -2.169  13.950  0.00  0.00    +0.000 A 
ATOM     11  C   UNL     1      41.668  -1.642  14.484  0.00  0.00    +0.000 A 
ATOM     12  C   UNL     1      41.806  -0.265  14.556  0.00  0.00    +0.000 A 
ATOM     13  C   UNL     1      40.789   0.512  14.096  0.00  0.00    +0.000 A 
ATOM     14  C   UNL     1      39.620   0.020  13.556  0.00  0.00    +0.000 A 
BRANCH   9  16
ATOM     15  C   UNL     1      37.852  -3.235  13.535  0.00  0.00    +0.000 C 
ATOM     16  C   UNL     1      38.237  -1.903  12.909  0.00  0.00    +0.000 C 
ENDBRANCH   9  16
ENDBRANCH   8  14
ENDBRANCH   1   8
BRANCH   2  17
ATOM     17  S   UNL     1      36.222   0.112  15.096  0.00  0.00    +0.000 S 
BRANCH  17  18
ATOM     18  C   UNL     1      36.673  -0.628  16.650  0.00  0.00    +0.000 A 
ATOM     19  C   UNL     1      36.014  -0.368  17.830  0.00  0.00    +0.000 A 
ATOM     20  C   UNL     1      36.410  -0.974  19.003  0.00  0.00    +0.000 A 
ATOM     21  C   UNL     1      37.472  -1.853  19.034  0.00  0.00    +0.000 A 
ATOM     22  C   UNL     1      37.954  -2.541  20.257  0.00  0.00    +0.000 C 
ATOM     23  C   UNL     1      38.127  -2.110  17.849  0.00  0.00    +0.000 A 
ATOM     24  C   UNL     1      37.732  -1.507  16.683  0.00  0.00    +0.000 A 
ENDBRANCH  17  18
ENDBRANCH   2  17
BRANCH   5  25
ATOM     25  C   UNL     1      37.739   5.290  15.459  0.00  0.00    +0.000 C 
BRANCH  25  26
ATOM     26  C   UNL     1      38.746   5.529  16.495  0.00  0.00    +0.000 A 
ATOM     27  C   UNL     1      40.000   5.992  16.163  0.00  0.00    +0.000 A 
ATOM     28  C   UNL     1      40.961   6.220  17.148  0.00  0.00    +0.000 A 
ATOM     29  C   UNL     1      40.659   5.980  18.483  0.00  0.00    +0.000 A 
ATOM     30  C   UNL     1      39.410   5.517  18.832  0.00  0.00    +0.000 A 
ATOM     31  C   UNL     1      38.489   5.305  17.829  0.00  0.00    +0.000 A 
ENDBRANCH  25  26
ENDBRANCH   5  25
TORSDOF 7
ENDMDL
MODEL 4
REMARK VINA RESULT:      -7.9      2.036      6.212
REMARK  Name = 
REMARK  7 active torsions:
REMARK  status: ('A' for Active; 'I' for Inactive)
REMARK    1  A    between atoms: C_2  and  C_3
REMARK    2  A    between atoms: C_8  and  N_9
REMARK    3  A    between atoms: N_9  and  C_10
REMARK    4  A    between atoms: C_11  and  S_12
REMARK    5  A    between atoms: S_12  and  C_13
REMARK    6  A    between atoms: N_22  and  C_23
REMARK    7  A    between atoms: C_23  and  C_24
REMARK                            x       y       z     vdW  Elec       q    Type
REMARK                         _______ _______ _______ _____ _____    ______ ____
ROOT
ATOM      1  C   UNL     1      36.745   4.218  14.874  0.00  0.00    +0.000 C 
ATOM      2  C   UNL     1      36.532   3.514  15.978  0.00  0.00    +0.000 C 
ATOM      3  C   UNL     1      37.543   3.798  16.984  0.00  0.00    +0.000 C 
ATOM      4  O   UNL     1      37.593   3.285  18.111  0.00  0.00    +0.000 OA
ATOM      5  N   UNL     1      38.438   4.754  16.432  0.00  0.00    +0.000 N 
ATOM      6  C   UNL     1      37.958   5.023  15.129  0.00  0.00    +0.000 C 
ATOM      7  O   UNL     1      38.426   5.799  14.275  0.00  0.00    +0.000 OA
ENDROOT
BRANCH   1   8
ATOM      8  N   UNL     1      35.981   4.221  13.671  0.00  0.00    +0.000 NA
BRANCH   8  14
ATOM      9  C   UNL     1      35.465   5.952  12.046  0.00  0.00    +0.000 A 
ATOM     10  C   UNL     1      34.760   7.110  11.702  0.00  0.00    +0.000 A 
ATOM     11  C   UNL     1      33.879   7.711  12.578  0.00  0.00    +0.000 A 
ATOM     12  C   UNL     1      33.693   7.149  13.831  0.00  0.00    +0.000 A 
ATOM     13  C   UNL     1      34.390   6.024  14.146  0.00  0.00    +0.000 A 
ATOM     14  C   UNL     1      35.276   5.397  13.295  0.00  0.00    +0.000 A 
BRANCH   9  16
ATOM     15  C   UNL     1      36.165   5.701   9.672  0.00  0.00    +0.000 C 
ATOM     16  C   UNL     1      36.408   5.302  11.119  0.00  0.00    +0.000 C 
ENDBRANCH   9  16
ENDBRANCH   8  14
ENDBRANCH   1   8
BRANCH   2  17
ATOM     17  S   UNL     1      35.162   2.380  16.150  0.00  0.00    +0.000 S 
BRANCH  17  18
ATOM     18  C   UNL     1      35.630   0.721  15.710  0.00  0.00    +0.000 A 
ATOM     19  C   UNL     1      35.230  -0.389  16.419  0.00  0.00    +0.000 A 
ATOM     20  C   UNL     1      35.626  -1.651  16.029  0.00  0.00    +0.000 A 
ATOM     21  C   UNL     1      36.428  -1.841  14.923  0.00  0.00    +0.000 A 
ATOM     22  C   UNL     1      36.891  -3.167  14.444  0.00  0.00    +0.000 C 
ATOM     23  C   UNL     1      36.823  -0.726  14.217  0.00  0.00    +0.000 A 
ATOM     24  C   UNL     1      36.429   0.528  14.607  0.00  0.00    +0.000 A 
ENDBRANCH  17  18
ENDBRANCH   2  17
BRANCH   5  25
ATOM     25  C   UNL     1      39.598   5.335  17.064  0.00  0.00    +0.000 C 
BRANCH  25  26
ATOM     26  C   UNL     1      39.264   6.277  18.134  0.00  0.00    +0.000 A 
ATOM     27  C   UNL     1      38.219   7.164  17.990  0.00  0.00    +0.000 A 
ATOM     28  C   UNL     1      37.899   8.062  19.007  0.00  0.00    +0.000 A 
ATOM     29  C   UNL     1      38.636   8.071  20.185  0.00  0.00    +0.000 A 
ATOM     30  C   UNL     1      39.683   7.190  20.346  0.00  0.00    +0.000 A 
ATOM     31  C   UNL     1      39.967   6.319  19.317  0.00  0.00    +0.000 A 
ENDBRANCH  25  26
ENDBRANCH   5  25
TORSDOF 7
ENDMDL
MODEL 5
REMARK VINA RESULT:      -7.7      3.068      7.544
REMARK  Name = 
REMARK  7 active torsions:
REMARK  status: ('A' for Active; 'I' for Inactive)
REMARK    1  A    between atoms: C_2  and  C_3
REMARK    2  A    between atoms: C_8  and  N_9
REMARK    3  A    between atoms: N_9  and  C_10
REMARK    4  A    between atoms: C_11  and  S_12
REMARK    5  A    between atoms: S_12  and  C_13
REMARK    6  A    between atoms: N_22  and  C_23
REMARK    7  A    between atoms: C_23  and  C_24
REMARK                            x       y       z     vdW  Elec       q    Type
REMARK                         _______ _______ _______ _____ _____    ______ ____
ROOT
ATOM      1  C   UNL     1      37.310   0.919  14.394  0.00  0.00    +0.000 C 
ATOM      2  C   UNL     1      38.625   0.773  14.288  0.00  0.00    +0.000 C 
ATOM      3  C   UNL     1      39.301   2.060  14.337  0.00  0.00    +0.000 C 
ATOM      4  O   UNL     1      40.526   2.226  14.261  0.00  0.00    +0.000 OA
ATOM      5  N   UNL     1      38.303   3.061  14.485  0.00  0.00    +0.000 N 
ATOM      6  C   UNL     1      37.068   2.372  14.522  0.00  0.00    +0.000 C 
ATOM      7  O   UNL     1      35.922   2.842  14.641  0.00  0.00    +0.000 OA
ENDROOT
BRANCH   1   8
ATOM      8  N   UNL     1      36.309  -0.095  14.391  0.00  0.00    +0.000 NA
BRANCH   8  14
ATOM      9  C   UNL     1      35.532  -1.914  15.801  0.00  0.00    +0.000 A 
ATOM     10  C   UNL     1      35.025  -2.356  17.027  0.00  0.00    +0.000 A 
ATOM     11  C   UNL     1      34.782  -1.484  18.069  0.00  0.00    +0.000 A 
ATOM     12  C   UNL     1      35.048  -0.136  17.889  0.00  0.00    +0.000 A 
ATOM     13  C   UNL     1      35.539   0.273  16.689  0.00  0.00    +0.000 A 
ATOM     14  C   UNL     1      35.794  -0.571  15.628  0.00  0.00    +0.000 A 
BRANCH   9  16
ATOM     15  C   UNL     1      35.005  -4.131  14.800  0.00  0.00    +0.000 C 
ATOM     16  C   UNL     1      35.795  -2.836  14.682  0.00  0.00    +0.000 C 
ENDBRANCH   9  16
ENDBRANCH   8  14
ENDBRANCH   1   8
BRANCH   2  17
ATOM     17  S   UNL     1      39.407  -0.823  14.111  0.00  0.00    +0.000 S 
BRANCH  17  18
ATOM     18  C   UNL     1      39.149  -1.839  15.549  0.00  0.00    +0.000 A 
ATOM     19  C   UNL     1      38.841  -1.328  16.789  0.00  0.00    +0.000 A 
ATOM     20  C   UNL     1      38.652  -2.168  17.866  0.00  0.00    +0.000 A 
ATOM     21  C   UNL     1      38.763  -3.536  17.738  0.00  0.00    +0.000 A 
ATOM     22  C   UNL     1      38.573  -4.499  18.850  0.00  0.00    +0.000 C 
ATOM     23  C   UNL     1      39.070  -4.041  16.493  0.00  0.00    +0.000 A 
ATOM     24  C   UNL     1      39.258  -3.205  15.423  0.00  0.00    +0.000 A 
ENDBRANCH  17  18
ENDBRANCH   2  17
BRANCH   5  25
ATOM     25  C   UNL     1      38.501   4.488  14.579  0.00  0.00    +0.000 C 
BRANCH  25  26
ATOM     26  C   UNL     1      38.988   4.919  15.890  0.00  0.00    +0.000 A 
ATOM     27  C   UNL     1      40.126   5.688  16.000  0.00  0.00    +0.000 A 
ATOM     28  C   UNL     1      40.593   6.101  17.247  0.00  0.00    +0.000 A 
ATOM     29  C   UNL     1      39.909   5.737  18.400  0.00  0.00    +0.000 A 
ATOM     30  C   UNL     1      38.769   4.970  18.309  0.00  0.00    +0.000 A 
ATOM     31  C   UNL     1      38.341   4.583  17.058  0.00  0.00    +0.000 A 
ENDBRANCH  25  26
ENDBRANCH   5  25
TORSDOF 7
ENDMDL
MODEL 6
REMARK VINA RESULT:      -7.6      1.900      7.318
REMARK  Name = 
REMARK  7 active torsions:
REMARK  status: ('A' for Active; 'I' for Inactive)
REMARK    1  A    between atoms: C_2  and  C_3
REMARK    2  A    between atoms: C_8  and  N_9
REMARK    3  A    between atoms: N_9  and  C_10
REMARK    4  A    between atoms: C_11  and  S_12
REMARK    5  A    between atoms: S_12  and  C_13
REMARK    6  A    between atoms: N_22  and  C_23
REMARK    7  A    between atoms: C_23  and  C_24
REMARK                            x       y       z     vdW  Elec       q    Type
REMARK                         _______ _______ _______ _____ _____    ______ ____
ROOT
ATOM      1  C   UNL     1      37.109   4.038  14.319  0.00  0.00    +0.000 C 
ATOM      2  C   UNL     1      36.708   5.297  14.431  0.00  0.00    +0.000 C 
ATOM      3  C   UNL     1      37.792   6.155  14.882  0.00  0.00    +0.000 C 
ATOM      4  O   UNL     1      37.704   7.376  15.073  0.00  0.00    +0.000 OA
ATOM      5  N   UNL     1      38.941   5.336  15.054  0.00  0.00    +0.000 N 
ATOM      6  C   UNL     1      38.534   4.025  14.711  0.00  0.00    +0.000 C 
ATOM      7  O   UNL     1      39.209   2.979  14.712  0.00  0.00    +0.000 OA
ENDROOT
BRANCH   1   8
ATOM      8  N   UNL     1      36.348   2.905  13.909  0.00  0.00    +0.000 NA
BRANCH   8  14
ATOM      9  C   UNL     1      36.313   0.616  14.722  0.00  0.00    +0.000 A 
ATOM     10  C   UNL     1      35.916  -0.313  15.689  0.00  0.00    +0.000 A 
ATOM     11  C   UNL     1      35.178   0.059  16.793  0.00  0.00    +0.000 A 
ATOM     12  C   UNL     1      34.822   1.390  16.944  0.00  0.00    +0.000 A 
ATOM     13  C   UNL     1      35.218   2.277  15.992  0.00  0.00    +0.000 A 
ATOM     14  C   UNL     1      35.957   1.940  14.877  0.00  0.00    +0.000 A 
BRANCH   9  16
ATOM     15  C   UNL     1      38.432  -0.408  13.912  0.00  0.00    +0.000 C 
ATOM     16  C   UNL     1      37.102   0.230  13.539  0.00  0.00    +0.000 C 
ENDBRANCH   9  16
ENDBRANCH   8  14
ENDBRANCH   1   8
BRANCH   2  17
ATOM     17  S   UNL     1      35.038   5.814  14.061  0.00  0.00    +0.000 S 
BRANCH  17  18
ATOM     18  C   UNL     1      34.875   6.329  12.366  0.00  0.00    +0.000 A 
ATOM     19  C   UNL     1      33.838   7.111  11.911  0.00  0.00    +0.000 A 
ATOM     20  C   UNL     1      33.766   7.479  10.584  0.00  0.00    +0.000 A 
ATOM     21  C   UNL     1      34.723   7.078   9.676  0.00  0.00    +0.000 A 
ATOM     22  C   UNL     1      34.712   7.434   8.236  0.00  0.00    +0.000 C 
ATOM     23  C   UNL     1      35.759   6.295  10.138  0.00  0.00    +0.000 A 
ATOM     24  C   UNL     1      35.828   5.931  11.458  0.00  0.00    +0.000 A 
ENDBRANCH  17  18
ENDBRANCH   2  17
BRANCH   5  25
ATOM     25  C   UNL     1      40.253   5.749  15.489  0.00  0.00    +0.000 C 
BRANCH  25  26
ATOM     26  C   UNL     1      40.353   5.930  16.939  0.00  0.00    +0.000 A 
ATOM     27  C   UNL     1      39.284   5.642  17.759  0.00  0.00    +0.000 A 
ATOM     28  C   UNL     1      39.375   5.813  19.139  0.00  0.00    +0.000 A 
ATOM     29  C   UNL     1      40.555   6.281  19.705  0.00  0.00    +0.000 A 
ATOM     30  C   UNL     1      41.633   6.573  18.901  0.00  0.00    +0.000 A 
ATOM     31  C   UNL     1      41.502   6.390  17.541  0.00  0.00    +0.000 A 
ENDBRANCH  25  26
ENDBRANCH   5  25
TORSDOF 7
ENDMDL
MODEL 7
REMARK VINA RESULT:      -7.6      2.369      5.380
REMARK  Name = 
REMARK  7 active torsions:
REMARK  status: ('A' for Active; 'I' for Inactive)
REMARK    1  A    between atoms: C_2  and  C_3
REMARK    2  A    between atoms: C_8  and  N_9
REMARK    3  A    between atoms: N_9  and  C_10
REMARK    4  A    between atoms: C_11  and  S_12
REMARK    5  A    between atoms: S_12  and  C_13
REMARK    6  A    between atoms: N_22  and  C_23
REMARK    7  A    between atoms: C_23  and  C_24
REMARK                            x       y       z     vdW  Elec       q    Type
REMARK                         _______ _______ _______ _____ _____    ______ ____
ROOT
ATOM      1  C   UNL     1      38.894   5.117  14.760  0.00  0.00    +0.000 C 
ATOM      2  C   UNL     1      38.030   5.963  14.215  0.00  0.00    +0.000 C 
ATOM      3  C   UNL     1      36.868   5.262  13.693  0.00  0.00    +0.000 C 
ATOM      4  O   UNL     1      35.903   5.799  13.131  0.00  0.00    +0.000 OA
ATOM      5  N   UNL     1      37.054   3.876  13.949  0.00  0.00    +0.000 N 
ATOM      6  C   UNL     1      38.302   3.771  14.608  0.00  0.00    +0.000 C 
ATOM      7  O   UNL     1      38.875   2.747  15.024  0.00  0.00    +0.000 OA
ENDROOT
BRANCH   1   8
ATOM      8  N   UNL     1      40.145   5.412  15.376  0.00  0.00    +0.000 NA
BRANCH   8  14
ATOM      9  C   UNL     1      41.295   6.288  17.329  0.00  0.00    +0.000 A 
ATOM     10  C   UNL     1      41.313   6.539  18.704  0.00  0.00    +0.000 A 
ATOM     11  C   UNL     1      40.255   6.195  19.519  0.00  0.00    +0.000 A 
ATOM     12  C   UNL     1      39.147   5.582  18.955  0.00  0.00    +0.000 A 
ATOM     13  C   UNL     1      39.150   5.347  17.616  0.00  0.00    +0.000 A 
ATOM     14  C   UNL     1      40.189   5.679  16.772  0.00  0.00    +0.000 A 
BRANCH   9  16
ATOM     15  C   UNL     1      43.675   7.008  17.230  0.00  0.00    +0.000 C 
ATOM     16  C   UNL     1      42.420   6.653  16.449  0.00  0.00    +0.000 C 
ENDBRANCH   9  16
ENDBRANCH   8  14
ENDBRANCH   1   8
BRANCH   2  17
ATOM     17  S   UNL     1      38.312   7.726  14.158  0.00  0.00    +0.000 S 
BRANCH  17  18
ATOM     18  C   UNL     1      38.390   8.427  15.792  0.00  0.00    +0.000 A 
ATOM     19  C   UNL     1      37.398   8.266  16.731  0.00  0.00    +0.000 A 
ATOM     20  C   UNL     1      37.516   8.834  17.982  0.00  0.00    +0.000 A 
ATOM     21  C   UNL     1      38.625   9.576  18.330  0.00  0.00    +0.000 A 
ATOM     22  C   UNL     1      38.821  10.215  19.655  0.00  0.00    +0.000 C 
ATOM     23  C   UNL     1      39.616   9.733  17.386  0.00  0.00    +0.000 A 
ATOM     24  C   UNL     1      39.496   9.168  16.143  0.00  0.00    +0.000 A 
ENDBRANCH  17  18
ENDBRANCH   2  17
BRANCH   5  25
ATOM     25  C   UNL     1      36.161   2.795  13.611  0.00  0.00    +0.000 C 
BRANCH  25  26
ATOM     26  C   UNL     1      35.851   1.923  14.745  0.00  0.00    +0.000 A 
ATOM     27  C   UNL     1      35.163   2.407  15.837  0.00  0.00    +0.000 A 
ATOM     28  C   UNL     1      34.866   1.579  16.918  0.00  0.00    +0.000 A 
ATOM     29  C   UNL     1      35.265   0.248  16.906  0.00  0.00    +0.000 A 
ATOM     30  C   UNL     1      35.952  -0.252  15.822  0.00  0.00    +0.000 A 
ATOM     31  C   UNL     1      36.225   0.599  14.773  0.00  0.00    +0.000 A 
ENDBRANCH  25  26
ENDBRANCH   5  25
TORSDOF 7
ENDMDL
MODEL 8
REMARK VINA RESULT:      -7.6      5.364      7.485
REMARK  Name = 
REMARK  7 active torsions:
REMARK  status: ('A' for Active; 'I' for Inactive)
REMARK    1  A    between atoms: C_2  and  C_3
REMARK    2  A    between atoms: C_8  and  N_9
REMARK    3  A    between atoms: N_9  and  C_10
REMARK    4  A    between atoms: C_11  and  S_12
REMARK    5  A    between atoms: S_12  and  C_13
REMARK    6  A    between atoms: N_22  and  C_23
REMARK    7  A    between atoms: C_23  and  C_24
REMARK                            x       y       z     vdW  Elec       q    Type
REMARK                         _______ _______ _______ _____ _____    ______ ____
ROOT
ATOM      1  C   UNL     1      38.991  -0.676  15.351  0.00  0.00    +0.000 C 
ATOM      2  C   UNL     1      39.746  -1.767  15.380  0.00  0.00    +0.000 C 
ATOM      3  C   UNL     1      39.096  -2.834  16.124  0.00  0.00    +0.000 C 
ATOM      4  O   UNL     1      39.570  -3.963  16.313  0.00  0.00    +0.000 OA
ATOM      5  N   UNL     1      37.844  -2.338  16.578  0.00  0.00    +0.000 N 
ATOM      6  C   UNL     1      37.765  -1.005  16.108  0.00  0.00    +0.000 C 
ATOM      7  O   UNL     1      36.845  -0.181  16.265  0.00  0.00    +0.000 OA
ENDROOT
BRANCH   1   8
ATOM      8  N   UNL     1      39.274   0.573  14.725  0.00  0.00    +0.000 NA
BRANCH   8  14
ATOM      9  C   UNL     1      39.901   1.387  12.524  0.00  0.00    +0.000 A 
ATOM     10  C   UNL     1      39.605   1.535  11.165  0.00  0.00    +0.000 A 
ATOM     11  C   UNL     1      38.435   1.049  10.619  0.00  0.00    +0.000 A 
ATOM     12  C   UNL     1      37.532   0.398  11.444  0.00  0.00    +0.000 A 
ATOM     13  C   UNL     1      37.838   0.265  12.762  0.00  0.00    +0.000 A 
ATOM     14  C   UNL     1      38.998   0.737  13.340  0.00  0.00    +0.000 A 
BRANCH   9  16
ATOM     15  C   UNL     1      41.425   3.344  12.721  0.00  0.00    +0.000 C 
ATOM     16  C   UNL     1      41.148   1.902  13.117  0.00  0.00    +0.000 C 
ENDBRANCH   9  16
ENDBRANCH   8  14
ENDBRANCH   1   8
BRANCH   2  17
ATOM     17  S   UNL     1      41.346  -1.854  14.590  0.00  0.00    +0.000 S 
BRANCH  17  18
ATOM     18  C   UNL     1      41.194  -1.956  12.820  0.00  0.00    +0.000 A 
ATOM     19  C   UNL     1      40.126  -2.549  12.187  0.00  0.00    +0.000 A 
ATOM     20  C   UNL     1      40.065  -2.596  10.810  0.00  0.00    +0.000 A 
ATOM     21  C   UNL     1      41.064  -2.054  10.028  0.00  0.00    +0.000 A 
ATOM     22  C   UNL     1      41.065  -2.067   8.545  0.00  0.00    +0.000 C 
ATOM     23  C   UNL     1      42.129  -1.461  10.669  0.00  0.00    +0.000 A 
ATOM     24  C   UNL     1      42.188  -1.415  12.038  0.00  0.00    +0.000 A 
ENDBRANCH  17  18
ENDBRANCH   2  17
BRANCH   5  25
ATOM     25  C   UNL     1      36.854  -3.040  17.357  0.00  0.00    +0.000 C 
BRANCH  25  26
ATOM     26  C   UNL     1      35.890  -3.779  16.539  0.00  0.00    +0.000 A 
ATOM     27  C   UNL     1      34.772  -3.154  16.033  0.00  0.00    +0.000 A 
ATOM     28  C   UNL     1      33.853  -3.855  15.253  0.00  0.00    +0.000 A 
ATOM     29  C   UNL     1      34.058  -5.201  14.977  0.00  0.00    +0.000 A 
ATOM     30  C   UNL     1      35.171  -5.842  15.475  0.00  0.00    +0.000 A 
ATOM     31  C   UNL     1      36.055  -5.113  16.241  0.00  0.00    +0.000 A 
ENDBRANCH  25  26
ENDBRANCH   5  25
TORSDOF 7
ENDMDL
MODEL 9
REMARK VINA RESULT:      -7.6      2.057      6.147
REMARK  Name = 
REMARK  7 active torsions:
REMARK  status: ('A' for Active; 'I' for Inactive)
REMARK    1  A    between atoms: C_2  and  C_3
REMARK    2  A    between atoms: C_8  and  N_9
REMARK    3  A    between atoms: N_9  and  C_10
REMARK    4  A    between atoms: C_11  and  S_12
REMARK    5  A    between atoms: S_12  and  C_13
REMARK    6  A    between atoms: N_22  and  C_23
REMARK    7  A    between atoms: C_23  and  C_24
REMARK                            x       y       z     vdW  Elec       q    Type
REMARK                         _______ _______ _______ _____ _____    ______ ____
ROOT
ATOM      1  C   UNL     1      37.840   6.366  15.351  0.00  0.00    +0.000 C 
ATOM      2  C   UNL     1      37.846   5.081  15.679  0.00  0.00    +0.000 C 
ATOM      3  C   UNL     1      38.243   4.895  17.066  0.00  0.00    +0.000 C 
ATOM      4  O   UNL     1      38.337   3.803  17.642  0.00  0.00    +0.000 OA
ATOM      5  N   UNL     1      38.496   6.182  17.614  0.00  0.00    +0.000 N 
ATOM      6  C   UNL     1      38.251   7.101  16.566  0.00  0.00    +0.000 C 
ATOM      7  O   UNL     1      38.345   8.342  16.586  0.00  0.00    +0.000 OA
ENDROOT
BRANCH   1   8
ATOM      8  N   UNL     1      37.509   6.951  14.095  0.00  0.00    +0.000 NA
BRANCH   8  14
ATOM      9  C   UNL     1      35.817   6.622  12.382  0.00  0.00    +0.000 A 
ATOM     10  C   UNL     1      34.474   6.656  11.994  0.00  0.00    +0.000 A 
ATOM     11  C   UNL     1      33.475   7.033  12.867  0.00  0.00    +0.000 A 
ATOM     12  C   UNL     1      33.816   7.388  14.162  0.00  0.00    +0.000 A 
ATOM     13  C   UNL     1      35.128   7.349  14.520  0.00  0.00    +0.000 A 
ATOM     14  C   UNL     1      36.151   6.977  13.673  0.00  0.00    +0.000 A 
BRANCH   9  16
ATOM     15  C   UNL     1      36.582   4.918  10.738  0.00  0.00    +0.000 C 
ATOM     16  C   UNL     1      36.893   6.221  11.458  0.00  0.00    +0.000 C 
ENDBRANCH   9  16
ENDBRANCH   8  14
ENDBRANCH   1   8
BRANCH   2  17
ATOM     17  S   UNL     1      37.413   3.788  14.525  0.00  0.00    +0.000 S 
BRANCH  17  18
ATOM     18  C   UNL     1      36.535   2.464  15.326  0.00  0.00    +0.000 A 
ATOM     19  C   UNL     1      35.406   2.661  16.088  0.00  0.00    +0.000 A 
ATOM     20  C   UNL     1      34.767   1.594  16.685  0.00  0.00    +0.000 A 
ATOM     21  C   UNL     1      35.236   0.305  16.539  0.00  0.00    +0.000 A 
ATOM     22  C   UNL     1      34.602  -0.889  17.150  0.00  0.00    +0.000 C 
ATOM     23  C   UNL     1      36.366   0.116  15.774  0.00  0.00    +0.000 A 
ATOM     24  C   UNL     1      36.999   1.178  15.182  0.00  0.00    +0.000 A 
ENDBRANCH  17  18
ENDBRANCH   2  17
BRANCH   5  25
ATOM     25  C   UNL     1      38.916   6.495  18.958  0.00  0.00    +0.000 C 
BRANCH  25  26
ATOM     26  C   UNL     1      40.371   6.510  19.122  0.00  0.00    +0.000 A 
ATOM     27  C   UNL     1      41.201   6.627  18.029  0.00  0.00    +0.000 A 
ATOM     28  C   UNL     1      42.586   6.641  18.182  0.00  0.00    +0.000 A 
ATOM     29  C   UNL     1      43.148   6.536  19.449  0.00  0.00    +0.000 A 
ATOM     30  C   UNL     1      42.333   6.420  20.552  0.00  0.00    +0.000 A 
ATOM     31  C   UNL     1      40.968   6.410  20.358  0.00  0.00    +0.000 A 
ENDBRANCH  25  26
ENDBRANCH   5  25
TORSDOF 7
ENDMDL
MODEL 10
REMARK VINA RESULT:      -7.4      3.084      6.632
REMARK  Name = 
REMARK  7 active torsions:
REMARK  status: ('A' for Active; 'I' for Inactive)
REMARK    1  A    between atoms: C_2  and  C_3
REMARK    2  A    between atoms: C_8  and  N_9
REMARK    3  A    between atoms: N_9  and  C_10
REMARK    4  A    between atoms: C_11  and  S_12
REMARK    5  A    between atoms: S_12  and  C_13
REMARK    6  A    between atoms: N_22  and  C_23
REMARK    7  A    between atoms: C_23  and  C_24
REMARK                            x       y       z     vdW  Elec       q    Type
REMARK                         _______ _______ _______ _____ _____    ______ ____
ROOT
ATOM      1  C   UNL     1      39.095   5.182  16.585  0.00  0.00    +0.000 C 
ATOM      2  C   UNL     1      39.724   5.704  15.540  0.00  0.00    +0.000 C 
ATOM      3  C   UNL     1      39.021   5.405  14.303  0.00  0.00    +0.000 C 
ATOM      4  O   UNL     1      39.378   5.766  13.173  0.00  0.00    +0.000 OA
ATOM      5  N   UNL     1      37.872   4.638  14.638  0.00  0.00    +0.000 N 
ATOM      6  C   UNL     1      37.905   4.492  16.045  0.00  0.00    +0.000 C 
ATOM      7  O   UNL     1      37.098   3.893  16.781  0.00  0.00    +0.000 OA
ENDROOT
BRANCH   1   8
ATOM      8  N   UNL     1      39.465   5.253  17.960  0.00  0.00    +0.000 NA
BRANCH   8  14
ATOM      9  C   UNL     1      39.847   6.787  19.805  0.00  0.00    +0.000 A 
ATOM     10  C   UNL     1      39.451   7.908  20.541  0.00  0.00    +0.000 A 
ATOM     11  C   UNL     1      38.319   8.628  20.217  0.00  0.00    +0.000 A 
ATOM     12  C   UNL     1      37.557   8.223  19.132  0.00  0.00    +0.000 A 
ATOM     13  C   UNL     1      37.960   7.130  18.430  0.00  0.00    +0.000 A 
ATOM     14  C   UNL     1      39.085   6.390  18.725  0.00  0.00    +0.000 A 
BRANCH   9  16
ATOM     15  C   UNL     1      42.203   6.898  20.599  0.00  0.00    +0.000 C 
ATOM     16  C   UNL     1      41.054   6.012  20.142  0.00  0.00    +0.000 C 
ENDBRANCH   9  16
ENDBRANCH   8  14
ENDBRANCH   1   8
BRANCH   2  17
ATOM     17  S   UNL     1      41.235   6.643  15.694  0.00  0.00    +0.000 S 
BRANCH  17  18
ATOM     18  C   UNL     1      40.952   8.209  16.491  0.00  0.00    +0.000 A 
ATOM     19  C   UNL     1      41.767   8.711  17.479  0.00  0.00    +0.000 A 
ATOM     20  C   UNL     1      41.496   9.932  18.060  0.00  0.00    +0.000 A 
ATOM     21  C   UNL     1      40.408  10.685  17.671  0.00  0.00    +0.000 A 
ATOM     22  C   UNL     1      40.055  12.005  18.249  0.00  0.00    +0.000 C 
ATOM     23  C   UNL     1      39.597  10.177  16.680  0.00  0.00    +0.000 A 
ATOM     24  C   UNL     1      39.868   8.962  16.105  0.00  0.00    +0.000 A 
ENDBRANCH  17  18
ENDBRANCH   2  17
BRANCH   5  25
ATOM     25  C   UNL     1      36.875   4.113  13.737  0.00  0.00    +0.000 C 
BRANCH  25  26
ATOM     26  C   UNL     1      35.906   5.119  13.296  0.00  0.00    +0.000 A 
ATOM     27  C   UNL     1      34.922   5.569  14.149  0.00  0.00    +0.000 A 
ATOM     28  C   UNL     1      33.998   6.526  13.732  0.00  0.00    +0.000 A 
ATOM     29  C   UNL     1      34.063   7.040  12.442  0.00  0.00    +0.000 A 
ATOM     30  C   UNL     1      35.041   6.602  11.577  0.00  0.00    +0.000 A 
ATOM     31  C   UNL     1      35.934   5.655  12.028  0.00  0.00    +0.000 A 
ENDBRANCH  25  26
ENDBRANCH   5  25
TORSDOF 7
ENDMDL
