MODEL 1
REMARK VINA RESULT:      -7.1      0.000      0.000
REMARK  Name = 
REMARK  3 active torsions:
REMARK  status: ('A' for Active; 'I' for Inactive)
REMARK    1  A    between atoms: C_2  and  N_3
REMARK    2  A    between atoms: C_8  and  C_9
REMARK    3  A    between atoms: C_9  and  C_11
REMARK                            x       y       z     vdW  Elec       q    Type
REMARK                         _______ _______ _______ _____ _____    ______ ____
ROOT
ATOM      1  C   UNL     1      15.802  11.975  35.322  0.00  0.00    +0.000 C 
ATOM      2  C   UNL     1      14.273  11.938  35.756  0.00  0.00    +0.000 C 
ENDROOT
BRANCH   1   3
ATOM      3  C   UNL     1      15.773  11.488  33.867  0.00  0.00    +0.000 A 
ATOM      4  C   UNL     1      16.220  10.494  33.124  0.00  0.00    +0.000 A 
ATOM      5  N   UNL     1      15.767  10.610  31.836  0.00  0.00    +0.000 NA
ATOM      6  C   UNL     1      15.027  11.706  31.771  0.00  0.00    +0.000 A 
ATOM      7  C   UNL     1      14.419  12.300  30.659  0.00  0.00    +0.000 A 
ATOM      8  C   UNL     1      13.776  13.506  30.882  0.00  0.00    +0.000 A 
ATOM      9  C   UNL     1      13.709  14.126  32.084  0.00  0.00    +0.000 A 
ATOM     10  C   UNL     1      14.352  13.495  33.185  0.00  0.00    +0.000 A 
ATOM     11  C   UNL     1      14.991  12.295  32.993  0.00  0.00    +0.000 A 
ENDBRANCH   1   3
BRANCH   1  17
ATOM     12  N   UNL     1      19.791  10.924  37.816  0.00  0.00    +0.000 NA
ATOM     13  C   UNL     1      18.450  10.902  37.387  0.00  0.00    +0.000 C 
ATOM     14  N   UNL     1      17.390  11.011  38.036  0.00  0.00    +0.000 NA
ATOM     15  C   UNL     1      16.177  10.955  37.417  0.00  0.00    +0.000 C 
ATOM     16  O   UNL     1      15.095  11.280  38.058  0.00  0.00    +0.000 OA
ATOM     17  C   UNL     1      16.157  10.498  36.002  0.00  0.00    +0.000 C 
ATOM     18  S   UNL     1      18.026  10.639  35.680  0.00  0.00    +0.000 S 
BRANCH  12  20
ATOM     19  C   UNL     1      20.263  13.164  38.468  0.00  0.00    +0.000 C 
ATOM     20  C   UNL     1      20.207  11.719  38.970  0.00  0.00    +0.000 C 
ENDBRANCH  12  20
ENDBRANCH   1  17
TORSDOF 3
ENDMDL
MODEL 2
REMARK VINA RESULT:      -6.7     29.155     31.119
REMARK  Name = 
REMARK  3 active torsions:
REMARK  status: ('A' for Active; 'I' for Inactive)
REMARK    1  A    between atoms: C_2  and  N_3
REMARK    2  A    between atoms: C_8  and  C_9
REMARK    3  A    between atoms: C_9  and  C_11
REMARK                            x       y       z     vdW  Elec       q    Type
REMARK                         _______ _______ _______ _____ _____    ______ ____
ROOT
ATOM      1  C   UNL     1      32.553  21.400   9.975  0.00  0.00    +0.000 C 
ATOM      2  C   UNL     1      32.504  20.416   8.728  0.00  0.00    +0.000 C 
ENDROOT
BRANCH   1   3
ATOM      3  C   UNL     1      33.944  21.152  10.574  0.00  0.00    +0.000 A 
ATOM      4  C   UNL     1      34.649  20.184  11.126  0.00  0.00    +0.000 A 
ATOM      5  N   UNL     1      35.923  20.607  11.399  0.00  0.00    +0.000 NA
ATOM      6  C   UNL     1      36.014  21.871  11.015  0.00  0.00    +0.000 A 
ATOM      7  C   UNL     1      37.079  22.767  11.162  0.00  0.00    +0.000 A 
ATOM      8  C   UNL     1      36.851  24.066  10.739  0.00  0.00    +0.000 A 
ATOM      9  C   UNL     1      35.684  24.504  10.211  0.00  0.00    +0.000 A 
ATOM     10  C   UNL     1      34.622  23.564  10.092  0.00  0.00    +0.000 A 
ATOM     11  C   UNL     1      34.824  22.268  10.497  0.00  0.00    +0.000 A 
ENDBRANCH   1   3
BRANCH   1  17
ATOM     12  N   UNL     1      29.588  22.713  13.542  0.00  0.00    +0.000 NA
ATOM     13  C   UNL     1      30.151  21.960  12.494  0.00  0.00    +0.000 C 
ATOM     14  N   UNL     1      29.625  21.476  11.471  0.00  0.00    +0.000 NA
ATOM     15  C   UNL     1      30.360  20.763  10.571  0.00  0.00    +0.000 C 
ATOM     16  O   UNL     1      29.861  20.449   9.414  0.00  0.00    +0.000 OA
ATOM     17  C   UNL     1      31.732  20.361  10.982  0.00  0.00    +0.000 C 
ATOM     18  S   UNL     1      31.868  21.498  12.501  0.00  0.00    +0.000 S 
BRANCH  12  20
ATOM     19  C   UNL     1      28.595  24.713  14.366  0.00  0.00    +0.000 C 
ATOM     20  C   UNL     1      28.460  23.613  13.311  0.00  0.00    +0.000 C 
ENDBRANCH  12  20
ENDBRANCH   1  17
TORSDOF 3
ENDMDL
MODEL 3
REMARK VINA RESULT:      -6.5     18.665     19.847
REMARK  Name = 
REMARK  3 active torsions:
REMARK  status: ('A' for Active; 'I' for Inactive)
REMARK    1  A    between atoms: C_2  and  N_3
REMARK    2  A    between atoms: C_8  and  C_9
REMARK    3  A    between atoms: C_9  and  C_11
REMARK                            x       y       z     vdW  Elec       q    Type
REMARK                         _______ _______ _______ _____ _____    ______ ____
ROOT
ATOM      1  C   UNL     1      26.742  23.438  25.067  0.00  0.00    +0.000 C 
ATOM      2  C   UNL     1      25.585  23.083  24.037  0.00  0.00    +0.000 C 
ENDROOT
BRANCH   1   3
ATOM      3  C   UNL     1      26.047  24.349  26.087  0.00  0.00    +0.000 A 
ATOM      4  C   UNL     1      25.273  25.417  26.128  0.00  0.00    +0.000 A 
ATOM      5  N   UNL     1      24.922  25.712  27.418  0.00  0.00    +0.000 NA
ATOM      6  C   UNL     1      25.495  24.814  28.203  0.00  0.00    +0.000 A 
ATOM      7  C   UNL     1      25.511  24.740  29.600  0.00  0.00    +0.000 A 
ATOM      8  C   UNL     1      26.277  23.726  30.152  0.00  0.00    +0.000 A 
ATOM      9  C   UNL     1      26.995  22.832  29.433  0.00  0.00    +0.000 A 
ATOM     10  C   UNL     1      26.962  22.952  28.015  0.00  0.00    +0.000 A 
ATOM     11  C   UNL     1      26.205  23.943  27.442  0.00  0.00    +0.000 A 
ENDBRANCH   1   3
BRANCH   1  17
ATOM     12  N   UNL     1      31.377  24.751  24.912  0.00  0.00    +0.000 NA
ATOM     13  C   UNL     1      30.050  24.519  24.504  0.00  0.00    +0.000 C 
ATOM     14  N   UNL     1      29.602  23.908  23.512  0.00  0.00    +0.000 NA
ATOM     15  C   UNL     1      28.260  23.804  23.297  0.00  0.00    +0.000 C 
ATOM     16  O   UNL     1      27.798  22.994  22.393  0.00  0.00    +0.000 OA
ATOM     17  C   UNL     1      27.371  24.659  24.128  0.00  0.00    +0.000 C 
ATOM     18  S   UNL     1      28.671  25.174  25.417  0.00  0.00    +0.000 S 
BRANCH  12  20
ATOM     19  C   UNL     1      33.748  24.555  24.827  0.00  0.00    +0.000 C 
ATOM     20  C   UNL     1      32.439  23.788  24.627  0.00  0.00    +0.000 C 
ENDBRANCH  12  20
ENDBRANCH   1  17
TORSDOF 3
ENDMDL
MODEL 4
REMARK VINA RESULT:      -6.5     21.027     22.493
REMARK  Name = 
REMARK  3 active torsions:
REMARK  status: ('A' for Active; 'I' for Inactive)
REMARK    1  A    between atoms: C_2  and  N_3
REMARK    2  A    between atoms: C_8  and  C_9
REMARK    3  A    between atoms: C_9  and  C_11
REMARK                            x       y       z     vdW  Elec       q    Type
REMARK                         _______ _______ _______ _____ _____    ______ ____
ROOT
ATOM      1  C   UNL     1      24.848   3.081  17.723  0.00  0.00    +0.000 C 
ATOM      2  C   UNL     1      23.291   3.393  17.788  0.00  0.00    +0.000 C 
ENDROOT
BRANCH   1   3
ATOM      3  C   UNL     1      25.407   4.221  16.861  0.00  0.00    +0.000 A 
ATOM      4  C   UNL     1      25.321   4.697  15.634  0.00  0.00    +0.000 A 
ATOM      5  N   UNL     1      26.057   5.845  15.507  0.00  0.00    +0.000 NA
ATOM      6  C   UNL     1      26.623   6.088  16.679  0.00  0.00    +0.000 A 
ATOM      7  C   UNL     1      27.534   7.089  17.032  0.00  0.00    +0.000 A 
ATOM      8  C   UNL     1      28.029   7.040  18.324  0.00  0.00    +0.000 A 
ATOM      9  C   UNL     1      27.692   6.099  19.237  0.00  0.00    +0.000 A 
ATOM     10  C   UNL     1      26.773   5.091  18.833  0.00  0.00    +0.000 A 
ATOM     11  C   UNL     1      26.261   5.120  17.559  0.00  0.00    +0.000 A 
ENDBRANCH   1   3
BRANCH   1  17
ATOM     12  N   UNL     1      27.494  -0.914  17.206  0.00  0.00    +0.000 NA
ATOM     13  C   UNL     1      26.402  -0.030  17.140  0.00  0.00    +0.000 C 
ATOM     14  N   UNL     1      25.215  -0.180  17.496  0.00  0.00    +0.000 NA
ATOM     15  C   UNL     1      24.300   0.818  17.335  0.00  0.00    +0.000 C 
ATOM     16  O   UNL     1      23.132   0.738  17.897  0.00  0.00    +0.000 OA
ATOM     17  C   UNL     1      24.699   1.975  16.489  0.00  0.00    +0.000 C 
ATOM     18  S   UNL     1      26.560   1.588  16.419  0.00  0.00    +0.000 S 
BRANCH  12  20
ATOM     19  C   UNL     1      27.970  -3.217  17.577  0.00  0.00    +0.000 C 
ATOM     20  C   UNL     1      27.608  -1.904  18.275  0.00  0.00    +0.000 C 
ENDBRANCH  12  20
ENDBRANCH   1  17
TORSDOF 3
ENDMDL
MODEL 5
REMARK VINA RESULT:      -6.5     18.963     19.831
REMARK  Name = 
REMARK  3 active torsions:
REMARK  status: ('A' for Active; 'I' for Inactive)
REMARK    1  A    between atoms: C_2  and  N_3
REMARK    2  A    between atoms: C_8  and  C_9
REMARK    3  A    between atoms: C_9  and  C_11
REMARK                            x       y       z     vdW  Elec       q    Type
REMARK                         _______ _______ _______ _____ _____    ______ ____
ROOT
ATOM      1  C   UNL     1      27.135  24.262  25.740  0.00  0.00    +0.000 C 
ATOM      2  C   UNL     1      25.590  24.293  26.114  0.00  0.00    +0.000 C 
ENDROOT
BRANCH   1   3
ATOM      3  C   UNL     1      27.131  24.092  24.216  0.00  0.00    +0.000 A 
ATOM      4  C   UNL     1      26.587  23.333  23.284  0.00  0.00    +0.000 A 
ATOM      5  N   UNL     1      26.956  23.759  22.035  0.00  0.00    +0.000 NA
ATOM      6  C   UNL     1      27.755  24.803  22.191  0.00  0.00    +0.000 A 
ATOM      7  C   UNL     1      28.458  25.531  21.224  0.00  0.00    +0.000 A 
ATOM      8  C   UNL     1      29.297  26.527  21.697  0.00  0.00    +0.000 A 
ATOM      9  C   UNL     1      29.472  26.822  23.006  0.00  0.00    +0.000 A 
ATOM     10  C   UNL     1      28.748  26.048  23.956  0.00  0.00    +0.000 A 
ATOM     11  C   UNL     1      27.904  25.059  23.515  0.00  0.00    +0.000 A 
ENDBRANCH   1   3
BRANCH   1  17
ATOM     12  N   UNL     1      31.148  22.210  27.449  0.00  0.00    +0.000 NA
ATOM     13  C   UNL     1      29.783  22.458  27.211  0.00  0.00    +0.000 C 
ATOM     14  N   UNL     1      28.832  22.591  28.008  0.00  0.00    +0.000 NA
ATOM     15  C   UNL     1      27.566  22.824  27.561  0.00  0.00    +0.000 C 
ATOM     16  O   UNL     1      26.628  23.171  28.390  0.00  0.00    +0.000 OA
ATOM     17  C   UNL     1      27.316  22.649  26.106  0.00  0.00    +0.000 C 
ATOM     18  S   UNL     1      29.137  22.584  25.558  0.00  0.00    +0.000 S 
BRANCH  12  20
ATOM     19  C   UNL     1      32.455  21.477  29.298  0.00  0.00    +0.000 C 
ATOM     20  C   UNL     1      31.812  22.707  28.652  0.00  0.00    +0.000 C 
ENDBRANCH  12  20
ENDBRANCH   1  17
TORSDOF 3
ENDMDL
MODEL 6
REMARK VINA RESULT:      -6.5     18.234     19.151
REMARK  Name = 
REMARK  3 active torsions:
REMARK  status: ('A' for Active; 'I' for Inactive)
REMARK    1  A    between atoms: C_2  and  N_3
REMARK    2  A    between atoms: C_8  and  C_9
REMARK    3  A    between atoms: C_9  and  C_11
REMARK                            x       y       z     vdW  Elec       q    Type
REMARK                         _______ _______ _______ _____ _____    ______ ____
ROOT
ATOM      1  C   UNL     1      26.128  25.069  25.681  0.00  0.00    +0.000 C 
ATOM      2  C   UNL     1      24.664  25.682  25.602  0.00  0.00    +0.000 C 
ENDROOT
BRANCH   1   3
ATOM      3  C   UNL     1      26.276  24.319  24.351  0.00  0.00    +0.000 A 
ATOM      4  C   UNL     1      25.650  23.411  23.627  0.00  0.00    +0.000 A 
ATOM      5  N   UNL     1      26.299  23.209  22.437  0.00  0.00    +0.000 NA
ATOM      6  C   UNL     1      27.358  24.002  22.421  0.00  0.00    +0.000 A 
ATOM      7  C   UNL     1      28.378  24.098  21.468  0.00  0.00    +0.000 A 
ATOM      8  C   UNL     1      29.417  24.964  21.766  0.00  0.00    +0.000 A 
ATOM      9  C   UNL     1      29.499  25.698  22.900  0.00  0.00    +0.000 A 
ATOM     10  C   UNL     1      28.447  25.561  23.849  0.00  0.00    +0.000 A 
ATOM     11  C   UNL     1      27.402  24.714  23.575  0.00  0.00    +0.000 A 
ENDBRANCH   1   3
BRANCH   1  17
ATOM     12  N   UNL     1      28.917  22.675  28.799  0.00  0.00    +0.000 NA
ATOM     13  C   UNL     1      27.771  23.230  28.201  0.00  0.00    +0.000 C 
ATOM     14  N   UNL     1      26.874  23.952  28.684  0.00  0.00    +0.000 NA
ATOM     15  C   UNL     1      25.831  24.384  27.920  0.00  0.00    +0.000 C 
ATOM     16  O   UNL     1      25.024  25.300  28.363  0.00  0.00    +0.000 OA
ATOM     17  C   UNL     1      25.660  23.752  26.584  0.00  0.00    +0.000 C 
ATOM     18  S   UNL     1      27.364  22.910  26.500  0.00  0.00    +0.000 S 
BRANCH  12  20
ATOM     19  C   UNL     1      29.395  22.479  31.123  0.00  0.00    +0.000 C 
ATOM     20  C   UNL     1      29.613  23.357  29.889  0.00  0.00    +0.000 C 
ENDBRANCH  12  20
ENDBRANCH   1  17
TORSDOF 3
ENDMDL
MODEL 7
REMARK VINA RESULT:      -6.4     17.813     20.369
REMARK  Name = 
REMARK  3 active torsions:
REMARK  status: ('A' for Active; 'I' for Inactive)
REMARK    1  A    between atoms: C_2  and  N_3
REMARK    2  A    between atoms: C_8  and  C_9
REMARK    3  A    between atoms: C_9  and  C_11
REMARK                            x       y       z     vdW  Elec       q    Type
REMARK                         _______ _______ _______ _____ _____    ______ ____
ROOT
ATOM      1  C   UNL     1      10.302  21.079  20.447  0.00  0.00    +0.000 C 
ATOM      2  C   UNL     1      10.068  20.019  21.607  0.00  0.00    +0.000 C 
ENDROOT
BRANCH   1   3
ATOM      3  C   UNL     1      10.836  22.311  21.188  0.00  0.00    +0.000 A 
ATOM      4  C   UNL     1      10.410  23.284  21.971  0.00  0.00    +0.000 A 
ATOM      5  N   UNL     1      11.454  24.073  22.375  0.00  0.00    +0.000 NA
ATOM      6  C   UNL     1      12.557  23.587  21.826  0.00  0.00    +0.000 A 
ATOM      7  C   UNL     1      13.862  24.091  21.865  0.00  0.00    +0.000 A 
ATOM      8  C   UNL     1      14.805  23.410  21.113  0.00  0.00    +0.000 A 
ATOM      9  C   UNL     1      14.539  22.317  20.360  0.00  0.00    +0.000 A 
ATOM     10  C   UNL     1      13.196  21.846  20.338  0.00  0.00    +0.000 A 
ATOM     11  C   UNL     1      12.243  22.498  21.080  0.00  0.00    +0.000 A 
ENDBRANCH   1   3
BRANCH   1  17
ATOM     12  N   UNL     1       8.055  22.984  16.631  0.00  0.00    +0.000 NA
ATOM     13  C   UNL     1       8.266  22.270  17.826  0.00  0.00    +0.000 C 
ATOM     14  N   UNL     1       7.961  21.101  18.136  0.00  0.00    +0.000 NA
ATOM     15  C   UNL     1       8.258  20.599  19.368  0.00  0.00    +0.000 C 
ATOM     16  O   UNL     1       8.133  19.329  19.610  0.00  0.00    +0.000 OA
ATOM     17  C   UNL     1       8.711  21.565  20.404  0.00  0.00    +0.000 C 
ATOM     18  S   UNL     1       9.042  23.029  19.235  0.00  0.00    +0.000 S 
BRANCH  12  20
ATOM     19  C   UNL     1       9.036  23.069  14.464  0.00  0.00    +0.000 C 
ATOM     20  C   UNL     1       8.034  22.308  15.336  0.00  0.00    +0.000 C 
ENDBRANCH  12  20
ENDBRANCH   1  17
TORSDOF 3
ENDMDL
MODEL 8
REMARK VINA RESULT:      -6.4     17.272     18.324
REMARK  Name = 
REMARK  3 active torsions:
REMARK  status: ('A' for Active; 'I' for Inactive)
REMARK    1  A    between atoms: C_2  and  N_3
REMARK    2  A    between atoms: C_8  and  C_9
REMARK    3  A    between atoms: C_9  and  C_11
REMARK                            x       y       z     vdW  Elec       q    Type
REMARK                         _______ _______ _______ _____ _____    ______ ____
ROOT
ATOM      1  C   UNL     1      26.674  23.351  28.043  0.00  0.00    +0.000 C 
ATOM      2  C   UNL     1      27.512  22.274  28.859  0.00  0.00    +0.000 C 
ENDROOT
BRANCH   1   3
ATOM      3  C   UNL     1      27.618  23.751  26.902  0.00  0.00    +0.000 A 
ATOM      4  C   UNL     1      28.848  24.191  26.714  0.00  0.00    +0.000 A 
ATOM      5  N   UNL     1      29.127  24.293  25.377  0.00  0.00    +0.000 NA
ATOM      6  C   UNL     1      28.044  23.917  24.715  0.00  0.00    +0.000 A 
ATOM      7  C   UNL     1      27.800  23.929  23.336  0.00  0.00    +0.000 A 
ATOM      8  C   UNL     1      26.527  23.558  22.935  0.00  0.00    +0.000 A 
ATOM      9  C   UNL     1      25.533  23.199  23.781  0.00  0.00    +0.000 A 
ATOM     10  C   UNL     1      25.820  23.213  25.175  0.00  0.00    +0.000 A 
ATOM     11  C   UNL     1      27.076  23.570  25.599  0.00  0.00    +0.000 A 
ENDBRANCH   1   3
BRANCH   1  17
ATOM     12  N   UNL     1      23.799  27.051  29.175  0.00  0.00    +0.000 NA
ATOM     13  C   UNL     1      24.795  26.063  29.287  0.00  0.00    +0.000 C 
ATOM     14  N   UNL     1      24.991  25.207  30.175  0.00  0.00    +0.000 NA
ATOM     15  C   UNL     1      26.035  24.334  30.092  0.00  0.00    +0.000 C 
ATOM     16  O   UNL     1      26.109  23.318  30.898  0.00  0.00    +0.000 OA
ATOM     17  C   UNL     1      27.069  24.608  29.059  0.00  0.00    +0.000 C 
ATOM     18  S   UNL     1      26.085  25.903  28.073  0.00  0.00    +0.000 S 
BRANCH  12  20
ATOM     19  C   UNL     1      21.559  26.613  28.500  0.00  0.00    +0.000 C 
ATOM     20  C   UNL     1      22.458  26.843  29.717  0.00  0.00    +0.000 C 
ENDBRANCH  12  20
ENDBRANCH   1  17
TORSDOF 3
ENDMDL
MODEL 9
REMARK VINA RESULT:      -6.2     18.407     19.931
REMARK  Name = 
REMARK  3 active torsions:
REMARK  status: ('A' for Active; 'I' for Inactive)
REMARK    1  A    between atoms: C_2  and  N_3
REMARK    2  A    between atoms: C_8  and  C_9
REMARK    3  A    between atoms: C_9  and  C_11
REMARK                            x       y       z     vdW  Elec       q    Type
REMARK                         _______ _______ _______ _____ _____    ______ ____
ROOT
ATOM      1  C   UNL     1      31.614  22.154  29.043  0.00  0.00    +0.000 C 
ATOM      2  C   UNL     1      32.914  21.371  29.514  0.00  0.00    +0.000 C 
ENDROOT
BRANCH   1   3
ATOM      3  C   UNL     1      32.154  23.165  28.023  0.00  0.00    +0.000 A 
ATOM      4  C   UNL     1      33.072  24.107  27.920  0.00  0.00    +0.000 A 
ATOM      5  N   UNL     1      33.097  24.624  26.652  0.00  0.00    +0.000 NA
ATOM      6  C   UNL     1      32.167  23.997  25.948  0.00  0.00    +0.000 A 
ATOM      7  C   UNL     1      31.746  24.228  24.634  0.00  0.00    +0.000 A 
ATOM      8  C   UNL     1      30.679  23.465  24.189  0.00  0.00    +0.000 A 
ATOM      9  C   UNL     1      30.036  22.539  24.938  0.00  0.00    +0.000 A 
ATOM     10  C   UNL     1      30.487  22.346  26.273  0.00  0.00    +0.000 A 
ATOM     11  C   UNL     1      31.548  23.083  26.738  0.00  0.00    +0.000 A 
ENDBRANCH   1   3
BRANCH   1  17
ATOM     12  N   UNL     1      27.835  24.711  30.598  0.00  0.00    +0.000 NA
ATOM     13  C   UNL     1      29.039  23.982  30.611  0.00  0.00    +0.000 C 
ATOM     14  N   UNL     1      29.389  23.009  31.310  0.00  0.00    +0.000 NA
ATOM     15  C   UNL     1      30.622  22.445  31.165  0.00  0.00    +0.000 C 
ATOM     16  O   UNL     1      30.900  21.312  31.735  0.00  0.00    +0.000 OA
ATOM     17  C   UNL     1      31.616  23.189  30.346  0.00  0.00    +0.000 C 
ATOM     18  S   UNL     1      30.400  24.418  29.553  0.00  0.00    +0.000 S 
BRANCH  12  20
ATOM     19  C   UNL     1      26.146  23.328  29.649  0.00  0.00    +0.000 C 
ATOM     20  C   UNL     1      26.559  24.076  30.919  0.00  0.00    +0.000 C 
ENDBRANCH  12  20
ENDBRANCH   1  17
TORSDOF 3
ENDMDL
MODEL 10
REMARK VINA RESULT:      -6.2      8.639     10.082
REMARK  Name = 
REMARK  3 active torsions:
REMARK  status: ('A' for Active; 'I' for Inactive)
REMARK    1  A    between atoms: C_2  and  N_3
REMARK    2  A    between atoms: C_8  and  C_9
REMARK    3  A    between atoms: C_9  and  C_11
REMARK                            x       y       z     vdW  Elec       q    Type
REMARK                         _______ _______ _______ _____ _____    ______ ____
ROOT
ATOM      1  C   UNL     1      20.240  21.750  36.741  0.00  0.00    +0.000 C 
ATOM      2  C   UNL     1      20.963  23.149  36.954  0.00  0.00    +0.000 C 
ENDROOT
BRANCH   1   3
ATOM      3  C   UNL     1      18.795  22.140  36.407  0.00  0.00    +0.000 A 
ATOM      4  C   UNL     1      17.792  22.834  36.910  0.00  0.00    +0.000 A 
ATOM      5  N   UNL     1      16.732  22.853  36.043  0.00  0.00    +0.000 NA
ATOM      6  C   UNL     1      17.077  22.148  34.977  0.00  0.00    +0.000 A 
ATOM      7  C   UNL     1      16.310  21.801  33.858  0.00  0.00    +0.000 A 
ATOM      8  C   UNL     1      16.918  20.969  32.932  0.00  0.00    +0.000 A 
ATOM      9  C   UNL     1      18.176  20.484  33.049  0.00  0.00    +0.000 A 
ATOM     10  C   UNL     1      18.916  20.850  34.209  0.00  0.00    +0.000 A 
ATOM     11  C   UNL     1      18.340  21.679  35.139  0.00  0.00    +0.000 A 
ENDBRANCH   1   3
BRANCH   1  17
ATOM     12  N   UNL     1      19.810  17.445  38.867  0.00  0.00    +0.000 NA
ATOM     13  C   UNL     1      20.118  18.805  38.677  0.00  0.00    +0.000 C 
ATOM     14  N   UNL     1      21.178  19.432  38.879  0.00  0.00    +0.000 NA
ATOM     15  C   UNL     1      21.263  20.770  38.629  0.00  0.00    +0.000 C 
ATOM     16  O   UNL     1      22.415  21.369  38.637  0.00  0.00    +0.000 OA
ATOM     17  C   UNL     1      19.991  21.494  38.366  0.00  0.00    +0.000 C 
ATOM     18  S   UNL     1      18.895  19.962  38.102  0.00  0.00    +0.000 S 
BRANCH  12  20
ATOM     19  C   UNL     1      20.346  15.235  39.572  0.00  0.00    +0.000 C 
ATOM     20  C   UNL     1      20.827  16.407  38.712  0.00  0.00    +0.000 C 
ENDBRANCH  12  20
ENDBRANCH   1  17
TORSDOF 3
ENDMDL
