MODEL 1
REMARK VINA RESULT:      -8.2      0.000      0.000
REMARK  Name = 
REMARK  7 active torsions:
REMARK  status: ('A' for Active; 'I' for Inactive)
REMARK    1  A    between atoms: C_2  and  C_3
REMARK    2  A    between atoms: C_6  and  S_7
REMARK    3  A    between atoms: S_7  and  C_8
REMARK    4  A    between atoms: C_10  and  C_11
REMARK    5  A    between atoms: N_13  and  C_14
REMARK    6  A    between atoms: C_14  and  C_15
REMARK    7  A    between atoms: C_19  and  O_20
REMARK                            x       y       z     vdW  Elec       q    Type
REMARK                         _______ _______ _______ _____ _____    ______ ____
ROOT
ATOM      1  C   UNL     1      37.511   2.344  15.144  0.00  0.00    +0.000 A 
ATOM      2  C   UNL     1      38.285   1.286  14.767  0.00  0.00    +0.000 A 
ATOM      3  C   UNL     1      37.958  -0.017  15.073  0.00  0.00    +0.000 A 
ATOM      4  C   UNL     1      36.785  -0.249  15.798  0.00  0.00    +0.000 A 
ATOM      5  C   UNL     1      36.400  -1.526  16.136  0.00  0.00    +0.000 A 
ATOM      6  C   UNL     1      35.243  -1.701  16.847  0.00  0.00    +0.000 A 
ATOM      7  C   UNL     1      34.484  -0.636  17.215  0.00  0.00    +0.000 A 
ATOM      8  C   UNL     1      34.854   0.638  16.885  0.00  0.00    +0.000 A 
ATOM      9  C   UNL     1      36.011   0.833  16.173  0.00  0.00    +0.000 A 
ATOM     10  N   UNL     1      36.380   2.083  15.847  0.00  0.00    +0.000 NA
ENDROOT
BRANCH   3  11
ATOM     11  C   UNL     1      38.729  -1.172  14.701  0.00  0.00    +0.000 C 
ATOM     12  O   UNL     1      38.401  -1.799  13.639  0.00  0.00    +0.000 OA
ATOM     13  N   UNL     1      39.834  -1.678  15.424  0.00  0.00    +0.000 NA
BRANCH  13  14
ATOM     14  C   UNL     1      40.531  -2.848  14.947  0.00  0.00    +0.000 C 
BRANCH  14  15
ATOM     15  C   UNL     1      41.678  -2.450  14.094  0.00  0.00    +0.000 A 
ATOM     16  C   UNL     1      42.416  -1.344  14.439  0.00  0.00    +0.000 A 
ATOM     17  C   UNL     1      43.507  -0.937  13.663  0.00  0.00    +0.000 A 
ATOM     18  C   UNL     1      43.868  -1.640  12.529  0.00  0.00    +0.000 A 
ATOM     19  C   UNL     1      43.123  -2.757  12.180  0.00  0.00    +0.000 A 
ATOM     20  C   UNL     1      42.041  -3.140  12.973  0.00  0.00    +0.000 A 
BRANCH  19  21
ATOM     21  O   UNL     1      43.459  -3.492  11.042  0.00  0.00    +0.000 OA
ATOM     22  C   UNL     1      43.800  -2.810   9.862  0.00  0.00    +0.000 C 
ENDBRANCH  19  21
ENDBRANCH  14  15
ENDBRANCH  13  14
ENDBRANCH   3  11
BRANCH   1  23
ATOM     23  S   UNL     1      37.938   4.050  14.746  0.00  0.00    +0.000 S 
BRANCH  23  27
ATOM     24  C   UNL     1      40.002   5.858  18.438  0.00  0.00    +0.000 A 
ATOM     25  C   UNL     1      38.864   5.084  18.527  0.00  0.00    +0.000 A 
ATOM     26  C   UNL     1      38.261   4.551  17.404  0.00  0.00    +0.000 A 
ATOM     27  C   UNL     1      38.779   4.777  16.142  0.00  0.00    +0.000 A 
ATOM     28  C   UNL     1      39.913   5.548  16.034  0.00  0.00    +0.000 A 
ATOM     29  C   UNL     1      40.516   6.082  17.179  0.00  0.00    +0.000 A 
BRANCH  24  31
ATOM     30  C   UNL     1      39.726   7.375  20.388  0.00  0.00    +0.000 C 
ATOM     31  C   UNL     1      40.658   6.436  19.658  0.00  0.00    +0.000 C 
ENDBRANCH  24  31
ENDBRANCH  23  27
ENDBRANCH   1  23
TORSDOF 7
ENDMDL
MODEL 2
REMARK VINA RESULT:      -8.1      1.172      1.994
REMARK  Name = 
REMARK  7 active torsions:
REMARK  status: ('A' for Active; 'I' for Inactive)
REMARK    1  A    between atoms: C_2  and  C_3
REMARK    2  A    between atoms: C_6  and  S_7
REMARK    3  A    between atoms: S_7  and  C_8
REMARK    4  A    between atoms: C_10  and  C_11
REMARK    5  A    between atoms: N_13  and  C_14
REMARK    6  A    between atoms: C_14  and  C_15
REMARK    7  A    between atoms: C_19  and  O_20
REMARK                            x       y       z     vdW  Elec       q    Type
REMARK                         _______ _______ _______ _____ _____    ______ ____
ROOT
ATOM      1  C   UNL     1      37.604   2.636  15.198  0.00  0.00    +0.000 A 
ATOM      2  C   UNL     1      38.330   1.596  14.697  0.00  0.00    +0.000 A 
ATOM      3  C   UNL     1      37.976   0.280  14.903  0.00  0.00    +0.000 A 
ATOM      4  C   UNL     1      36.828   0.017  15.657  0.00  0.00    +0.000 A 
ATOM      5  C   UNL     1      36.418  -1.274  15.901  0.00  0.00    +0.000 A 
ATOM      6  C   UNL     1      35.287  -1.479  16.644  0.00  0.00    +0.000 A 
ATOM      7  C   UNL     1      34.577  -0.431  17.135  0.00  0.00    +0.000 A 
ATOM      8  C   UNL     1      34.972   0.857  16.900  0.00  0.00    +0.000 A 
ATOM      9  C   UNL     1      36.103   1.082  16.157  0.00  0.00    +0.000 A 
ATOM     10  N   UNL     1      36.496   2.345  15.924  0.00  0.00    +0.000 NA
ENDROOT
BRANCH   3  11
ATOM     11  C   UNL     1      38.695  -0.859  14.400  0.00  0.00    +0.000 C 
ATOM     12  O   UNL     1      38.361  -1.327  13.261  0.00  0.00    +0.000 OA
ATOM     13  N   UNL     1      39.756  -1.511  15.071  0.00  0.00    +0.000 NA
BRANCH  13  14
ATOM     14  C   UNL     1      40.402  -2.647  14.460  0.00  0.00    +0.000 C 
BRANCH  14  15
ATOM     15  C   UNL     1      41.759  -2.272  13.987  0.00  0.00    +0.000 A 
ATOM     16  C   UNL     1      42.347  -3.011  12.991  0.00  0.00    +0.000 A 
ATOM     17  C   UNL     1      43.624  -2.689  12.515  0.00  0.00    +0.000 A 
ATOM     18  C   UNL     1      44.322  -1.618  13.039  0.00  0.00    +0.000 A 
ATOM     19  C   UNL     1      43.728  -0.871  14.045  0.00  0.00    +0.000 A 
ATOM     20  C   UNL     1      42.455  -1.215  14.500  0.00  0.00    +0.000 A 
BRANCH  19  21
ATOM     21  O   UNL     1      44.403   0.218  14.598  0.00  0.00    +0.000 OA
ATOM     22  C   UNL     1      45.727   0.052  15.038  0.00  0.00    +0.000 C 
ENDBRANCH  19  21
ENDBRANCH  14  15
ENDBRANCH  13  14
ENDBRANCH   3  11
BRANCH   1  23
ATOM     23  S   UNL     1      38.066   4.359  14.929  0.00  0.00    +0.000 S 
BRANCH  23  27
ATOM     24  C   UNL     1      40.254   6.019  18.619  0.00  0.00    +0.000 A 
ATOM     25  C   UNL     1      40.698   6.235  17.332  0.00  0.00    +0.000 A 
ATOM     26  C   UNL     1      40.025   5.726  16.238  0.00  0.00    +0.000 A 
ATOM     27  C   UNL     1      38.874   4.977  16.395  0.00  0.00    +0.000 A 
ATOM     28  C   UNL     1      38.416   4.751  17.673  0.00  0.00    +0.000 A 
ATOM     29  C   UNL     1      39.106   5.271  18.773  0.00  0.00    +0.000 A 
BRANCH  24  31
ATOM     30  C   UNL     1      42.467   6.687  19.534  0.00  0.00    +0.000 C 
ATOM     31  C   UNL     1      40.985   6.572  19.807  0.00  0.00    +0.000 C 
ENDBRANCH  24  31
ENDBRANCH  23  27
ENDBRANCH   1  23
TORSDOF 7
ENDMDL
MODEL 3
REMARK VINA RESULT:      -8.0      2.857      7.528
REMARK  Name = 
REMARK  7 active torsions:
REMARK  status: ('A' for Active; 'I' for Inactive)
REMARK    1  A    between atoms: C_2  and  C_3
REMARK    2  A    between atoms: C_6  and  S_7
REMARK    3  A    between atoms: S_7  and  C_8
REMARK    4  A    between atoms: C_10  and  C_11
REMARK    5  A    between atoms: N_13  and  C_14
REMARK    6  A    between atoms: C_14  and  C_15
REMARK    7  A    between atoms: C_19  and  O_20
REMARK                            x       y       z     vdW  Elec       q    Type
REMARK                         _______ _______ _______ _____ _____    ______ ____
ROOT
ATOM      1  C   UNL     1      38.330   0.055  13.952  0.00  0.00    +0.000 A 
ATOM      2  C   UNL     1      38.410   1.386  14.240  0.00  0.00    +0.000 A 
ATOM      3  C   UNL     1      37.574   1.997  15.150  0.00  0.00    +0.000 A 
ATOM      4  C   UNL     1      36.613   1.210  15.793  0.00  0.00    +0.000 A 
ATOM      5  C   UNL     1      35.747   1.757  16.712  0.00  0.00    +0.000 A 
ATOM      6  C   UNL     1      34.824   0.946  17.315  0.00  0.00    +0.000 A 
ATOM      7  C   UNL     1      34.759  -0.377  17.016  0.00  0.00    +0.000 A 
ATOM      8  C   UNL     1      35.614  -0.935  16.105  0.00  0.00    +0.000 A 
ATOM      9  C   UNL     1      36.546  -0.137  15.491  0.00  0.00    +0.000 A 
ATOM     10  N   UNL     1      37.386  -0.678  14.594  0.00  0.00    +0.000 NA
ENDROOT
BRANCH   3  11
ATOM     11  C   UNL     1      37.610   3.391  15.499  0.00  0.00    +0.000 C 
ATOM     12  O   UNL     1      36.893   4.200  14.821  0.00  0.00    +0.000 OA
ATOM     13  N   UNL     1      38.384   3.947  16.544  0.00  0.00    +0.000 NA
BRANCH  13  14
ATOM     14  C   UNL     1      38.333   5.367  16.798  0.00  0.00    +0.000 C 
BRANCH  14  15
ATOM     15  C   UNL     1      39.478   5.777  17.649  0.00  0.00    +0.000 A 
ATOM     16  C   UNL     1      39.298   5.881  19.007  0.00  0.00    +0.000 A 
ATOM     17  C   UNL     1      40.354   6.262  19.844  0.00  0.00    +0.000 A 
ATOM     18  C   UNL     1      41.602   6.541  19.323  0.00  0.00    +0.000 A 
ATOM     19  C   UNL     1      41.785   6.435  17.952  0.00  0.00    +0.000 A 
ATOM     20  C   UNL     1      40.715   6.053  17.141  0.00  0.00    +0.000 A 
BRANCH  19  21
ATOM     21  O   UNL     1      43.032   6.709  17.391  0.00  0.00    +0.000 OA
ATOM     22  C   UNL     1      43.934   7.529  18.090  0.00  0.00    +0.000 C 
ENDBRANCH  19  21
ENDBRANCH  14  15
ENDBRANCH  13  14
ENDBRANCH   3  11
BRANCH   1  23
ATOM     23  S   UNL     1      39.423  -0.747  12.761  0.00  0.00    +0.000 S 
BRANCH  23  27
ATOM     24  C   UNL     1      43.624  -1.221  14.574  0.00  0.00    +0.000 A 
ATOM     25  C   UNL     1      42.835  -2.299  14.234  0.00  0.00    +0.000 A 
ATOM     26  C   UNL     1      41.575  -2.133  13.691  0.00  0.00    +0.000 A 
ATOM     27  C   UNL     1      41.056  -0.871  13.468  0.00  0.00    +0.000 A 
ATOM     28  C   UNL     1      41.830   0.217  13.801  0.00  0.00    +0.000 A 
ATOM     29  C   UNL     1      43.104   0.037  14.350  0.00  0.00    +0.000 A 
BRANCH  24  31
ATOM     30  C   UNL     1      45.320  -0.290  16.135  0.00  0.00    +0.000 C 
ATOM     31  C   UNL     1      44.992  -1.400  15.163  0.00  0.00    +0.000 C 
ENDBRANCH  24  31
ENDBRANCH  23  27
ENDBRANCH   1  23
TORSDOF 7
ENDMDL
MODEL 4
REMARK VINA RESULT:      -8.0      2.598      5.247
REMARK  Name = 
REMARK  7 active torsions:
REMARK  status: ('A' for Active; 'I' for Inactive)
REMARK    1  A    between atoms: C_2  and  C_3
REMARK    2  A    between atoms: C_6  and  S_7
REMARK    3  A    between atoms: S_7  and  C_8
REMARK    4  A    between atoms: C_10  and  C_11
REMARK    5  A    between atoms: N_13  and  C_14
REMARK    6  A    between atoms: C_14  and  C_15
REMARK    7  A    between atoms: C_19  and  O_20
REMARK                            x       y       z     vdW  Elec       q    Type
REMARK                         _______ _______ _______ _____ _____    ______ ____
ROOT
ATOM      1  C   UNL     1      38.895   3.588  14.788  0.00  0.00    +0.000 A 
ATOM      2  C   UNL     1      37.952   2.718  15.250  0.00  0.00    +0.000 A 
ATOM      3  C   UNL     1      38.017   1.362  15.013  0.00  0.00    +0.000 A 
ATOM      4  C   UNL     1      39.097   0.875  14.271  0.00  0.00    +0.000 A 
ATOM      5  C   UNL     1      39.223  -0.469  13.999  0.00  0.00    +0.000 A 
ATOM      6  C   UNL     1      40.298  -0.897  13.268  0.00  0.00    +0.000 A 
ATOM      7  C   UNL     1      41.228  -0.017  12.816  0.00  0.00    +0.000 A 
ATOM      8  C   UNL     1      41.116   1.321  13.079  0.00  0.00    +0.000 A 
ATOM      9  C   UNL     1      40.045   1.769  13.811  0.00  0.00    +0.000 A 
ATOM     10  N   UNL     1      39.929   3.081  14.071  0.00  0.00    +0.000 NA
ENDROOT
BRANCH   3  11
ATOM     11  C   UNL     1      37.058   0.395  15.475  0.00  0.00    +0.000 C 
ATOM     12  O   UNL     1      36.108   0.069  14.689  0.00  0.00    +0.000 OA
ATOM     13  N   UNL     1      37.082  -0.231  16.743  0.00  0.00    +0.000 NA
BRANCH  13  14
ATOM     14  C   UNL     1      36.060  -1.190  17.089  0.00  0.00    +0.000 C 
BRANCH  14  15
ATOM     15  C   UNL     1      36.598  -2.570  16.994  0.00  0.00    +0.000 A 
ATOM     16  C   UNL     1      36.095  -3.419  16.039  0.00  0.00    +0.000 A 
ATOM     17  C   UNL     1      36.577  -4.727  15.915  0.00  0.00    +0.000 A 
ATOM     18  C   UNL     1      37.573  -5.195  16.750  0.00  0.00    +0.000 A 
ATOM     19  C   UNL     1      38.082  -4.337  17.714  0.00  0.00    +0.000 A 
ATOM     20  C   UNL     1      37.583  -3.039  17.816  0.00  0.00    +0.000 A 
BRANCH  19  21
ATOM     21  O   UNL     1      39.089  -4.775  18.576  0.00  0.00    +0.000 OA
ATOM     22  C   UNL     1      39.022  -4.435  19.937  0.00  0.00    +0.000 C 
ENDBRANCH  19  21
ENDBRANCH  14  15
ENDBRANCH  13  14
ENDBRANCH   3  11
BRANCH   1  23
ATOM     23  S   UNL     1      38.811   5.364  15.096  0.00  0.00    +0.000 S 
BRANCH  23  27
ATOM     24  C   UNL     1      40.787   6.296  19.144  0.00  0.00    +0.000 A 
ATOM     25  C   UNL     1      41.447   6.444  17.943  0.00  0.00    +0.000 A 
ATOM     26  C   UNL     1      40.834   6.158  16.738  0.00  0.00    +0.000 A 
ATOM     27  C   UNL     1      39.527   5.708  16.693  0.00  0.00    +0.000 A 
ATOM     28  C   UNL     1      38.852   5.554  17.883  0.00  0.00    +0.000 A 
ATOM     29  C   UNL     1      39.483   5.848  19.097  0.00  0.00    +0.000 A 
BRANCH  24  31
ATOM     30  C   UNL     1      42.956   6.627  20.311  0.00  0.00    +0.000 C 
ATOM     31  C   UNL     1      41.452   6.608  20.453  0.00  0.00    +0.000 C 
ENDBRANCH  24  31
ENDBRANCH  23  27
ENDBRANCH   1  23
TORSDOF 7
ENDMDL
MODEL 5
REMARK VINA RESULT:      -8.0     23.157     27.929
REMARK  Name = 
REMARK  7 active torsions:
REMARK  status: ('A' for Active; 'I' for Inactive)
REMARK    1  A    between atoms: C_2  and  C_3
REMARK    2  A    between atoms: C_6  and  S_7
REMARK    3  A    between atoms: S_7  and  C_8
REMARK    4  A    between atoms: C_10  and  C_11
REMARK    5  A    between atoms: N_13  and  C_14
REMARK    6  A    between atoms: C_14  and  C_15
REMARK    7  A    between atoms: C_19  and  O_20
REMARK                            x       y       z     vdW  Elec       q    Type
REMARK                         _______ _______ _______ _____ _____    ______ ____
ROOT
ATOM      1  C   UNL     1      11.989  -1.477  26.882  0.00  0.00    +0.000 A 
ATOM      2  C   UNL     1      13.316  -1.217  27.058  0.00  0.00    +0.000 A 
ATOM      3  C   UNL     1      13.814   0.065  27.142  0.00  0.00    +0.000 A 
ATOM      4  C   UNL     1      12.913   1.129  27.041  0.00  0.00    +0.000 A 
ATOM      5  C   UNL     1      13.344   2.434  27.116  0.00  0.00    +0.000 A 
ATOM      6  C   UNL     1      12.423   3.442  27.011  0.00  0.00    +0.000 A 
ATOM      7  C   UNL     1      11.105   3.165  26.836  0.00  0.00    +0.000 A 
ATOM      8  C   UNL     1      10.663   1.873  26.760  0.00  0.00    +0.000 A 
ATOM      9  C   UNL     1      11.571   0.850  26.863  0.00  0.00    +0.000 A 
ATOM     10  N   UNL     1      11.143  -0.420  26.788  0.00  0.00    +0.000 NA
ENDROOT
BRANCH   3  11
ATOM     11  C   UNL     1      15.199   0.403  27.330  0.00  0.00    +0.000 C 
ATOM     12  O   UNL     1      15.665   0.392  28.518  0.00  0.00    +0.000 OA
ATOM     13  N   UNL     1      16.098   0.752  26.296  0.00  0.00    +0.000 NA
BRANCH  13  14
ATOM     14  C   UNL     1      17.469   1.071  26.612  0.00  0.00    +0.000 C 
BRANCH  14  15
ATOM     15  C   UNL     1      18.363   0.643  25.507  0.00  0.00    +0.000 A 
ATOM     16  C   UNL     1      19.037   1.598  24.786  0.00  0.00    +0.000 A 
ATOM     17  C   UNL     1      19.893   1.236  23.738  0.00  0.00    +0.000 A 
ATOM     18  C   UNL     1      20.078  -0.092  23.406  0.00  0.00    +0.000 A 
ATOM     19  C   UNL     1      19.398  -1.056  24.135  0.00  0.00    +0.000 A 
ATOM     20  C   UNL     1      18.553  -0.667  25.174  0.00  0.00    +0.000 A 
BRANCH  19  21
ATOM     21  O   UNL     1      19.562  -2.408  23.828  0.00  0.00    +0.000 OA
ATOM     22  C   UNL     1      19.991  -2.772  22.541  0.00  0.00    +0.000 C 
ENDBRANCH  19  21
ENDBRANCH  14  15
ENDBRANCH  13  14
ENDBRANCH   3  11
BRANCH   1  23
ATOM     23  S   UNL     1      11.334  -3.154  26.771  0.00  0.00    +0.000 S 
BRANCH  23  27
ATOM     24  C   UNL     1      13.283  -5.828  29.967  0.00  0.00    +0.000 A 
ATOM     25  C   UNL     1      13.202  -6.194  28.640  0.00  0.00    +0.000 A 
ATOM     26  C   UNL     1      12.611  -5.375  27.697  0.00  0.00    +0.000 A 
ATOM     27  C   UNL     1      12.076  -4.150  28.052  0.00  0.00    +0.000 A 
ATOM     28  C   UNL     1      12.148  -3.769  29.372  0.00  0.00    +0.000 A 
ATOM     29  C   UNL     1      12.749  -4.607  30.319  0.00  0.00    +0.000 A 
BRANCH  24  31
ATOM     30  C   UNL     1      14.766  -7.789  30.337  0.00  0.00    +0.000 C 
ATOM     31  C   UNL     1      13.925  -6.718  30.991  0.00  0.00    +0.000 C 
ENDBRANCH  24  31
ENDBRANCH  23  27
ENDBRANCH   1  23
TORSDOF 7
ENDMDL
MODEL 6
REMARK VINA RESULT:      -7.8     23.553     28.404
REMARK  Name = 
REMARK  7 active torsions:
REMARK  status: ('A' for Active; 'I' for Inactive)
REMARK    1  A    between atoms: C_2  and  C_3
REMARK    2  A    between atoms: C_6  and  S_7
REMARK    3  A    between atoms: S_7  and  C_8
REMARK    4  A    between atoms: C_10  and  C_11
REMARK    5  A    between atoms: N_13  and  C_14
REMARK    6  A    between atoms: C_14  and  C_15
REMARK    7  A    between atoms: C_19  and  O_20
REMARK                            x       y       z     vdW  Elec       q    Type
REMARK                         _______ _______ _______ _____ _____    ______ ____
ROOT
ATOM      1  C   UNL     1      10.948  -0.847  26.440  0.00  0.00    +0.000 A 
ATOM      2  C   UNL     1      12.246  -0.837  26.857  0.00  0.00    +0.000 A 
ATOM      3  C   UNL     1      12.932   0.331  27.116  0.00  0.00    +0.000 A 
ATOM      4  C   UNL     1      12.258   1.542  26.939  0.00  0.00    +0.000 A 
ATOM      5  C   UNL     1      12.883   2.745  27.180  0.00  0.00    +0.000 A 
ATOM      6  C   UNL     1      12.181   3.904  26.993  0.00  0.00    +0.000 A 
ATOM      7  C   UNL     1      10.888   3.876  26.577  0.00  0.00    +0.000 A 
ATOM      8  C   UNL     1      10.254   2.689  26.335  0.00  0.00    +0.000 A 
ATOM      9  C   UNL     1      10.942   1.516  26.517  0.00  0.00    +0.000 A 
ATOM     10  N   UNL     1      10.324   0.348  26.279  0.00  0.00    +0.000 NA
ENDROOT
BRANCH   3  11
ATOM     11  C   UNL     1      14.297   0.407  27.560  0.00  0.00    +0.000 C 
ATOM     12  O   UNL     1      14.531   0.297  28.809  0.00  0.00    +0.000 OA
ATOM     13  N   UNL     1      15.417   0.595  26.716  0.00  0.00    +0.000 NA
BRANCH  13  14
ATOM     14  C   UNL     1      16.742   0.653  27.283  0.00  0.00    +0.000 C 
BRANCH  14  15
ATOM     15  C   UNL     1      17.740   0.146  26.308  0.00  0.00    +0.000 A 
ATOM     16  C   UNL     1      18.010  -1.200  26.267  0.00  0.00    +0.000 A 
ATOM     17  C   UNL     1      18.942  -1.719  25.360  0.00  0.00    +0.000 A 
ATOM     18  C   UNL     1      19.612  -0.887  24.484  0.00  0.00    +0.000 A 
ATOM     19  C   UNL     1      19.339   0.472  24.525  0.00  0.00    +0.000 A 
ATOM     20  C   UNL     1      18.406   0.962  25.438  0.00  0.00    +0.000 A 
BRANCH  19  21
ATOM     21  O   UNL     1      19.997   1.342  23.655  0.00  0.00    +0.000 OA
ATOM     22  C   UNL     1      20.216   0.947  22.325  0.00  0.00    +0.000 C 
ENDBRANCH  19  21
ENDBRANCH  14  15
ENDBRANCH  13  14
ENDBRANCH   3  11
BRANCH   1  23
ATOM     23  S   UNL     1      10.049  -2.373  26.100  0.00  0.00    +0.000 S 
BRANCH  23  27
ATOM     24  C   UNL     1      12.574  -5.893  27.647  0.00  0.00    +0.000 A 
ATOM     25  C   UNL     1      12.056  -4.927  28.482  0.00  0.00    +0.000 A 
ATOM     26  C   UNL     1      11.300  -3.877  27.996  0.00  0.00    +0.000 A 
ATOM     27  C   UNL     1      11.035  -3.758  26.644  0.00  0.00    +0.000 A 
ATOM     28  C   UNL     1      11.544  -4.713  25.795  0.00  0.00    +0.000 A 
ATOM     29  C   UNL     1      12.308  -5.772  26.300  0.00  0.00    +0.000 A 
BRANCH  24  31
ATOM     30  C   UNL     1      13.439  -8.179  27.190  0.00  0.00    +0.000 C 
ATOM     31  C   UNL     1      13.394  -7.034  28.176  0.00  0.00    +0.000 C 
ENDBRANCH  24  31
ENDBRANCH  23  27
ENDBRANCH   1  23
TORSDOF 7
ENDMDL
MODEL 7
REMARK VINA RESULT:      -7.7     24.230     29.094
REMARK  Name = 
REMARK  7 active torsions:
REMARK  status: ('A' for Active; 'I' for Inactive)
REMARK    1  A    between atoms: C_2  and  C_3
REMARK    2  A    between atoms: C_6  and  S_7
REMARK    3  A    between atoms: S_7  and  C_8
REMARK    4  A    between atoms: C_10  and  C_11
REMARK    5  A    between atoms: N_13  and  C_14
REMARK    6  A    between atoms: C_14  and  C_15
REMARK    7  A    between atoms: C_19  and  O_20
REMARK                            x       y       z     vdW  Elec       q    Type
REMARK                         _______ _______ _______ _____ _____    ______ ____
ROOT
ATOM      1  C   UNL     1      14.462   0.351  27.355  0.00  0.00    +0.000 A 
ATOM      2  C   UNL     1      13.781  -0.711  26.838  0.00  0.00    +0.000 A 
ATOM      3  C   UNL     1      12.492  -0.603  26.362  0.00  0.00    +0.000 A 
ATOM      4  C   UNL     1      11.872   0.648  26.419  0.00  0.00    +0.000 A 
ATOM      5  C   UNL     1      10.586   0.825  25.961  0.00  0.00    +0.000 A 
ATOM      6  C   UNL     1      10.023   2.071  26.038  0.00  0.00    +0.000 A 
ATOM      7  C   UNL     1      10.716   3.118  26.557  0.00  0.00    +0.000 A 
ATOM      8  C   UNL     1      11.994   2.957  27.015  0.00  0.00    +0.000 A 
ATOM      9  C   UNL     1      12.576   1.715  26.945  0.00  0.00    +0.000 A 
ATOM     10  N   UNL     1      13.830   1.551  27.395  0.00  0.00    +0.000 NA
ENDROOT
BRANCH   3  11
ATOM     11  C   UNL     1      11.724  -1.682  25.803  0.00  0.00    +0.000 C 
ATOM     12  O   UNL     1      11.130  -2.477  26.605  0.00  0.00    +0.000 OA
ATOM     13  N   UNL     1      11.570  -1.939  24.421  0.00  0.00    +0.000 NA
BRANCH  13  14
ATOM     14  C   UNL     1      10.769  -3.057  23.983  0.00  0.00    +0.000 C 
BRANCH  14  15
ATOM     15  C   UNL     1       9.590  -2.575  23.219  0.00  0.00    +0.000 A 
ATOM     16  C   UNL     1       9.276  -3.178  22.026  0.00  0.00    +0.000 A 
ATOM     17  C   UNL     1       8.171  -2.755  21.277  0.00  0.00    +0.000 A 
ATOM     18  C   UNL     1       7.370  -1.721  21.723  0.00  0.00    +0.000 A 
ATOM     19  C   UNL     1       7.687  -1.113  22.929  0.00  0.00    +0.000 A 
ATOM     20  C   UNL     1       8.794  -1.555  23.654  0.00  0.00    +0.000 A 
BRANCH  19  21
ATOM     21  O   UNL     1       6.901  -0.066  23.410  0.00  0.00    +0.000 OA
ATOM     22  C   UNL     1       5.807   0.377  22.648  0.00  0.00    +0.000 C 
ENDBRANCH  19  21
ENDBRANCH  14  15
ENDBRANCH  13  14
ENDBRANCH   3  11
BRANCH   1  23
ATOM     23  S   UNL     1      16.149   0.212  27.979  0.00  0.00    +0.000 S 
BRANCH  23  27
ATOM     24  C   UNL     1      19.037  -0.089  24.411  0.00  0.00    +0.000 A 
ATOM     25  C   UNL     1      18.641   1.117  24.948  0.00  0.00    +0.000 A 
ATOM     26  C   UNL     1      17.772   1.184  26.019  0.00  0.00    +0.000 A 
ATOM     27  C   UNL     1      17.264   0.035  26.597  0.00  0.00    +0.000 A 
ATOM     28  C   UNL     1      17.648  -1.178  26.075  0.00  0.00    +0.000 A 
ATOM     29  C   UNL     1      18.529  -1.234  24.989  0.00  0.00    +0.000 A 
BRANCH  24  31
ATOM     30  C   UNL     1      21.206   0.691  23.481  0.00  0.00    +0.000 C 
ATOM     31  C   UNL     1      19.981  -0.162  23.247  0.00  0.00    +0.000 C 
ENDBRANCH  24  31
ENDBRANCH  23  27
ENDBRANCH   1  23
TORSDOF 7
ENDMDL
MODEL 8
REMARK VINA RESULT:      -7.7     24.317     29.106
REMARK  Name = 
REMARK  7 active torsions:
REMARK  status: ('A' for Active; 'I' for Inactive)
REMARK    1  A    between atoms: C_2  and  C_3
REMARK    2  A    between atoms: C_6  and  S_7
REMARK    3  A    between atoms: S_7  and  C_8
REMARK    4  A    between atoms: C_10  and  C_11
REMARK    5  A    between atoms: N_13  and  C_14
REMARK    6  A    between atoms: C_14  and  C_15
REMARK    7  A    between atoms: C_19  and  O_20
REMARK                            x       y       z     vdW  Elec       q    Type
REMARK                         _______ _______ _______ _____ _____    ______ ____
ROOT
ATOM      1  C   UNL     1      10.920  -1.114  25.977  0.00  0.00    +0.000 A 
ATOM      2  C   UNL     1      12.187  -1.100  26.482  0.00  0.00    +0.000 A 
ATOM      3  C   UNL     1      12.812   0.063  26.879  0.00  0.00    +0.000 A 
ATOM      4  C   UNL     1      12.110   1.264  26.753  0.00  0.00    +0.000 A 
ATOM      5  C   UNL     1      12.675   2.461  27.130  0.00  0.00    +0.000 A 
ATOM      6  C   UNL     1      11.947   3.611  26.987  0.00  0.00    +0.000 A 
ATOM      7  C   UNL     1      10.686   3.579  26.482  0.00  0.00    +0.000 A 
ATOM      8  C   UNL     1      10.111   2.397  26.104  0.00  0.00    +0.000 A 
ATOM      9  C   UNL     1      10.826   1.234  26.240  0.00  0.00    +0.000 A 
ATOM     10  N   UNL     1      10.267   0.071  25.868  0.00  0.00    +0.000 NA
ENDROOT
BRANCH   3  11
ATOM     11  C   UNL     1      14.141   0.143  27.421  0.00  0.00    +0.000 C 
ATOM     12  O   UNL     1      14.271   0.217  28.688  0.00  0.00    +0.000 OA
ATOM     13  N   UNL     1      15.332   0.146  26.657  0.00  0.00    +0.000 NA
BRANCH  13  14
ATOM     14  C   UNL     1      16.611   0.229  27.320  0.00  0.00    +0.000 C 
BRANCH  14  15
ATOM     15  C   UNL     1      17.700  -0.143  26.382  0.00  0.00    +0.000 A 
ATOM     16  C   UNL     1      18.055  -1.463  26.261  0.00  0.00    +0.000 A 
ATOM     17  C   UNL     1      19.075  -1.855  25.385  0.00  0.00    +0.000 A 
ATOM     18  C   UNL     1      19.747  -0.921  24.621  0.00  0.00    +0.000 A 
ATOM     19  C   UNL     1      19.388   0.413  24.743  0.00  0.00    +0.000 A 
ATOM     20  C   UNL     1      18.368   0.776  25.623  0.00  0.00    +0.000 A 
BRANCH  19  21
ATOM     21  O   UNL     1      20.045   1.385  23.987  0.00  0.00    +0.000 OA
ATOM     22  C   UNL     1      21.158   1.015  23.214  0.00  0.00    +0.000 C 
ENDBRANCH  19  21
ENDBRANCH  14  15
ENDBRANCH  13  14
ENDBRANCH   3  11
BRANCH   1  23
ATOM     23  S   UNL     1      10.099  -2.634  25.456  0.00  0.00    +0.000 S 
BRANCH  23  27
ATOM     24  C   UNL     1       6.941  -1.608  22.274  0.00  0.00    +0.000 A 
ATOM     25  C   UNL     1       8.253  -1.887  21.956  0.00  0.00    +0.000 A 
ATOM     26  C   UNL     1       9.185  -2.193  22.929  0.00  0.00    +0.000 A 
ATOM     27  C   UNL     1       8.834  -2.229  24.266  0.00  0.00    +0.000 A 
ATOM     28  C   UNL     1       7.529  -1.952  24.601  0.00  0.00    +0.000 A 
ATOM     29  C   UNL     1       6.593  -1.644  23.607  0.00  0.00    +0.000 A 
BRANCH  24  31
ATOM     30  C   UNL     1       6.122  -2.131  19.985  0.00  0.00    +0.000 C 
ATOM     31  C   UNL     1       5.928  -1.277  21.217  0.00  0.00    +0.000 C 
ENDBRANCH  24  31
ENDBRANCH  23  27
ENDBRANCH   1  23
TORSDOF 7
ENDMDL
MODEL 9
REMARK VINA RESULT:      -7.5      4.092      6.201
REMARK  Name = 
REMARK  7 active torsions:
REMARK  status: ('A' for Active; 'I' for Inactive)
REMARK    1  A    between atoms: C_2  and  C_3
REMARK    2  A    between atoms: C_6  and  S_7
REMARK    3  A    between atoms: S_7  and  C_8
REMARK    4  A    between atoms: C_10  and  C_11
REMARK    5  A    between atoms: N_13  and  C_14
REMARK    6  A    between atoms: C_14  and  C_15
REMARK    7  A    between atoms: C_19  and  O_20
REMARK                            x       y       z     vdW  Elec       q    Type
REMARK                         _______ _______ _______ _____ _____    ______ ____
ROOT
ATOM      1  C   UNL     1      38.928   5.441  17.760  0.00  0.00    +0.000 A 
ATOM      2  C   UNL     1      37.902   4.547  17.848  0.00  0.00    +0.000 A 
ATOM      3  C   UNL     1      37.590   3.676  16.827  0.00  0.00    +0.000 A 
ATOM      4  C   UNL     1      38.363   3.722  15.663  0.00  0.00    +0.000 A 
ATOM      5  C   UNL     1      38.105   2.880  14.605  0.00  0.00    +0.000 A 
ATOM      6  C   UNL     1      38.891   2.964  13.487  0.00  0.00    +0.000 A 
ATOM      7  C   UNL     1      39.908   3.860  13.417  0.00  0.00    +0.000 A 
ATOM      8  C   UNL     1      40.176   4.703  14.460  0.00  0.00    +0.000 A 
ATOM      9  C   UNL     1      39.399   4.633  15.589  0.00  0.00    +0.000 A 
ATOM     10  N   UNL     1      39.657   5.459  16.616  0.00  0.00    +0.000 NA
ENDROOT
BRANCH   3  11
ATOM     11  C   UNL     1      36.525   2.710  16.860  0.00  0.00    +0.000 C 
ATOM     12  O   UNL     1      35.395   3.043  16.370  0.00  0.00    +0.000 OA
ATOM     13  N   UNL     1      36.628   1.406  17.398  0.00  0.00    +0.000 NA
BRANCH  13  14
ATOM     14  C   UNL     1      35.485   0.526  17.371  0.00  0.00    +0.000 C 
BRANCH  14  15
ATOM     15  C   UNL     1      35.924  -0.880  17.180  0.00  0.00    +0.000 A 
ATOM     16  C   UNL     1      35.146  -1.727  16.430  0.00  0.00    +0.000 A 
ATOM     17  C   UNL     1      35.526  -3.058  16.224  0.00  0.00    +0.000 A 
ATOM     18  C   UNL     1      36.695  -3.551  16.772  0.00  0.00    +0.000 A 
ATOM     19  C   UNL     1      37.481  -2.695  17.529  0.00  0.00    +0.000 A 
ATOM     20  C   UNL     1      37.078  -1.373  17.718  0.00  0.00    +0.000 A 
BRANCH  19  21
ATOM     21  O   UNL     1      38.669  -3.158  18.098  0.00  0.00    +0.000 OA
ATOM     22  C   UNL     1      38.702  -3.454  19.470  0.00  0.00    +0.000 C 
ENDBRANCH  19  21
ENDBRANCH  14  15
ENDBRANCH  13  14
ENDBRANCH   3  11
BRANCH   1  23
ATOM     23  S   UNL     1      39.337   6.583  19.095  0.00  0.00    +0.000 S 
BRANCH  23  27
ATOM     24  C   UNL     1      43.874   6.550  19.852  0.00  0.00    +0.000 A 
ATOM     25  C   UNL     1      42.954   6.271  20.839  0.00  0.00    +0.000 A 
ATOM     26  C   UNL     1      41.595   6.287  20.590  0.00  0.00    +0.000 A 
ATOM     27  C   UNL     1      41.105   6.587  19.331  0.00  0.00    +0.000 A 
ATOM     28  C   UNL     1      42.010   6.868  18.334  0.00  0.00    +0.000 A 
ATOM     29  C   UNL     1      43.384   6.849  18.598  0.00  0.00    +0.000 A 
BRANCH  24  31
ATOM     30  C   UNL     1      46.143   6.534  18.836  0.00  0.00    +0.000 C 
ATOM     31  C   UNL     1      45.350   6.532  20.123  0.00  0.00    +0.000 C 
ENDBRANCH  24  31
ENDBRANCH  23  27
ENDBRANCH   1  23
TORSDOF 7
ENDMDL
MODEL 10
REMARK VINA RESULT:      -7.4      3.936      6.223
REMARK  Name = 
REMARK  7 active torsions:
REMARK  status: ('A' for Active; 'I' for Inactive)
REMARK    1  A    between atoms: C_2  and  C_3
REMARK    2  A    between atoms: C_6  and  S_7
REMARK    3  A    between atoms: S_7  and  C_8
REMARK    4  A    between atoms: C_10  and  C_11
REMARK    5  A    between atoms: N_13  and  C_14
REMARK    6  A    between atoms: C_14  and  C_15
REMARK    7  A    between atoms: C_19  and  O_20
REMARK                            x       y       z     vdW  Elec       q    Type
REMARK                         _______ _______ _______ _____ _____    ______ ____
ROOT
ATOM      1  C   UNL     1      36.459   4.771  13.182  0.00  0.00    +0.000 A 
ATOM      2  C   UNL     1      36.054   4.140  14.321  0.00  0.00    +0.000 A 
ATOM      3  C   UNL     1      36.786   3.131  14.909  0.00  0.00    +0.000 A 
ATOM      4  C   UNL     1      37.988   2.751  14.304  0.00  0.00    +0.000 A 
ATOM      5  C   UNL     1      38.768   1.751  14.839  0.00  0.00    +0.000 A 
ATOM      6  C   UNL     1      39.936   1.416  14.209  0.00  0.00    +0.000 A 
ATOM      7  C   UNL     1      40.324   2.055  13.075  0.00  0.00    +0.000 A 
ATOM      8  C   UNL     1      39.560   3.051  12.533  0.00  0.00    +0.000 A 
ATOM      9  C   UNL     1      38.385   3.401  13.150  0.00  0.00    +0.000 A 
ATOM     10  N   UNL     1      37.630   4.377  12.621  0.00  0.00    +0.000 NA
ENDROOT
BRANCH   3  11
ATOM     11  C   UNL     1      36.415   2.431  16.108  0.00  0.00    +0.000 C 
ATOM     12  O   UNL     1      36.787   2.916  17.228  0.00  0.00    +0.000 OA
ATOM     13  N   UNL     1      35.663   1.234  16.150  0.00  0.00    +0.000 NA
BRANCH  13  14
ATOM     14  C   UNL     1      35.351   0.625  17.421  0.00  0.00    +0.000 C 
BRANCH  14  15
ATOM     15  C   UNL     1      36.368  -0.402  17.761  0.00  0.00    +0.000 A 
ATOM     16  C   UNL     1      36.511  -0.794  19.069  0.00  0.00    +0.000 A 
ATOM     17  C   UNL     1      37.456  -1.761  19.430  0.00  0.00    +0.000 A 
ATOM     18  C   UNL     1      38.267  -2.346  18.477  0.00  0.00    +0.000 A 
ATOM     19  C   UNL     1      38.122  -1.951  17.155  0.00  0.00    +0.000 A 
ATOM     20  C   UNL     1      37.173  -0.984  16.824  0.00  0.00    +0.000 A 
BRANCH  19  21
ATOM     21  O   UNL     1      38.924  -2.520  16.165  0.00  0.00    +0.000 OA
ATOM     22  C   UNL     1      38.649  -2.242  14.816  0.00  0.00    +0.000 C 
ENDBRANCH  19  21
ENDBRANCH  14  15
ENDBRANCH  13  14
ENDBRANCH   3  11
BRANCH   1  23
ATOM     23  S   UNL     1      35.502   6.090  12.410  0.00  0.00    +0.000 S 
BRANCH  23  27
ATOM     24  C   UNL     1      34.312   9.129  15.652  0.00  0.00    +0.000 A 
ATOM     25  C   UNL     1      35.568   9.101  15.084  0.00  0.00    +0.000 A 
ATOM     26  C   UNL     1      35.903   8.179  14.112  0.00  0.00    +0.000 A 
ATOM     27  C   UNL     1      34.986   7.243  13.670  0.00  0.00    +0.000 A 
ATOM     28  C   UNL     1      33.727   7.256  14.226  0.00  0.00    +0.000 A 
ATOM     29  C   UNL     1      33.399   8.195  15.210  0.00  0.00    +0.000 A 
BRANCH  24  31
ATOM     30  C   UNL     1      33.000   9.534  17.725  0.00  0.00    +0.000 C 
ATOM     31  C   UNL     1      33.947  10.131  16.708  0.00  0.00    +0.000 C 
ENDBRANCH  24  31
ENDBRANCH  23  27
ENDBRANCH   1  23
TORSDOF 7
ENDMDL
