MODEL 1
REMARK VINA RESULT:      -9.0      0.000      0.000
REMARK  Name = 
REMARK  7 active torsions:
REMARK  status: ('A' for Active; 'I' for Inactive)
REMARK    1  A    between atoms: C_5  and  N_6
REMARK    2  A    between atoms: C_7  and  C_8
REMARK    3  A    between atoms: C_8  and  C_9
REMARK    4  A    between atoms: C_17  and  S_18
REMARK    5  A    between atoms: S_18  and  C_19
REMARK    6  A    between atoms: C_19  and  C_20
REMARK    7  A    between atoms: N_22  and  C_23
REMARK                            x       y       z     vdW  Elec       q    Type
REMARK                         _______ _______ _______ _____ _____    ______ ____
ROOT
ATOM      1  N   UNL     1      37.042   3.915  15.753  0.00  0.00    +0.000 N 
ATOM      2  C   UNL     1      37.901   4.430  16.649  0.00  0.00    +0.000 A 
ATOM      3  N   UNL     1      37.875   3.646  17.738  0.00  0.00    +0.000 NA
ATOM      4  N   UNL     1      37.022   2.652  17.550  0.00  0.00    +0.000 NA
ATOM      5  C   UNL     1      36.506   2.820  16.318  0.00  0.00    +0.000 A 
ENDROOT
BRANCH   1  10
ATOM      6  C   UNL     1      35.875   5.978  10.520  0.00  0.00    +0.000 C 
ATOM      7  C   UNL     1      36.160   5.454  11.893  0.00  0.00    +0.000 A 
ATOM      8  C   UNL     1      35.407   5.840  12.980  0.00  0.00    +0.000 A 
ATOM      9  C   UNL     1      35.721   5.321  14.217  0.00  0.00    +0.000 A 
ATOM     10  C   UNL     1      36.750   4.429  14.449  0.00  0.00    +0.000 A 
ATOM     11  C   UNL     1      37.495   4.057  13.335  0.00  0.00    +0.000 A 
ATOM     12  C   UNL     1      37.192   4.571  12.083  0.00  0.00    +0.000 A 
ENDBRANCH   1  10
BRANCH   2  13
ATOM     13  C   UNL     1      38.754   5.636  16.526  0.00  0.00    +0.000 C 
BRANCH  13  14
ATOM     14  C   UNL     1      38.987   6.272  17.863  0.00  0.00    +0.000 A 
ATOM     15  C   UNL     1      40.017   5.890  18.678  0.00  0.00    +0.000 A 
ATOM     16  C   UNL     1      40.184   6.506  19.891  0.00  0.00    +0.000 A 
ATOM     17  C   UNL     1      39.338   7.510  20.325  0.00  0.00    +0.000 A 
ATOM     18  C   UNL     1      38.300   7.875  19.471  0.00  0.00    +0.000 A 
ATOM     19  C   UNL     1      38.134   7.260  18.260  0.00  0.00    +0.000 A 
ENDBRANCH  13  14
ENDBRANCH   2  13
BRANCH   5  20
ATOM     20  S   UNL     1      35.286   1.771  15.502  0.00  0.00    +0.000 S 
BRANCH  20  21
ATOM     21  C   UNL     1      35.491   0.047  16.053  0.00  0.00    +0.000 C 
BRANCH  21  22
ATOM     22  C   UNL     1      36.727  -0.535  15.467  0.00  0.00    +0.000 C 
ATOM     23  O   UNL     1      36.642  -1.103  14.350  0.00  0.00    +0.000 OA
ATOM     24  N   UNL     1      37.995  -0.478  16.113  0.00  0.00    +0.000 NA
BRANCH  24  25
ATOM     25  C   UNL     1      39.156  -1.046  15.523  0.00  0.00    +0.000 A 
ATOM     26  C   UNL     1      39.458  -2.382  15.770  0.00  0.00    +0.000 A 
ATOM     27  C   UNL     1      38.532  -3.147  16.646  0.00  0.00    +0.000 C 
ATOM     28  C   UNL     1      40.579  -2.912  15.197  0.00  0.00    +0.000 A 
ATOM     29  C   UNL     1      41.410  -2.173  14.392  0.00  0.00    +0.000 A 
ATOM     30  C   UNL     1      41.115  -0.852  14.146  0.00  0.00    +0.000 A 
ATOM     31  C   UNL     1      39.976  -0.278  14.718  0.00  0.00    +0.000 A 
ATOM     32  C   UNL     1      39.619   1.146  14.480  0.00  0.00    +0.000 C 
ENDBRANCH  24  25
ENDBRANCH  21  22
ENDBRANCH  20  21
ENDBRANCH   5  20
TORSDOF 7
ENDMDL
MODEL 2
REMARK VINA RESULT:      -8.7      1.280      2.461
REMARK  Name = 
REMARK  7 active torsions:
REMARK  status: ('A' for Active; 'I' for Inactive)
REMARK    1  A    between atoms: C_5  and  N_6
REMARK    2  A    between atoms: C_7  and  C_8
REMARK    3  A    between atoms: C_8  and  C_9
REMARK    4  A    between atoms: C_17  and  S_18
REMARK    5  A    between atoms: S_18  and  C_19
REMARK    6  A    between atoms: C_19  and  C_20
REMARK    7  A    between atoms: N_22  and  C_23
REMARK                            x       y       z     vdW  Elec       q    Type
REMARK                         _______ _______ _______ _____ _____    ______ ____
ROOT
ATOM      1  N   UNL     1      37.045   3.935  15.722  0.00  0.00    +0.000 N 
ATOM      2  C   UNL     1      37.899   4.454  16.621  0.00  0.00    +0.000 A 
ATOM      3  N   UNL     1      37.879   3.665  17.707  0.00  0.00    +0.000 NA
ATOM      4  N   UNL     1      37.035   2.665  17.515  0.00  0.00    +0.000 NA
ATOM      5  C   UNL     1      36.519   2.833  16.283  0.00  0.00    +0.000 A 
ENDROOT
BRANCH   1  10
ATOM      6  C   UNL     1      35.852   6.010  10.500  0.00  0.00    +0.000 C 
ATOM      7  C   UNL     1      36.182   5.456  11.852  0.00  0.00    +0.000 A 
ATOM      8  C   UNL     1      37.216   4.562  12.029  0.00  0.00    +0.000 A 
ATOM      9  C   UNL     1      37.467   4.089  13.298  0.00  0.00    +0.000 A 
ATOM     10  C   UNL     1      36.749   4.452  14.420  0.00  0.00    +0.000 A 
ATOM     11  C   UNL     1      35.711   5.354  14.214  0.00  0.00    +0.000 A 
ATOM     12  C   UNL     1      35.444   5.838  12.942  0.00  0.00    +0.000 A 
ENDBRANCH   1  10
BRANCH   2  13
ATOM     13  C   UNL     1      38.741   5.668  16.503  0.00  0.00    +0.000 C 
BRANCH  13  14
ATOM     14  C   UNL     1      38.998   6.280  17.847  0.00  0.00    +0.000 A 
ATOM     15  C   UNL     1      40.033   5.873  18.644  0.00  0.00    +0.000 A 
ATOM     16  C   UNL     1      40.221   6.468  19.864  0.00  0.00    +0.000 A 
ATOM     17  C   UNL     1      39.392   7.476  20.323  0.00  0.00    +0.000 A 
ATOM     18  C   UNL     1      38.349   7.866  19.488  0.00  0.00    +0.000 A 
ATOM     19  C   UNL     1      38.161   7.272  18.270  0.00  0.00    +0.000 A 
ENDBRANCH  13  14
ENDBRANCH   2  13
BRANCH   5  20
ATOM     20  S   UNL     1      35.308   1.776  15.462  0.00  0.00    +0.000 S 
BRANCH  20  21
ATOM     21  C   UNL     1      36.151   0.350  14.704  0.00  0.00    +0.000 C 
BRANCH  21  22
ATOM     22  C   UNL     1      36.471  -0.666  15.740  0.00  0.00    +0.000 C 
ATOM     23  O   UNL     1      35.703  -1.653  15.859  0.00  0.00    +0.000 OA
ATOM     24  N   UNL     1      37.602  -0.570  16.600  0.00  0.00    +0.000 NA
BRANCH  24  25
ATOM     25  C   UNL     1      37.876  -1.560  17.582  0.00  0.00    +0.000 A 
ATOM     26  C   UNL     1      38.701  -2.632  17.251  0.00  0.00    +0.000 A 
ATOM     27  C   UNL     1      39.254  -2.676  15.872  0.00  0.00    +0.000 C 
ATOM     28  C   UNL     1      38.953  -3.576  18.206  0.00  0.00    +0.000 A 
ATOM     29  C   UNL     1      38.423  -3.501  19.470  0.00  0.00    +0.000 A 
ATOM     30  C   UNL     1      37.608  -2.443  19.800  0.00  0.00    +0.000 A 
ATOM     31  C   UNL     1      37.329  -1.459  18.847  0.00  0.00    +0.000 A 
ATOM     32  C   UNL     1      36.453  -0.299  19.159  0.00  0.00    +0.000 C 
ENDBRANCH  24  25
ENDBRANCH  21  22
ENDBRANCH  20  21
ENDBRANCH   5  20
TORSDOF 7
ENDMDL
MODEL 3
REMARK VINA RESULT:      -8.5      2.345      7.390
REMARK  Name = 
REMARK  7 active torsions:
REMARK  status: ('A' for Active; 'I' for Inactive)
REMARK    1  A    between atoms: C_5  and  N_6
REMARK    2  A    between atoms: C_7  and  C_8
REMARK    3  A    between atoms: C_8  and  C_9
REMARK    4  A    between atoms: C_17  and  S_18
REMARK    5  A    between atoms: S_18  and  C_19
REMARK    6  A    between atoms: C_19  and  C_20
REMARK    7  A    between atoms: N_22  and  C_23
REMARK                            x       y       z     vdW  Elec       q    Type
REMARK                         _______ _______ _______ _____ _____    ______ ____
ROOT
ATOM      1  N   UNL     1      36.173   0.587  15.678  0.00  0.00    +0.000 N 
ATOM      2  C   UNL     1      35.227   0.136  16.519  0.00  0.00    +0.000 A 
ATOM      3  N   UNL     1      34.484   1.187  16.901  0.00  0.00    +0.000 NA
ATOM      4  N   UNL     1      34.938   2.286  16.324  0.00  0.00    +0.000 NA
ATOM      5  C   UNL     1      35.986   1.913  15.564  0.00  0.00    +0.000 A 
ENDROOT
BRANCH   1  10
ATOM      6  C   UNL     1      40.232  -2.530  13.069  0.00  0.00    +0.000 C 
ATOM      7  C   UNL     1      39.190  -1.710  13.766  0.00  0.00    +0.000 A 
ATOM      8  C   UNL     1      39.486  -0.989  14.902  0.00  0.00    +0.000 A 
ATOM      9  C   UNL     1      38.483  -0.255  15.496  0.00  0.00    +0.000 A 
ATOM     10  C   UNL     1      37.186  -0.189  15.028  0.00  0.00    +0.000 A 
ATOM     11  C   UNL     1      36.914  -0.926  13.881  0.00  0.00    +0.000 A 
ATOM     12  C   UNL     1      37.912  -1.671  13.272  0.00  0.00    +0.000 A 
ENDBRANCH   1  10
BRANCH   2  13
ATOM     13  C   UNL     1      34.986  -1.252  16.983  0.00  0.00    +0.000 C 
BRANCH  13  14
ATOM     14  C   UNL     1      36.192  -1.805  17.681  0.00  0.00    +0.000 A 
ATOM     15  C   UNL     1      36.735  -1.199  18.781  0.00  0.00    +0.000 A 
ATOM     16  C   UNL     1      37.838  -1.749  19.380  0.00  0.00    +0.000 A 
ATOM     17  C   UNL     1      38.429  -2.906  18.906  0.00  0.00    +0.000 A 
ATOM     18  C   UNL     1      37.852  -3.496  17.785  0.00  0.00    +0.000 A 
ATOM     19  C   UNL     1      36.750  -2.948  17.187  0.00  0.00    +0.000 A 
ENDBRANCH  13  14
ENDBRANCH   2  13
BRANCH   5  20
ATOM     20  S   UNL     1      37.013   2.981  14.535  0.00  0.00    +0.000 S 
BRANCH  20  21
ATOM     21  C   UNL     1      37.115   4.640  15.281  0.00  0.00    +0.000 C 
BRANCH  21  22
ATOM     22  C   UNL     1      38.453   4.844  15.894  0.00  0.00    +0.000 C 
ATOM     23  O   UNL     1      39.159   3.832  16.128  0.00  0.00    +0.000 OA
ATOM     24  N   UNL     1      38.967   6.130  16.227  0.00  0.00    +0.000 NA
BRANCH  24  25
ATOM     25  C   UNL     1      40.251   6.288  16.814  0.00  0.00    +0.000 A 
ATOM     26  C   UNL     1      40.370   6.275  18.201  0.00  0.00    +0.000 A 
ATOM     27  C   UNL     1      39.128   6.091  18.997  0.00  0.00    +0.000 C 
ATOM     28  C   UNL     1      41.612   6.431  18.749  0.00  0.00    +0.000 A 
ATOM     29  C   UNL     1      42.737   6.598  17.979  0.00  0.00    +0.000 A 
ATOM     30  C   UNL     1      42.623   6.612  16.609  0.00  0.00    +0.000 A 
ATOM     31  C   UNL     1      41.367   6.456  16.016  0.00  0.00    +0.000 A 
ATOM     32  C   UNL     1      41.198   6.465  14.539  0.00  0.00    +0.000 C 
ENDBRANCH  24  25
ENDBRANCH  21  22
ENDBRANCH  20  21
ENDBRANCH   5  20
TORSDOF 7
ENDMDL
MODEL 4
REMARK VINA RESULT:      -8.5      2.347      7.459
REMARK  Name = 
REMARK  7 active torsions:
REMARK  status: ('A' for Active; 'I' for Inactive)
REMARK    1  A    between atoms: C_5  and  N_6
REMARK    2  A    between atoms: C_7  and  C_8
REMARK    3  A    between atoms: C_8  and  C_9
REMARK    4  A    between atoms: C_17  and  S_18
REMARK    5  A    between atoms: S_18  and  C_19
REMARK    6  A    between atoms: C_19  and  C_20
REMARK    7  A    between atoms: N_22  and  C_23
REMARK                            x       y       z     vdW  Elec       q    Type
REMARK                         _______ _______ _______ _____ _____    ______ ____
ROOT
ATOM      1  N   UNL     1      36.209   0.698  15.678  0.00  0.00    +0.000 N 
ATOM      2  C   UNL     1      35.258   0.247  16.514  0.00  0.00    +0.000 A 
ATOM      3  N   UNL     1      34.548   1.305  16.934  0.00  0.00    +0.000 NA
ATOM      4  N   UNL     1      35.027   2.409  16.386  0.00  0.00    +0.000 NA
ATOM      5  C   UNL     1      36.057   2.031  15.606  0.00  0.00    +0.000 A 
ENDROOT
BRANCH   1  10
ATOM      6  C   UNL     1      40.160  -2.447  12.940  0.00  0.00    +0.000 C 
ATOM      7  C   UNL     1      39.147  -1.620  13.670  0.00  0.00    +0.000 A 
ATOM      8  C   UNL     1      39.482  -0.911  14.803  0.00  0.00    +0.000 A 
ATOM      9  C   UNL     1      38.504  -0.170  15.428  0.00  0.00    +0.000 A 
ATOM     10  C   UNL     1      37.195  -0.085  14.996  0.00  0.00    +0.000 A 
ATOM     11  C   UNL     1      36.884  -0.811  13.851  0.00  0.00    +0.000 A 
ATOM     12  C   UNL     1      37.857  -1.563  13.210  0.00  0.00    +0.000 A 
ENDBRANCH   1  10
BRANCH   2  13
ATOM     13  C   UNL     1      34.984  -1.147  16.938  0.00  0.00    +0.000 C 
BRANCH  13  14
ATOM     14  C   UNL     1      36.204  -1.779  17.538  0.00  0.00    +0.000 A 
ATOM     15  C   UNL     1      36.758  -2.919  17.023  0.00  0.00    +0.000 A 
ATOM     16  C   UNL     1      37.874  -3.454  17.613  0.00  0.00    +0.000 A 
ATOM     17  C   UNL     1      38.465  -2.875  18.721  0.00  0.00    +0.000 A 
ATOM     18  C   UNL     1      37.876  -1.717  19.220  0.00  0.00    +0.000 A 
ATOM     19  C   UNL     1      36.762  -1.183  18.631  0.00  0.00    +0.000 A 
ENDBRANCH  13  14
ENDBRANCH   2  13
BRANCH   5  20
ATOM     20  S   UNL     1      37.105   3.102  14.599  0.00  0.00    +0.000 S 
BRANCH  20  21
ATOM     21  C   UNL     1      37.175   4.764  15.340  0.00  0.00    +0.000 C 
BRANCH  21  22
ATOM     22  C   UNL     1      38.447   4.939  16.087  0.00  0.00    +0.000 C 
ATOM     23  O   UNL     1      39.003   3.915  16.557  0.00  0.00    +0.000 OA
ATOM     24  N   UNL     1      39.059   6.208  16.294  0.00  0.00    +0.000 NA
BRANCH  24  25
ATOM     25  C   UNL     1      40.277   6.338  17.015  0.00  0.00    +0.000 A 
ATOM     26  C   UNL     1      41.478   6.390  16.314  0.00  0.00    +0.000 A 
ATOM     27  C   UNL     1      41.414   6.308  14.832  0.00  0.00    +0.000 C 
ATOM     28  C   UNL     1      42.640   6.514  17.023  0.00  0.00    +0.000 A 
ATOM     29  C   UNL     1      42.658   6.587  18.394  0.00  0.00    +0.000 A 
ATOM     30  C   UNL     1      41.472   6.535  19.090  0.00  0.00    +0.000 A 
ATOM     31  C   UNL     1      40.266   6.409  18.396  0.00  0.00    +0.000 A 
ATOM     32  C   UNL     1      38.961   6.348  19.107  0.00  0.00    +0.000 C 
ENDBRANCH  24  25
ENDBRANCH  21  22
ENDBRANCH  20  21
ENDBRANCH   5  20
TORSDOF 7
ENDMDL
MODEL 5
REMARK VINA RESULT:      -8.4      2.446      8.004
REMARK  Name = 
REMARK  7 active torsions:
REMARK  status: ('A' for Active; 'I' for Inactive)
REMARK    1  A    between atoms: C_5  and  N_6
REMARK    2  A    between atoms: C_7  and  C_8
REMARK    3  A    between atoms: C_8  and  C_9
REMARK    4  A    between atoms: C_17  and  S_18
REMARK    5  A    between atoms: S_18  and  C_19
REMARK    6  A    between atoms: C_19  and  C_20
REMARK    7  A    between atoms: N_22  and  C_23
REMARK                            x       y       z     vdW  Elec       q    Type
REMARK                         _______ _______ _______ _____ _____    ______ ____
ROOT
ATOM      1  N   UNL     1      36.707   0.016  16.121  0.00  0.00    +0.000 N 
ATOM      2  C   UNL     1      36.083  -0.437  17.222  0.00  0.00    +0.000 A 
ATOM      3  N   UNL     1      35.332   0.564  17.707  0.00  0.00    +0.000 NA
ATOM      4  N   UNL     1      35.467   1.633  16.941  0.00  0.00    +0.000 NA
ATOM      5  C   UNL     1      36.321   1.292  15.957  0.00  0.00    +0.000 A 
ENDROOT
BRANCH   1  10
ATOM      6  C   UNL     1      40.334  -2.912  12.763  0.00  0.00    +0.000 C 
ATOM      7  C   UNL     1      39.371  -2.153  13.622  0.00  0.00    +0.000 A 
ATOM      8  C   UNL     1      38.062  -1.960  13.235  0.00  0.00    +0.000 A 
ATOM      9  C   UNL     1      37.226  -1.252  14.070  0.00  0.00    +0.000 A 
ATOM     10  C   UNL     1      37.610  -0.715  15.283  0.00  0.00    +0.000 A 
ATOM     11  C   UNL     1      38.935  -0.923  15.649  0.00  0.00    +0.000 A 
ATOM     12  C   UNL     1      39.790  -1.632  14.819  0.00  0.00    +0.000 A 
ENDBRANCH   1  10
BRANCH   2  13
ATOM     13  C   UNL     1      36.161  -1.781  17.843  0.00  0.00    +0.000 C 
BRANCH  13  14
ATOM     14  C   UNL     1      35.763  -2.850  16.870  0.00  0.00    +0.000 A 
ATOM     15  C   UNL     1      34.567  -2.819  16.208  0.00  0.00    +0.000 A 
ATOM     16  C   UNL     1      34.254  -3.823  15.329  0.00  0.00    +0.000 A 
ATOM     17  C   UNL     1      35.115  -4.879  15.087  0.00  0.00    +0.000 A 
ATOM     18  C   UNL     1      36.323  -4.880  15.778  0.00  0.00    +0.000 A 
ATOM     19  C   UNL     1      36.635  -3.877  16.655  0.00  0.00    +0.000 A 
ENDBRANCH  13  14
ENDBRANCH   2  13
BRANCH   5  20
ATOM     20  S   UNL     1      36.891   2.342  14.604  0.00  0.00    +0.000 S 
BRANCH  20  21
ATOM     21  C   UNL     1      36.947   4.077  15.155  0.00  0.00    +0.000 C 
BRANCH  21  22
ATOM     22  C   UNL     1      38.298   4.405  15.678  0.00  0.00    +0.000 C 
ATOM     23  O   UNL     1      39.125   3.469  15.812  0.00  0.00    +0.000 OA
ATOM     24  N   UNL     1      38.694   5.726  16.034  0.00  0.00    +0.000 NA
BRANCH  24  25
ATOM     25  C   UNL     1      39.996   6.004  16.533  0.00  0.00    +0.000 A 
ATOM     26  C   UNL     1      40.208   6.010  17.909  0.00  0.00    +0.000 A 
ATOM     27  C   UNL     1      39.044   5.718  18.786  0.00  0.00    +0.000 C 
ATOM     28  C   UNL     1      41.465   6.280  18.371  0.00  0.00    +0.000 A 
ATOM     29  C   UNL     1      42.515   6.544  17.527  0.00  0.00    +0.000 A 
ATOM     30  C   UNL     1      42.309   6.539  16.167  0.00  0.00    +0.000 A 
ATOM     31  C   UNL     1      41.035   6.266  15.661  0.00  0.00    +0.000 A 
ATOM     32  C   UNL     1      40.766   6.251  14.198  0.00  0.00    +0.000 C 
ENDBRANCH  24  25
ENDBRANCH  21  22
ENDBRANCH  20  21
ENDBRANCH   5  20
TORSDOF 7
ENDMDL
MODEL 6
REMARK VINA RESULT:      -8.2      2.710      7.850
REMARK  Name = 
REMARK  7 active torsions:
REMARK  status: ('A' for Active; 'I' for Inactive)
REMARK    1  A    between atoms: C_5  and  N_6
REMARK    2  A    between atoms: C_7  and  C_8
REMARK    3  A    between atoms: C_8  and  C_9
REMARK    4  A    between atoms: C_17  and  S_18
REMARK    5  A    between atoms: S_18  and  C_19
REMARK    6  A    between atoms: C_19  and  C_20
REMARK    7  A    between atoms: N_22  and  C_23
REMARK                            x       y       z     vdW  Elec       q    Type
REMARK                         _______ _______ _______ _____ _____    ______ ____
ROOT
ATOM      1  N   UNL     1      36.714   1.274  15.418  0.00  0.00    +0.000 N 
ATOM      2  C   UNL     1      35.829   0.617  16.187  0.00  0.00    +0.000 A 
ATOM      3  N   UNL     1      35.128   1.532  16.875  0.00  0.00    +0.000 NA
ATOM      4  N   UNL     1      35.548   2.745  16.559  0.00  0.00    +0.000 NA
ATOM      5  C   UNL     1      36.532   2.584  15.655  0.00  0.00    +0.000 A 
ENDROOT
BRANCH   1  10
ATOM      6  C   UNL     1      40.536  -1.050  11.814  0.00  0.00    +0.000 C 
ATOM      7  C   UNL     1      39.558  -0.442  12.770  0.00  0.00    +0.000 A 
ATOM      8  C   UNL     1      39.942  -0.037  14.030  0.00  0.00    +0.000 A 
ATOM      9  C   UNL     1      38.994   0.515  14.863  0.00  0.00    +0.000 A 
ATOM     10  C   UNL     1      37.668   0.696  14.520  0.00  0.00    +0.000 A 
ATOM     11  C   UNL     1      37.307   0.278  13.244  0.00  0.00    +0.000 A 
ATOM     12  C   UNL     1      38.249  -0.281  12.394  0.00  0.00    +0.000 A 
ENDBRANCH   1  10
BRANCH   2  13
ATOM     13  C   UNL     1      35.611  -0.844  16.305  0.00  0.00    +0.000 C 
BRANCH  13  14
ATOM     14  C   UNL     1      36.607  -1.466  17.237  0.00  0.00    +0.000 A 
ATOM     15  C   UNL     1      36.570  -1.251  18.587  0.00  0.00    +0.000 A 
ATOM     16  C   UNL     1      37.506  -1.845  19.393  0.00  0.00    +0.000 A 
ATOM     17  C   UNL     1      38.497  -2.664  18.882  0.00  0.00    +0.000 A 
ATOM     18  C   UNL     1      38.507  -2.862  17.505  0.00  0.00    +0.000 A 
ATOM     19  C   UNL     1      37.572  -2.268  16.700  0.00  0.00    +0.000 A 
ENDBRANCH  13  14
ENDBRANCH   2  13
BRANCH   5  20
ATOM     20  S   UNL     1      37.490   3.886  14.852  0.00  0.00    +0.000 S 
BRANCH  20  21
ATOM     21  C   UNL     1      38.979   4.249  15.837  0.00  0.00    +0.000 C 
BRANCH  21  22
ATOM     22  C   UNL     1      38.629   5.109  16.996  0.00  0.00    +0.000 C 
ATOM     23  O   UNL     1      37.862   4.639  17.873  0.00  0.00    +0.000 OA
ATOM     24  N   UNL     1      39.120   6.437  17.156  0.00  0.00    +0.000 NA
BRANCH  24  25
ATOM     25  C   UNL     1      38.764   7.232  18.278  0.00  0.00    +0.000 A 
ATOM     26  C   UNL     1      37.754   8.181  18.143  0.00  0.00    +0.000 A 
ATOM     27  C   UNL     1      37.098   8.305  16.815  0.00  0.00    +0.000 C 
ATOM     28  C   UNL     1      37.425   8.939  19.231  0.00  0.00    +0.000 A 
ATOM     29  C   UNL     1      38.055   8.795  20.443  0.00  0.00    +0.000 A 
ATOM     30  C   UNL     1      39.053   7.858  20.579  0.00  0.00    +0.000 A 
ATOM     31  C   UNL     1      39.414   7.066  19.486  0.00  0.00    +0.000 A 
ATOM     32  C   UNL     1      40.488   6.042  19.588  0.00  0.00    +0.000 C 
ENDBRANCH  24  25
ENDBRANCH  21  22
ENDBRANCH  20  21
ENDBRANCH   5  20
TORSDOF 7
ENDMDL
MODEL 7
REMARK VINA RESULT:      -8.0      2.429      5.143
REMARK  Name = 
REMARK  7 active torsions:
REMARK  status: ('A' for Active; 'I' for Inactive)
REMARK    1  A    between atoms: C_5  and  N_6
REMARK    2  A    between atoms: C_7  and  C_8
REMARK    3  A    between atoms: C_8  and  C_9
REMARK    4  A    between atoms: C_17  and  S_18
REMARK    5  A    between atoms: S_18  and  C_19
REMARK    6  A    between atoms: C_19  and  C_20
REMARK    7  A    between atoms: N_22  and  C_23
REMARK                            x       y       z     vdW  Elec       q    Type
REMARK                         _______ _______ _______ _____ _____    ______ ____
ROOT
ATOM      1  N   UNL     1      38.516   6.597  16.421  0.00  0.00    +0.000 N 
ATOM      2  C   UNL     1      37.900   7.708  15.981  0.00  0.00    +0.000 A 
ATOM      3  N   UNL     1      37.010   7.339  15.046  0.00  0.00    +0.000 NA
ATOM      4  N   UNL     1      37.051   6.027  14.886  0.00  0.00    +0.000 NA
ATOM      5  C   UNL     1      37.985   5.568  15.740  0.00  0.00    +0.000 A 
ENDROOT
BRANCH   1  10
ATOM      6  C   UNL     1      42.621   6.293  20.428  0.00  0.00    +0.000 C 
ATOM      7  C   UNL     1      41.568   6.378  19.367  0.00  0.00    +0.000 A 
ATOM      8  C   UNL     1      41.883   6.716  18.068  0.00  0.00    +0.000 A 
ATOM      9  C   UNL     1      40.868   6.777  17.139  0.00  0.00    +0.000 A 
ATOM     10  C   UNL     1      39.540   6.521  17.419  0.00  0.00    +0.000 A 
ATOM     11  C   UNL     1      39.250   6.184  18.736  0.00  0.00    +0.000 A 
ATOM     12  C   UNL     1      40.260   6.118  19.684  0.00  0.00    +0.000 A 
ENDBRANCH   1  10
BRANCH   2  13
ATOM     13  C   UNL     1      38.110   9.113  16.406  0.00  0.00    +0.000 C 
BRANCH  13  14
ATOM     14  C   UNL     1      38.113   9.232  17.900  0.00  0.00    +0.000 A 
ATOM     15  C   UNL     1      39.174   9.758  18.584  0.00  0.00    +0.000 A 
ATOM     16  C   UNL     1      39.122   9.842  19.951  0.00  0.00    +0.000 A 
ATOM     17  C   UNL     1      38.023   9.410  20.670  0.00  0.00    +0.000 A 
ATOM     18  C   UNL     1      36.961   8.880  19.943  0.00  0.00    +0.000 A 
ATOM     19  C   UNL     1      37.012   8.795  18.579  0.00  0.00    +0.000 A 
ENDBRANCH  13  14
ENDBRANCH   2  13
BRANCH   5  20
ATOM     20  S   UNL     1      38.488   3.851  15.976  0.00  0.00    +0.000 S 
BRANCH  20  21
ATOM     21  C   UNL     1      38.160   2.901  14.456  0.00  0.00    +0.000 C 
BRANCH  21  22
ATOM     22  C   UNL     1      37.370   1.683  14.774  0.00  0.00    +0.000 C 
ATOM     23  O   UNL     1      36.622   1.212  13.881  0.00  0.00    +0.000 OA
ATOM     24  N   UNL     1      37.422   1.031  16.039  0.00  0.00    +0.000 NA
BRANCH  24  25
ATOM     25  C   UNL     1      36.652  -0.133  16.308  0.00  0.00    +0.000 A 
ATOM     26  C   UNL     1      35.340   0.010  16.752  0.00  0.00    +0.000 A 
ATOM     27  C   UNL     1      34.816   1.391  16.918  0.00  0.00    +0.000 C 
ATOM     28  C   UNL     1      34.614  -1.118  17.008  0.00  0.00    +0.000 A 
ATOM     29  C   UNL     1      35.134  -2.378  16.842  0.00  0.00    +0.000 A 
ATOM     30  C   UNL     1      36.430  -2.523  16.404  0.00  0.00    +0.000 A 
ATOM     31  C   UNL     1      37.200  -1.389  16.133  0.00  0.00    +0.000 A 
ATOM     32  C   UNL     1      38.605  -1.498  15.658  0.00  0.00    +0.000 C 
ENDBRANCH  24  25
ENDBRANCH  21  22
ENDBRANCH  20  21
ENDBRANCH   5  20
TORSDOF 7
ENDMDL
MODEL 8
REMARK VINA RESULT:      -8.0      1.804      2.851
REMARK  Name = 
REMARK  7 active torsions:
REMARK  status: ('A' for Active; 'I' for Inactive)
REMARK    1  A    between atoms: C_5  and  N_6
REMARK    2  A    between atoms: C_7  and  C_8
REMARK    3  A    between atoms: C_8  and  C_9
REMARK    4  A    between atoms: C_17  and  S_18
REMARK    5  A    between atoms: S_18  and  C_19
REMARK    6  A    between atoms: C_19  and  C_20
REMARK    7  A    between atoms: N_22  and  C_23
REMARK                            x       y       z     vdW  Elec       q    Type
REMARK                         _______ _______ _______ _____ _____    ______ ____
ROOT
ATOM      1  N   UNL     1      38.378   4.293  16.160  0.00  0.00    +0.000 N 
ATOM      2  C   UNL     1      38.741   4.696  17.390  0.00  0.00    +0.000 A 
ATOM      3  N   UNL     1      38.078   3.940  18.280  0.00  0.00    +0.000 NA
ATOM      4  N   UNL     1      37.308   3.074  17.642  0.00  0.00    +0.000 NA
ATOM      5  C   UNL     1      37.496   3.293  16.327  0.00  0.00    +0.000 A 
ENDROOT
BRANCH   1  10
ATOM      6  C   UNL     1      40.219   6.423  11.153  0.00  0.00    +0.000 C 
ATOM      7  C   UNL     1      39.758   5.852  12.458  0.00  0.00    +0.000 A 
ATOM      8  C   UNL     1      40.413   4.794  13.050  0.00  0.00    +0.000 A 
ATOM      9  C   UNL     1      39.938   4.314  14.250  0.00  0.00    +0.000 A 
ATOM     10  C   UNL     1      38.838   4.824  14.912  0.00  0.00    +0.000 A 
ATOM     11  C   UNL     1      38.195   5.890  14.293  0.00  0.00    +0.000 A 
ATOM     12  C   UNL     1      38.660   6.384  13.083  0.00  0.00    +0.000 A 
ENDBRANCH   1  10
BRANCH   2  13
ATOM     13  C   UNL     1      39.691   5.767  17.770  0.00  0.00    +0.000 C 
BRANCH  13  14
ATOM     14  C   UNL     1      39.027   6.800  18.630  0.00  0.00    +0.000 A 
ATOM     15  C   UNL     1      37.949   7.521  18.195  0.00  0.00    +0.000 A 
ATOM     16  C   UNL     1      37.381   8.454  19.024  0.00  0.00    +0.000 A 
ATOM     17  C   UNL     1      37.864   8.692  20.298  0.00  0.00    +0.000 A 
ATOM     18  C   UNL     1      38.962   7.941  20.709  0.00  0.00    +0.000 A 
ATOM     19  C   UNL     1      39.529   7.010  19.881  0.00  0.00    +0.000 A 
ENDBRANCH  13  14
ENDBRANCH   2  13
BRANCH   5  20
ATOM     20  S   UNL     1      36.714   2.415  14.958  0.00  0.00    +0.000 S 
BRANCH  20  21
ATOM     21  C   UNL     1      35.433   1.290  15.603  0.00  0.00    +0.000 C 
BRANCH  21  22
ATOM     22  C   UNL     1      36.040  -0.008  15.991  0.00  0.00    +0.000 C 
ATOM     23  O   UNL     1      35.343  -1.047  15.875  0.00  0.00    +0.000 OA
ATOM     24  N   UNL     1      37.370  -0.128  16.488  0.00  0.00    +0.000 NA
BRANCH  24  25
ATOM     25  C   UNL     1      37.918  -1.387  16.851  0.00  0.00    +0.000 A 
ATOM     26  C   UNL     1      38.646  -2.108  15.908  0.00  0.00    +0.000 A 
ATOM     27  C   UNL     1      38.810  -1.506  14.559  0.00  0.00    +0.000 C 
ATOM     28  C   UNL     1      39.165  -3.318  16.274  0.00  0.00    +0.000 A 
ATOM     29  C   UNL     1      38.992  -3.840  17.532  0.00  0.00    +0.000 A 
ATOM     30  C   UNL     1      38.273  -3.130  18.466  0.00  0.00    +0.000 A 
ATOM     31  C   UNL     1      37.728  -1.889  18.125  0.00  0.00    +0.000 A 
ATOM     32  C   UNL     1      36.944  -1.089  19.102  0.00  0.00    +0.000 C 
ENDBRANCH  24  25
ENDBRANCH  21  22
ENDBRANCH  20  21
ENDBRANCH   5  20
TORSDOF 7
ENDMDL
MODEL 9
REMARK VINA RESULT:      -8.0      2.427      7.636
REMARK  Name = 
REMARK  7 active torsions:
REMARK  status: ('A' for Active; 'I' for Inactive)
REMARK    1  A    between atoms: C_5  and  N_6
REMARK    2  A    between atoms: C_7  and  C_8
REMARK    3  A    between atoms: C_8  and  C_9
REMARK    4  A    between atoms: C_17  and  S_18
REMARK    5  A    between atoms: S_18  and  C_19
REMARK    6  A    between atoms: C_19  and  C_20
REMARK    7  A    between atoms: N_22  and  C_23
REMARK                            x       y       z     vdW  Elec       q    Type
REMARK                         _______ _______ _______ _____ _____    ______ ____
ROOT
ATOM      1  N   UNL     1      37.453   0.603  15.162  0.00  0.00    +0.000 N 
ATOM      2  C   UNL     1      36.375   0.318  15.913  0.00  0.00    +0.000 A 
ATOM      3  N   UNL     1      35.846   1.481  16.326  0.00  0.00    +0.000 NA
ATOM      4  N   UNL     1      36.562   2.488  15.856  0.00  0.00    +0.000 NA
ATOM      5  C   UNL     1      37.558   1.943  15.133  0.00  0.00    +0.000 A 
ENDROOT
BRANCH   1  10
ATOM      6  C   UNL     1      40.938  -3.158  12.573  0.00  0.00    +0.000 C 
ATOM      7  C   UNL     1      40.045  -2.176  13.266  0.00  0.00    +0.000 A 
ATOM      8  C   UNL     1      40.380  -1.644  14.492  0.00  0.00    +0.000 A 
ATOM      9  C   UNL     1      39.516  -0.745  15.078  0.00  0.00    +0.000 A 
ATOM     10  C   UNL     1      38.323  -0.334  14.517  0.00  0.00    +0.000 A 
ATOM     11  C   UNL     1      38.009  -0.886  13.280  0.00  0.00    +0.000 A 
ATOM     12  C   UNL     1      38.868  -1.793  12.678  0.00  0.00    +0.000 A 
ENDBRANCH   1  10
BRANCH   2  13
ATOM     13  C   UNL     1      35.815  -1.009  16.261  0.00  0.00    +0.000 C 
BRANCH  13  14
ATOM     14  C   UNL     1      36.815  -1.838  17.010  0.00  0.00    +0.000 A 
ATOM     15  C   UNL     1      37.390  -1.405  18.173  0.00  0.00    +0.000 A 
ATOM     16  C   UNL     1      38.299  -2.204  18.817  0.00  0.00    +0.000 A 
ATOM     17  C   UNL     1      38.658  -3.446  18.326  0.00  0.00    +0.000 A 
ATOM     18  C   UNL     1      38.054  -3.856  17.141  0.00  0.00    +0.000 A 
ATOM     19  C   UNL     1      37.147  -3.058  16.498  0.00  0.00    +0.000 A 
ENDBRANCH  13  14
ENDBRANCH   2  13
BRANCH   5  20
ATOM     20  S   UNL     1      38.859   2.822  14.243  0.00  0.00    +0.000 S 
BRANCH  20  21
ATOM     21  C   UNL     1      38.402   4.576  14.063  0.00  0.00    +0.000 C 
BRANCH  21  22
ATOM     22  C   UNL     1      38.795   5.335  15.278  0.00  0.00    +0.000 C 
ATOM     23  O   UNL     1      38.154   6.378  15.559  0.00  0.00    +0.000 OA
ATOM     24  N   UNL     1      39.862   4.936  16.132  0.00  0.00    +0.000 NA
BRANCH  24  25
ATOM     25  C   UNL     1      40.213   5.687  17.286  0.00  0.00    +0.000 A 
ATOM     26  C   UNL     1      39.477   5.517  18.456  0.00  0.00    +0.000 A 
ATOM     27  C   UNL     1      38.354   4.544  18.427  0.00  0.00    +0.000 C 
ATOM     28  C   UNL     1      39.826   6.248  19.556  0.00  0.00    +0.000 A 
ATOM     29  C   UNL     1      40.872   7.138  19.543  0.00  0.00    +0.000 A 
ATOM     30  C   UNL     1      41.601   7.309  18.389  0.00  0.00    +0.000 A 
ATOM     31  C   UNL     1      41.270   6.576  17.246  0.00  0.00    +0.000 A 
ATOM     32  C   UNL     1      42.030   6.729  15.977  0.00  0.00    +0.000 C 
ENDBRANCH  24  25
ENDBRANCH  21  22
ENDBRANCH  20  21
ENDBRANCH   5  20
TORSDOF 7
ENDMDL
MODEL 10
REMARK VINA RESULT:      -7.9      2.360      4.005
REMARK  Name = 
REMARK  7 active torsions:
REMARK  status: ('A' for Active; 'I' for Inactive)
REMARK    1  A    between atoms: C_5  and  N_6
REMARK    2  A    between atoms: C_7  and  C_8
REMARK    3  A    between atoms: C_8  and  C_9
REMARK    4  A    between atoms: C_17  and  S_18
REMARK    5  A    between atoms: S_18  and  C_19
REMARK    6  A    between atoms: C_19  and  C_20
REMARK    7  A    between atoms: N_22  and  C_23
REMARK                            x       y       z     vdW  Elec       q    Type
REMARK                         _______ _______ _______ _____ _____    ______ ____
ROOT
ATOM      1  N   UNL     1      38.317   5.746  16.653  0.00  0.00    +0.000 N 
ATOM      2  C   UNL     1      38.639   5.659  17.956  0.00  0.00    +0.000 A 
ATOM      3  N   UNL     1      38.468   4.383  18.335  0.00  0.00    +0.000 NA
ATOM      4  N   UNL     1      38.047   3.666  17.307  0.00  0.00    +0.000 NA
ATOM      5  C   UNL     1      37.954   4.512  16.264  0.00  0.00    +0.000 A 
ENDROOT
BRANCH   1  10
ATOM      6  C   UNL     1      38.449  10.462  13.376  0.00  0.00    +0.000 C 
ATOM      7  C   UNL     1      38.437   9.227  14.223  0.00  0.00    +0.000 A 
ATOM      8  C   UNL     1      39.516   8.370  14.257  0.00  0.00    +0.000 A 
ATOM      9  C   UNL     1      39.442   7.251  15.057  0.00  0.00    +0.000 A 
ATOM     10  C   UNL     1      38.351   6.921  15.837  0.00  0.00    +0.000 A 
ATOM     11  C   UNL     1      37.277   7.802  15.783  0.00  0.00    +0.000 A 
ATOM     12  C   UNL     1      37.334   8.933  14.982  0.00  0.00    +0.000 A 
ENDBRANCH   1  10
BRANCH   2  13
ATOM     13  C   UNL     1      39.104   6.731  18.867  0.00  0.00    +0.000 C 
BRANCH  13  14
ATOM     14  C   UNL     1      40.587   6.659  19.074  0.00  0.00    +0.000 A 
ATOM     15  C   UNL     1      41.471   6.776  18.036  0.00  0.00    +0.000 A 
ATOM     16  C   UNL     1      42.817   6.702  18.283  0.00  0.00    +0.000 A 
ATOM     17  C   UNL     1      43.319   6.511  19.557  0.00  0.00    +0.000 A 
ATOM     18  C   UNL     1      42.393   6.395  20.590  0.00  0.00    +0.000 A 
ATOM     19  C   UNL     1      41.048   6.469  20.344  0.00  0.00    +0.000 A 
ENDBRANCH  13  14
ENDBRANCH   2  13
BRANCH   5  20
ATOM     20  S   UNL     1      37.432   4.110  14.584  0.00  0.00    +0.000 S 
BRANCH  20  21
ATOM     21  C   UNL     1      38.159   2.517  14.080  0.00  0.00    +0.000 C 
BRANCH  21  22
ATOM     22  C   UNL     1      37.289   1.395  14.519  0.00  0.00    +0.000 C 
ATOM     23  O   UNL     1      36.451   0.940  13.702  0.00  0.00    +0.000 OA
ATOM     24  N   UNL     1      37.362   0.818  15.819  0.00  0.00    +0.000 NA
BRANCH  24  25
ATOM     25  C   UNL     1      36.514  -0.254  16.206  0.00  0.00    +0.000 A 
ATOM     26  C   UNL     1      35.262   0.032  16.744  0.00  0.00    +0.000 A 
ATOM     27  C   UNL     1      34.882   1.462  16.882  0.00  0.00    +0.000 C 
ATOM     28  C   UNL     1      34.459  -1.010  17.113  0.00  0.00    +0.000 A 
ATOM     29  C   UNL     1      34.846  -2.320  16.970  0.00  0.00    +0.000 A 
ATOM     30  C   UNL     1      36.082  -2.606  16.438  0.00  0.00    +0.000 A 
ATOM     31  C   UNL     1      36.928  -1.563  16.052  0.00  0.00    +0.000 A 
ATOM     32  C   UNL     1      38.273  -1.826  15.473  0.00  0.00    +0.000 C 
ENDBRANCH  24  25
ENDBRANCH  21  22
ENDBRANCH  20  21
ENDBRANCH   5  20
TORSDOF 7
ENDMDL
