MODEL 1
REMARK VINA RESULT:      -8.3      0.000      0.000
REMARK  Name = 
REMARK  6 active torsions:
REMARK  status: ('A' for Active; 'I' for Inactive)
REMARK    1  A    between atoms: C_2  and  O_3
REMARK    2  A    between atoms: C_2  and  C_15
REMARK    3  A    between atoms: O_3  and  C_4
REMARK    4  A    between atoms: N_17  and  C_18
REMARK    5  A    between atoms: C_21  and  O_22
REMARK    6  A    between atoms: O_22  and  C_23
REMARK                            x       y       z     vdW  Elec       q    Type
REMARK                         _______ _______ _______ _____ _____    ______ ____
ROOT
ATOM      1  C   UNL     1      38.681   1.001  14.361  0.00  0.00    +0.000 C 
ATOM      2  O   UNL     1      39.706   0.809  14.989  0.00  0.00    +0.000 OA
ATOM      3  N   UNL     1      37.992   2.211  14.414  0.00  0.00    +0.000 NA
ENDROOT
BRANCH   3   4
ATOM      4  C   UNL     1      38.420   3.340  15.210  0.00  0.00    +0.000 A 
ATOM      5  C   UNL     1      39.377   4.205  14.736  0.00  0.00    +0.000 A 
ATOM      6  C   UNL     1      39.798   5.296  15.494  0.00  0.00    +0.000 A 
ATOM      7  C   UNL     1      39.269   5.545  16.750  0.00  0.00    +0.000 A 
ATOM      8  C   UNL     1      38.313   4.657  17.193  0.00  0.00    +0.000 A 
ATOM      9  C   UNL     1      37.887   3.576  16.456  0.00  0.00    +0.000 A 
BRANCH   7  10
ATOM     10  O   UNL     1      39.661   6.618  17.536  0.00  0.00    +0.000 OA
BRANCH  10  11
ATOM     11  C   UNL     1      40.712   6.571  18.427  0.00  0.00    +0.000 A 
ATOM     12  C   UNL     1      41.987   6.806  17.961  0.00  0.00    +0.000 A 
ATOM     13  C   UNL     1      43.096   6.781  18.771  0.00  0.00    +0.000 A 
ATOM     14  C   UNL     1      42.957   6.513  20.103  0.00  0.00    +0.000 A 
ATOM     15  C   UNL     1      41.703   6.277  20.585  0.00  0.00    +0.000 A 
ATOM     16  C   UNL     1      40.605   6.305  19.771  0.00  0.00    +0.000 A 
ENDBRANCH  10  11
ENDBRANCH   7  10
ENDBRANCH   3   4
BRANCH   1  18
ATOM     17  C   UNL     1      39.478  -0.505  12.670  0.00  0.00    +0.000 C 
ATOM     18  C   UNL     1      38.045  -0.115  13.426  0.00  0.00    +0.000 C 
BRANCH  18  19
ATOM     19  O   UNL     1      38.106  -1.322  14.380  0.00  0.00    +0.000 OA
BRANCH  19  20
ATOM     20  C   UNL     1      37.034  -1.791  14.989  0.00  0.00    +0.000 A 
ATOM     21  C   UNL     1      36.375  -2.865  14.445  0.00  0.00    +0.000 A 
ATOM     22  C   UNL     1      35.258  -3.431  14.988  0.00  0.00    +0.000 A 
ATOM     23  C   UNL     1      34.762  -2.907  16.137  0.00  0.00    +0.000 A 
ATOM     24  C   UNL     1      35.367  -1.839  16.733  0.00  0.00    +0.000 A 
ATOM     25  C   UNL     1      36.507  -1.281  16.155  0.00  0.00    +0.000 A 
ATOM     26  O   UNL     1      36.851  -0.239  16.999  0.00  0.00    +0.000 OA
ATOM     27  C   UNL     1      35.756   0.183  17.795  0.00  0.00    +0.000 C 
ATOM     28  C   UNL     1      34.976   1.168  16.929  0.00  0.00    +0.000 C 
ATOM     29  C   UNL     1      36.197   0.796  19.082  0.00  0.00    +0.000 C 
ATOM     30  C   UNL     1      35.005  -1.112  17.970  0.00  0.00    +0.000 C 
ENDBRANCH  19  20
ENDBRANCH  18  19
ENDBRANCH   1  18
TORSDOF 6
ENDMDL
MODEL 2
REMARK VINA RESULT:      -8.0      1.677      3.367
REMARK  Name = 
REMARK  6 active torsions:
REMARK  status: ('A' for Active; 'I' for Inactive)
REMARK    1  A    between atoms: C_2  and  O_3
REMARK    2  A    between atoms: C_2  and  C_15
REMARK    3  A    between atoms: O_3  and  C_4
REMARK    4  A    between atoms: N_17  and  C_18
REMARK    5  A    between atoms: C_21  and  O_22
REMARK    6  A    between atoms: O_22  and  C_23
REMARK                            x       y       z     vdW  Elec       q    Type
REMARK                         _______ _______ _______ _____ _____    ______ ____
ROOT
ATOM      1  C   UNL     1      36.849   3.913  15.528  0.00  0.00    +0.000 C 
ATOM      2  O   UNL     1      36.700   5.055  15.136  0.00  0.00    +0.000 OA
ATOM      3  N   UNL     1      37.818   3.568  16.468  0.00  0.00    +0.000 NA
ENDROOT
BRANCH   3   4
ATOM      4  C   UNL     1      38.730   4.522  17.060  0.00  0.00    +0.000 A 
ATOM      5  C   UNL     1      39.687   5.142  16.293  0.00  0.00    +0.000 A 
ATOM      6  C   UNL     1      40.571   6.063  16.852  0.00  0.00    +0.000 A 
ATOM      7  C   UNL     1      40.516   6.385  18.199  0.00  0.00    +0.000 A 
ATOM      8  C   UNL     1      39.544   5.744  18.936  0.00  0.00    +0.000 A 
ATOM      9  C   UNL     1      38.664   4.833  18.399  0.00  0.00    +0.000 A 
BRANCH   7  10
ATOM     10  O   UNL     1      41.375   7.295  18.794  0.00  0.00    +0.000 OA
BRANCH  10  11
ATOM     11  C   UNL     1      42.547   6.939  19.429  0.00  0.00    +0.000 A 
ATOM     12  C   UNL     1      42.483   6.447  20.713  0.00  0.00    +0.000 A 
ATOM     13  C   UNL     1      43.594   6.067  21.425  0.00  0.00    +0.000 A 
ATOM     14  C   UNL     1      44.831   6.171  20.857  0.00  0.00    +0.000 A 
ATOM     15  C   UNL     1      44.918   6.656  19.585  0.00  0.00    +0.000 A 
ATOM     16  C   UNL     1      43.806   7.032  18.884  0.00  0.00    +0.000 A 
ENDBRANCH  10  11
ENDBRANCH   7  10
ENDBRANCH   3   4
BRANCH   1  18
ATOM     17  C   UNL     1      36.722   2.591  13.527  0.00  0.00    +0.000 C 
ATOM     18  C   UNL     1      35.947   2.716  14.997  0.00  0.00    +0.000 C 
BRANCH  18  19
ATOM     19  O   UNL     1      36.706   1.525  15.610  0.00  0.00    +0.000 OA
BRANCH  19  20
ATOM     20  C   UNL     1      36.101   0.396  15.929  0.00  0.00    +0.000 A 
ATOM     21  C   UNL     1      35.094   0.419  16.860  0.00  0.00    +0.000 A 
ATOM     22  C   UNL     1      34.403  -0.686  17.266  0.00  0.00    +0.000 A 
ATOM     23  C   UNL     1      34.725  -1.885  16.719  0.00  0.00    +0.000 A 
ATOM     24  C   UNL     1      35.717  -1.982  15.788  0.00  0.00    +0.000 A 
ATOM     25  C   UNL     1      36.406  -0.836  15.393  0.00  0.00    +0.000 A 
ATOM     26  O   UNL     1      37.323  -1.286  14.458  0.00  0.00    +0.000 OA
ATOM     27  C   UNL     1      37.570  -2.676  14.584  0.00  0.00    +0.000 C 
ATOM     28  C   UNL     1      38.639  -2.806  15.665  0.00  0.00    +0.000 C 
ATOM     29  C   UNL     1      38.001  -3.292  13.295  0.00  0.00    +0.000 C 
ATOM     30  C   UNL     1      36.232  -3.169  15.070  0.00  0.00    +0.000 C 
ENDBRANCH  19  20
ENDBRANCH  18  19
ENDBRANCH   1  18
TORSDOF 6
ENDMDL
MODEL 3
REMARK VINA RESULT:      -8.0      1.353      1.954
REMARK  Name = 
REMARK  6 active torsions:
REMARK  status: ('A' for Active; 'I' for Inactive)
REMARK    1  A    between atoms: C_2  and  O_3
REMARK    2  A    between atoms: C_2  and  C_15
REMARK    3  A    between atoms: O_3  and  C_4
REMARK    4  A    between atoms: N_17  and  C_18
REMARK    5  A    between atoms: C_21  and  O_22
REMARK    6  A    between atoms: O_22  and  C_23
REMARK                            x       y       z     vdW  Elec       q    Type
REMARK                         _______ _______ _______ _____ _____    ______ ____
ROOT
ATOM      1  C   UNL     1      38.241   2.415  15.051  0.00  0.00    +0.000 C 
ATOM      2  O   UNL     1      39.431   2.163  15.083  0.00  0.00    +0.000 OA
ATOM      3  N   UNL     1      37.694   3.512  15.713  0.00  0.00    +0.000 NA
ENDROOT
BRANCH   3   4
ATOM      4  C   UNL     1      38.477   4.445  16.493  0.00  0.00    +0.000 A 
ATOM      5  C   UNL     1      39.382   5.280  15.880  0.00  0.00    +0.000 A 
ATOM      6  C   UNL     1      40.142   6.183  16.621  0.00  0.00    +0.000 A 
ATOM      7  C   UNL     1      40.013   6.270  17.998  0.00  0.00    +0.000 A 
ATOM      8  C   UNL     1      39.098   5.419  18.577  0.00  0.00    +0.000 A 
ATOM      9  C   UNL     1      38.340   4.522  17.860  0.00  0.00    +0.000 A 
BRANCH   7  10
ATOM     10  O   UNL     1      40.750   7.154  18.771  0.00  0.00    +0.000 OA
BRANCH  10  11
ATOM     11  C   UNL     1      41.977   6.849  19.323  0.00  0.00    +0.000 A 
ATOM     12  C   UNL     1      42.021   6.341  20.602  0.00  0.00    +0.000 A 
ATOM     13  C   UNL     1      43.194   6.008  21.235  0.00  0.00    +0.000 A 
ATOM     14  C   UNL     1      44.385   6.179  20.589  0.00  0.00    +0.000 A 
ATOM     15  C   UNL     1      44.364   6.681  19.321  0.00  0.00    +0.000 A 
ATOM     16  C   UNL     1      43.192   7.010  18.700  0.00  0.00    +0.000 A 
ENDBRANCH  10  11
ENDBRANCH   7  10
ENDBRANCH   3   4
BRANCH   1  18
ATOM     17  C   UNL     1      37.572   2.165  12.759  0.00  0.00    +0.000 C 
ATOM     18  C   UNL     1      37.210   1.510  14.248  0.00  0.00    +0.000 C 
BRANCH  18  19
ATOM     19  O   UNL     1      38.081   0.261  14.019  0.00  0.00    +0.000 OA
BRANCH  19  20
ATOM     20  C   UNL     1      37.714  -0.937  14.433  0.00  0.00    +0.000 A 
ATOM     21  C   UNL     1      37.768  -1.990  13.555  0.00  0.00    +0.000 A 
ATOM     22  C   UNL     1      37.412  -3.269  13.873  0.00  0.00    +0.000 A 
ATOM     23  C   UNL     1      36.979  -3.524  15.133  0.00  0.00    +0.000 A 
ATOM     24  C   UNL     1      36.900  -2.524  16.058  0.00  0.00    +0.000 A 
ATOM     25  C   UNL     1      37.270  -1.226  15.704  0.00  0.00    +0.000 A 
ATOM     26  O   UNL     1      37.070  -0.482  16.854  0.00  0.00    +0.000 OA
ATOM     27  C   UNL     1      36.173  -1.117  17.748  0.00  0.00    +0.000 C 
ATOM     28  C   UNL     1      34.776  -0.724  17.275  0.00  0.00    +0.000 C 
ATOM     29  C   UNL     1      36.414  -0.721  19.166  0.00  0.00    +0.000 C 
ATOM     30  C   UNL     1      36.460  -2.570  17.470  0.00  0.00    +0.000 C 
ENDBRANCH  19  20
ENDBRANCH  18  19
ENDBRANCH   1  18
TORSDOF 6
ENDMDL
MODEL 4
REMARK VINA RESULT:      -7.9     25.971     28.876
REMARK  Name = 
REMARK  6 active torsions:
REMARK  status: ('A' for Active; 'I' for Inactive)
REMARK    1  A    between atoms: C_2  and  O_3
REMARK    2  A    between atoms: C_2  and  C_15
REMARK    3  A    between atoms: O_3  and  C_4
REMARK    4  A    between atoms: N_17  and  C_18
REMARK    5  A    between atoms: C_21  and  O_22
REMARK    6  A    between atoms: O_22  and  C_23
REMARK                            x       y       z     vdW  Elec       q    Type
REMARK                         _______ _______ _______ _____ _____    ______ ____
ROOT
ATOM      1  C   UNL     1      25.525  13.733  42.096  0.00  0.00    +0.000 C 
ATOM      2  O   UNL     1      25.333  14.904  42.365  0.00  0.00    +0.000 OA
ATOM      3  N   UNL     1      25.735  13.292  40.791  0.00  0.00    +0.000 NA
ENDROOT
BRANCH   3   4
ATOM      4  C   UNL     1      25.745  14.174  39.644  0.00  0.00    +0.000 A 
ATOM      5  C   UNL     1      26.933  14.643  39.135  0.00  0.00    +0.000 A 
ATOM      6  C   UNL     1      26.954  15.492  38.030  0.00  0.00    +0.000 A 
ATOM      7  C   UNL     1      25.782  15.893  37.408  0.00  0.00    +0.000 A 
ATOM      8  C   UNL     1      24.613  15.403  37.946  0.00  0.00    +0.000 A 
ATOM      9  C   UNL     1      24.574  14.564  39.036  0.00  0.00    +0.000 A 
BRANCH   7  10
ATOM     10  O   UNL     1      25.761  16.736  36.308  0.00  0.00    +0.000 OA
BRANCH  10  11
ATOM     11  C   UNL     1      25.526  16.306  35.019  0.00  0.00    +0.000 A 
ATOM     12  C   UNL     1      25.828  15.003  34.689  0.00  0.00    +0.000 A 
ATOM     13  C   UNL     1      25.629  14.485  33.432  0.00  0.00    +0.000 A 
ATOM     14  C   UNL     1      25.111  15.275  32.447  0.00  0.00    +0.000 A 
ATOM     15  C   UNL     1      24.805  16.569  32.752  0.00  0.00    +0.000 A 
ATOM     16  C   UNL     1      25.006  17.076  34.006  0.00  0.00    +0.000 A 
ENDBRANCH  10  11
ENDBRANCH   7  10
ENDBRANCH   3   4
BRANCH   1  18
ATOM     17  C   UNL     1      23.967  12.830  43.685  0.00  0.00    +0.000 C 
ATOM     18  C   UNL     1      25.551  12.606  43.217  0.00  0.00    +0.000 C 
BRANCH  18  19
ATOM     19  O   UNL     1      25.225  11.373  42.355  0.00  0.00    +0.000 OA
BRANCH  19  20
ATOM     20  C   UNL     1      25.916  10.251  42.442  0.00  0.00    +0.000 A 
ATOM     21  C   UNL     1      25.353   9.169  43.070  0.00  0.00    +0.000 A 
ATOM     22  C   UNL     1      25.976   7.963  43.219  0.00  0.00    +0.000 A 
ATOM     23  C   UNL     1      27.227   7.817  42.716  0.00  0.00    +0.000 A 
ATOM     24  C   UNL     1      27.847   8.852  42.079  0.00  0.00    +0.000 A 
ATOM     25  C   UNL     1      27.187  10.072  41.943  0.00  0.00    +0.000 A 
ATOM     26  O   UNL     1      28.084  10.879  41.264  0.00  0.00    +0.000 OA
ATOM     27  C   UNL     1      29.415  10.406  41.378  0.00  0.00    +0.000 C 
ATOM     28  C   UNL     1      29.938  10.968  42.697  0.00  0.00    +0.000 C 
ATOM     29  C   UNL     1      30.262  10.817  40.221  0.00  0.00    +0.000 C 
ATOM     30  C   UNL     1      29.191   8.918  41.463  0.00  0.00    +0.000 C 
ENDBRANCH  19  20
ENDBRANCH  18  19
ENDBRANCH   1  18
TORSDOF 6
ENDMDL
MODEL 5
REMARK VINA RESULT:      -7.7      2.153      2.890
REMARK  Name = 
REMARK  6 active torsions:
REMARK  status: ('A' for Active; 'I' for Inactive)
REMARK    1  A    between atoms: C_2  and  O_3
REMARK    2  A    between atoms: C_2  and  C_15
REMARK    3  A    between atoms: O_3  and  C_4
REMARK    4  A    between atoms: N_17  and  C_18
REMARK    5  A    between atoms: C_21  and  O_22
REMARK    6  A    between atoms: O_22  and  C_23
REMARK                            x       y       z     vdW  Elec       q    Type
REMARK                         _______ _______ _______ _____ _____    ______ ____
ROOT
ATOM      1  C   UNL     1      37.391   1.824  14.282  0.00  0.00    +0.000 C 
ATOM      2  O   UNL     1      36.682   2.669  13.767  0.00  0.00    +0.000 OA
ATOM      3  N   UNL     1      38.355   2.142  15.237  0.00  0.00    +0.000 NA
ENDROOT
BRANCH   3   4
ATOM      4  C   UNL     1      38.604   3.489  15.700  0.00  0.00    +0.000 A 
ATOM      5  C   UNL     1      37.960   3.974  16.814  0.00  0.00    +0.000 A 
ATOM      6  C   UNL     1      38.193   5.270  17.271  0.00  0.00    +0.000 A 
ATOM      7  C   UNL     1      39.078   6.114  16.619  0.00  0.00    +0.000 A 
ATOM      8  C   UNL     1      39.704   5.594  15.507  0.00  0.00    +0.000 A 
ATOM      9  C   UNL     1      39.485   4.317  15.044  0.00  0.00    +0.000 A 
BRANCH   7  10
ATOM     10  O   UNL     1      39.337   7.409  17.040  0.00  0.00    +0.000 OA
BRANCH  10  11
ATOM     11  C   UNL     1      38.812   7.959  18.191  0.00  0.00    +0.000 A 
ATOM     12  C   UNL     1      39.410   7.668  19.397  0.00  0.00    +0.000 A 
ATOM     13  C   UNL     1      38.960   8.169  20.594  0.00  0.00    +0.000 A 
ATOM     14  C   UNL     1      37.872   8.993  20.619  0.00  0.00    +0.000 A 
ATOM     15  C   UNL     1      37.264   9.294  19.435  0.00  0.00    +0.000 A 
ATOM     16  C   UNL     1      37.719   8.792  18.248  0.00  0.00    +0.000 A 
ENDBRANCH  10  11
ENDBRANCH   7  10
ENDBRANCH   3   4
BRANCH   1  18
ATOM     17  C   UNL     1      37.814   0.475  12.342  0.00  0.00    +0.000 C 
ATOM     18  C   UNL     1      37.273   0.284  13.907  0.00  0.00    +0.000 C 
BRANCH  18  19
ATOM     19  O   UNL     1      38.636  -0.215  14.421  0.00  0.00    +0.000 OA
BRANCH  19  20
ATOM     20  C   UNL     1      38.739  -1.178  15.317  0.00  0.00    +0.000 A 
ATOM     21  C   UNL     1      39.595  -2.223  15.076  0.00  0.00    +0.000 A 
ATOM     22  C   UNL     1      39.780  -3.272  15.931  0.00  0.00    +0.000 A 
ATOM     23  C   UNL     1      39.080  -3.289  17.093  0.00  0.00    +0.000 A 
ATOM     24  C   UNL     1      38.211  -2.282  17.397  0.00  0.00    +0.000 A 
ATOM     25  C   UNL     1      38.042  -1.224  16.504  0.00  0.00    +0.000 A 
ATOM     26  O   UNL     1      37.110  -0.401  17.113  0.00  0.00    +0.000 OA
ATOM     27  C   UNL     1      36.347  -1.092  18.087  0.00  0.00    +0.000 C 
ATOM     28  C   UNL     1      35.217  -1.770  17.317  0.00  0.00    +0.000 C 
ATOM     29  C   UNL     1      35.831  -0.182  19.151  0.00  0.00    +0.000 C 
ATOM     30  C   UNL     1      37.352  -2.097  18.588  0.00  0.00    +0.000 C 
ENDBRANCH  19  20
ENDBRANCH  18  19
ENDBRANCH   1  18
TORSDOF 6
ENDMDL
MODEL 6
REMARK VINA RESULT:      -7.3      2.685      3.722
REMARK  Name = 
REMARK  6 active torsions:
REMARK  status: ('A' for Active; 'I' for Inactive)
REMARK    1  A    between atoms: C_2  and  O_3
REMARK    2  A    between atoms: C_2  and  C_15
REMARK    3  A    between atoms: O_3  and  C_4
REMARK    4  A    between atoms: N_17  and  C_18
REMARK    5  A    between atoms: C_21  and  O_22
REMARK    6  A    between atoms: O_22  and  C_23
REMARK                            x       y       z     vdW  Elec       q    Type
REMARK                         _______ _______ _______ _____ _____    ______ ____
ROOT
ATOM      1  C   UNL     1      38.330   3.593  15.458  0.00  0.00    +0.000 C 
ATOM      2  O   UNL     1      39.468   3.788  15.077  0.00  0.00    +0.000 OA
ATOM      3  N   UNL     1      37.770   4.292  16.525  0.00  0.00    +0.000 NA
ENDROOT
BRANCH   3   4
ATOM      4  C   UNL     1      38.481   5.305  17.275  0.00  0.00    +0.000 A 
ATOM      5  C   UNL     1      39.049   5.003  18.491  0.00  0.00    +0.000 A 
ATOM      6  C   UNL     1      39.736   5.970  19.222  0.00  0.00    +0.000 A 
ATOM      7  C   UNL     1      39.871   7.266  18.751  0.00  0.00    +0.000 A 
ATOM      8  C   UNL     1      39.289   7.532  17.531  0.00  0.00    +0.000 A 
ATOM      9  C   UNL     1      38.608   6.588  16.797  0.00  0.00    +0.000 A 
BRANCH   7  10
ATOM     10  O   UNL     1      40.546   8.257  19.447  0.00  0.00    +0.000 OA
BRANCH  10  11
ATOM     11  C   UNL     1      39.957   9.428  19.875  0.00  0.00    +0.000 A 
ATOM     12  C   UNL     1      40.373  10.620  19.323  0.00  0.00    +0.000 A 
ATOM     13  C   UNL     1      39.846  11.836  19.686  0.00  0.00    +0.000 A 
ATOM     14  C   UNL     1      38.866  11.895  20.634  0.00  0.00    +0.000 A 
ATOM     15  C   UNL     1      38.439  10.726  21.194  0.00  0.00    +0.000 A 
ATOM     16  C   UNL     1      38.969   9.520  20.827  0.00  0.00    +0.000 A 
ENDBRANCH  10  11
ENDBRANCH   7  10
ENDBRANCH   3   4
BRANCH   1  18
ATOM     17  C   UNL     1      38.470   2.120  13.567  0.00  0.00    +0.000 C 
ATOM     18  C   UNL     1      37.383   2.520  14.766  0.00  0.00    +0.000 C 
BRANCH  18  19
ATOM     19  O   UNL     1      37.720   1.284  15.619  0.00  0.00    +0.000 OA
BRANCH  19  20
ATOM     20  C   UNL     1      36.784   0.520  16.151  0.00  0.00    +0.000 A 
ATOM     21  C   UNL     1      35.547   1.058  16.401  0.00  0.00    +0.000 A 
ATOM     22  C   UNL     1      34.508   0.363  16.948  0.00  0.00    +0.000 A 
ATOM     23  C   UNL     1      34.701  -0.942  17.267  0.00  0.00    +0.000 A 
ATOM     24  C   UNL     1      35.906  -1.541  17.047  0.00  0.00    +0.000 A 
ATOM     25  C   UNL     1      36.950  -0.806  16.487  0.00  0.00    +0.000 A 
ATOM     26  O   UNL     1      38.002  -1.702  16.404  0.00  0.00    +0.000 OA
ATOM     27  C   UNL     1      37.838  -2.795  17.291  0.00  0.00    +0.000 C 
ATOM     28  C   UNL     1      38.377  -2.317  18.637  0.00  0.00    +0.000 C 
ATOM     29  C   UNL     1      38.541  -4.021  16.812  0.00  0.00    +0.000 C 
ATOM     30  C   UNL     1      36.338  -2.931  17.315  0.00  0.00    +0.000 C 
ENDBRANCH  19  20
ENDBRANCH  18  19
ENDBRANCH   1  18
TORSDOF 6
ENDMDL
MODEL 7
REMARK VINA RESULT:      -7.2     27.235     30.102
REMARK  Name = 
REMARK  6 active torsions:
REMARK  status: ('A' for Active; 'I' for Inactive)
REMARK    1  A    between atoms: C_2  and  O_3
REMARK    2  A    between atoms: C_2  and  C_15
REMARK    3  A    between atoms: O_3  and  C_4
REMARK    4  A    between atoms: N_17  and  C_18
REMARK    5  A    between atoms: C_21  and  O_22
REMARK    6  A    between atoms: O_22  and  C_23
REMARK                            x       y       z     vdW  Elec       q    Type
REMARK                         _______ _______ _______ _____ _____    ______ ____
ROOT
ATOM      1  C   UNL     1      24.077  15.332  42.055  0.00  0.00    +0.000 C 
ATOM      2  O   UNL     1      24.239  16.529  41.905  0.00  0.00    +0.000 OA
ATOM      3  N   UNL     1      24.462  14.402  41.092  0.00  0.00    +0.000 NA
ENDROOT
BRANCH   3   4
ATOM      4  C   UNL     1      25.083  14.764  39.836  0.00  0.00    +0.000 A 
ATOM      5  C   UNL     1      26.450  14.714  39.694  0.00  0.00    +0.000 A 
ATOM      6  C   UNL     1      27.059  15.060  38.489  0.00  0.00    +0.000 A 
ATOM      7  C   UNL     1      26.311  15.467  37.396  0.00  0.00    +0.000 A 
ATOM      8  C   UNL     1      24.946  15.504  37.576  0.00  0.00    +0.000 A 
ATOM      9  C   UNL     1      24.329  15.166  38.758  0.00  0.00    +0.000 A 
BRANCH   7  10
ATOM     10  O   UNL     1      26.878  15.820  36.181  0.00  0.00    +0.000 OA
BRANCH  10  11
ATOM     11  C   UNL     1      26.200  15.784  34.981  0.00  0.00    +0.000 A 
ATOM     12  C   UNL     1      26.101  14.585  34.310  0.00  0.00    +0.000 A 
ATOM     13  C   UNL     1      25.446  14.451  33.110  0.00  0.00    +0.000 A 
ATOM     14  C   UNL     1      24.858  15.540  32.534  0.00  0.00    +0.000 A 
ATOM     15  C   UNL     1      24.944  16.737  33.181  0.00  0.00    +0.000 A 
ATOM     16  C   UNL     1      25.598  16.861  34.375  0.00  0.00    +0.000 A 
ENDBRANCH  10  11
ENDBRANCH   7  10
ENDBRANCH   3   4
BRANCH   1  18
ATOM     17  C   UNL     1      21.843  15.019  42.877  0.00  0.00    +0.000 C 
ATOM     18  C   UNL     1      23.411  14.731  43.366  0.00  0.00    +0.000 C 
BRANCH  18  19
ATOM     19  O   UNL     1      23.362  13.242  42.977  0.00  0.00    +0.000 OA
BRANCH  19  20
ATOM     20  C   UNL     1      23.970  12.310  43.686  0.00  0.00    +0.000 A 
ATOM     21  C   UNL     1      23.610  12.129  44.997  0.00  0.00    +0.000 A 
ATOM     22  C   UNL     1      24.171  11.198  45.823  0.00  0.00    +0.000 A 
ATOM     23  C   UNL     1      25.146  10.397  45.323  0.00  0.00    +0.000 A 
ATOM     24  C   UNL     1      25.553  10.521  44.027  0.00  0.00    +0.000 A 
ATOM     25  C   UNL     1      24.962  11.482  43.207  0.00  0.00    +0.000 A 
ATOM     26  O   UNL     1      25.599  11.338  41.987  0.00  0.00    +0.000 OA
ATOM     27  C   UNL     1      26.851  10.686  42.116  0.00  0.00    +0.000 C 
ATOM     28  C   UNL     1      27.848  11.781  42.485  0.00  0.00    +0.000 C 
ATOM     29  C   UNL     1      27.245   9.969  40.868  0.00  0.00    +0.000 C 
ATOM     30  C   UNL     1      26.585   9.768  43.281  0.00  0.00    +0.000 C 
ENDBRANCH  19  20
ENDBRANCH  18  19
ENDBRANCH   1  18
TORSDOF 6
ENDMDL
MODEL 8
REMARK VINA RESULT:      -7.2      2.143      2.761
REMARK  Name = 
REMARK  6 active torsions:
REMARK  status: ('A' for Active; 'I' for Inactive)
REMARK    1  A    between atoms: C_2  and  O_3
REMARK    2  A    between atoms: C_2  and  C_15
REMARK    3  A    between atoms: O_3  and  C_4
REMARK    4  A    between atoms: N_17  and  C_18
REMARK    5  A    between atoms: C_21  and  O_22
REMARK    6  A    between atoms: O_22  and  C_23
REMARK                            x       y       z     vdW  Elec       q    Type
REMARK                         _______ _______ _______ _____ _____    ______ ____
ROOT
ATOM      1  C   UNL     1      38.173   2.778  15.064  0.00  0.00    +0.000 C 
ATOM      2  O   UNL     1      39.366   2.790  14.825  0.00  0.00    +0.000 OA
ATOM      3  N   UNL     1      37.585   3.659  15.969  0.00  0.00    +0.000 NA
ENDROOT
BRANCH   3   4
ATOM      4  C   UNL     1      38.326   4.660  16.704  0.00  0.00    +0.000 A 
ATOM      5  C   UNL     1      38.581   4.494  18.045  0.00  0.00    +0.000 A 
ATOM      6  C   UNL     1      39.295   5.451  18.764  0.00  0.00    +0.000 A 
ATOM      7  C   UNL     1      39.770   6.601  18.154  0.00  0.00    +0.000 A 
ATOM      8  C   UNL     1      39.495   6.734  16.810  0.00  0.00    +0.000 A 
ATOM      9  C   UNL     1      38.793   5.798  16.087  0.00  0.00    +0.000 A 
BRANCH   7  10
ATOM     10  O   UNL     1      40.483   7.577  18.833  0.00  0.00    +0.000 OA
BRANCH  10  11
ATOM     11  C   UNL     1      39.894   8.621  19.516  0.00  0.00    +0.000 A 
ATOM     12  C   UNL     1      40.443   9.879  19.407  0.00  0.00    +0.000 A 
ATOM     13  C   UNL     1      39.926  10.978  20.049  0.00  0.00    +0.000 A 
ATOM     14  C   UNL     1      38.819  10.845  20.837  0.00  0.00    +0.000 A 
ATOM     15  C   UNL     1      38.260   9.608  20.959  0.00  0.00    +0.000 A 
ATOM     16  C   UNL     1      38.780   8.519  20.316  0.00  0.00    +0.000 A 
ENDBRANCH  10  11
ENDBRANCH   7  10
ENDBRANCH   3   4
BRANCH   1  18
ATOM     17  C   UNL     1      37.511   2.278  12.811  0.00  0.00    +0.000 C 
ATOM     18  C   UNL     1      37.185   1.752  14.359  0.00  0.00    +0.000 C 
BRANCH  18  19
ATOM     19  O   UNL     1      38.113   0.530  14.244  0.00  0.00    +0.000 OA
BRANCH  19  20
ATOM     20  C   UNL     1      37.712  -0.689  14.551  0.00  0.00    +0.000 A 
ATOM     21  C   UNL     1      37.787  -1.675  13.600  0.00  0.00    +0.000 A 
ATOM     22  C   UNL     1      37.399  -2.967  13.806  0.00  0.00    +0.000 A 
ATOM     23  C   UNL     1      36.909  -3.307  15.025  0.00  0.00    +0.000 A 
ATOM     24  C   UNL     1      36.807  -2.378  16.018  0.00  0.00    +0.000 A 
ATOM     25  C   UNL     1      37.210  -1.065  15.778  0.00  0.00    +0.000 A 
ATOM     26  O   UNL     1      36.973  -0.404  16.971  0.00  0.00    +0.000 OA
ATOM     27  C   UNL     1      36.030  -1.088  17.778  0.00  0.00    +0.000 C 
ATOM     28  C   UNL     1      34.660  -0.636  17.279  0.00  0.00    +0.000 C 
ATOM     29  C   UNL     1      36.217  -0.803  19.231  0.00  0.00    +0.000 C 
ATOM     30  C   UNL     1      36.307  -2.521  17.404  0.00  0.00    +0.000 C 
ENDBRANCH  19  20
ENDBRANCH  18  19
ENDBRANCH   1  18
TORSDOF 6
ENDMDL
MODEL 9
REMARK VINA RESULT:      -7.2     26.900     29.622
REMARK  Name = 
REMARK  6 active torsions:
REMARK  status: ('A' for Active; 'I' for Inactive)
REMARK    1  A    between atoms: C_2  and  O_3
REMARK    2  A    between atoms: C_2  and  C_15
REMARK    3  A    between atoms: O_3  and  C_4
REMARK    4  A    between atoms: N_17  and  C_18
REMARK    5  A    between atoms: C_21  and  O_22
REMARK    6  A    between atoms: O_22  and  C_23
REMARK                            x       y       z     vdW  Elec       q    Type
REMARK                         _______ _______ _______ _____ _____    ______ ____
ROOT
ATOM      1  C   UNL     1      25.855  12.872  41.475  0.00  0.00    +0.000 C 
ATOM      2  O   UNL     1      26.475  12.265  40.623  0.00  0.00    +0.000 OA
ATOM      3  N   UNL     1      25.301  14.129  41.241  0.00  0.00    +0.000 NA
ENDROOT
BRANCH   3   4
ATOM      4  C   UNL     1      25.410  14.826  39.978  0.00  0.00    +0.000 A 
ATOM      5  C   UNL     1      26.616  15.344  39.570  0.00  0.00    +0.000 A 
ATOM      6  C   UNL     1      26.734  16.017  38.355  0.00  0.00    +0.000 A 
ATOM      7  C   UNL     1      25.642  16.188  37.519  0.00  0.00    +0.000 A 
ATOM      8  C   UNL     1      24.450  15.655  37.962  0.00  0.00    +0.000 A 
ATOM      9  C   UNL     1      24.318  14.988  39.158  0.00  0.00    +0.000 A 
BRANCH   7  10
ATOM     10  O   UNL     1      25.716  16.851  36.304  0.00  0.00    +0.000 OA
BRANCH  10  11
ATOM     11  C   UNL     1      25.559  16.230  35.082  0.00  0.00    +0.000 A 
ATOM     12  C   UNL     1      25.978  14.925  34.943  0.00  0.00    +0.000 A 
ATOM     13  C   UNL     1      25.864  14.225  33.767  0.00  0.00    +0.000 A 
ATOM     14  C   UNL     1      25.315  14.825  32.671  0.00  0.00    +0.000 A 
ATOM     15  C   UNL     1      24.893  16.117  32.787  0.00  0.00    +0.000 A 
ATOM     16  C   UNL     1      25.011  16.806  33.962  0.00  0.00    +0.000 A 
ENDBRANCH  10  11
ENDBRANCH   7  10
ENDBRANCH   3   4
BRANCH   1  18
ATOM     17  C   UNL     1      24.455  13.386  43.356  0.00  0.00    +0.000 C 
ATOM     18  C   UNL     1      25.624  12.277  42.931  0.00  0.00    +0.000 C 
BRANCH  18  19
ATOM     19  O   UNL     1      24.599  11.176  42.604  0.00  0.00    +0.000 OA
BRANCH  19  20
ATOM     20  C   UNL     1      24.463  10.098  43.353  0.00  0.00    +0.000 A 
ATOM     21  C   UNL     1      23.265   9.868  43.980  0.00  0.00    +0.000 A 
ATOM     22  C   UNL     1      23.013   8.789  44.777  0.00  0.00    +0.000 A 
ATOM     23  C   UNL     1      24.004   7.881  44.966  0.00  0.00    +0.000 A 
ATOM     24  C   UNL     1      25.222   8.047  44.373  0.00  0.00    +0.000 A 
ATOM     25  C   UNL     1      25.450   9.160  43.565  0.00  0.00    +0.000 A 
ATOM     26  O   UNL     1      26.758   9.016  43.136  0.00  0.00    +0.000 OA
ATOM     27  C   UNL     1      27.502   8.155  43.981  0.00  0.00    +0.000 C 
ATOM     28  C   UNL     1      27.995   9.032  45.129  0.00  0.00    +0.000 C 
ATOM     29  C   UNL     1      28.628   7.491  43.261  0.00  0.00    +0.000 C 
ATOM     30  C   UNL     1      26.432   7.198  44.440  0.00  0.00    +0.000 C 
ENDBRANCH  19  20
ENDBRANCH  18  19
ENDBRANCH   1  18
TORSDOF 6
ENDMDL
MODEL 10
REMARK VINA RESULT:      -7.0     27.886     30.640
REMARK  Name = 
REMARK  6 active torsions:
REMARK  status: ('A' for Active; 'I' for Inactive)
REMARK    1  A    between atoms: C_2  and  O_3
REMARK    2  A    between atoms: C_2  and  C_15
REMARK    3  A    between atoms: O_3  and  C_4
REMARK    4  A    between atoms: N_17  and  C_18
REMARK    5  A    between atoms: C_21  and  O_22
REMARK    6  A    between atoms: O_22  and  C_23
REMARK                            x       y       z     vdW  Elec       q    Type
REMARK                         _______ _______ _______ _____ _____    ______ ____
ROOT
ATOM      1  C   UNL     1      24.092  15.061  42.452  0.00  0.00    +0.000 C 
ATOM      2  O   UNL     1      25.108  15.703  42.638  0.00  0.00    +0.000 OA
ATOM      3  N   UNL     1      23.622  14.764  41.174  0.00  0.00    +0.000 NA
ENDROOT
BRANCH   3   4
ATOM      4  C   UNL     1      24.289  15.186  39.961  0.00  0.00    +0.000 A 
ATOM      5  C   UNL     1      23.903  16.339  39.319  0.00  0.00    +0.000 A 
ATOM      6  C   UNL     1      24.537  16.756  38.150  0.00  0.00    +0.000 A 
ATOM      7  C   UNL     1      25.575  16.025  37.595  0.00  0.00    +0.000 A 
ATOM      8  C   UNL     1      25.934  14.876  38.266  0.00  0.00    +0.000 A 
ATOM      9  C   UNL     1      25.318  14.451  39.420  0.00  0.00    +0.000 A 
BRANCH   7  10
ATOM     10  O   UNL     1      26.232  16.405  36.435  0.00  0.00    +0.000 OA
BRANCH  10  11
ATOM     11  C   UNL     1      25.837  16.019  35.171  0.00  0.00    +0.000 A 
ATOM     12  C   UNL     1      25.242  16.950  34.349  0.00  0.00    +0.000 A 
ATOM     13  C   UNL     1      24.817  16.659  33.075  0.00  0.00    +0.000 A 
ATOM     14  C   UNL     1      24.978  15.399  32.577  0.00  0.00    +0.000 A 
ATOM     15  C   UNL     1      25.565  14.461  33.375  0.00  0.00    +0.000 A 
ATOM     16  C   UNL     1      25.986  14.759  34.641  0.00  0.00    +0.000 A 
ENDBRANCH  10  11
ENDBRANCH   7  10
ENDBRANCH   3   4
BRANCH   1  18
ATOM     17  C   UNL     1      21.886  15.453  43.314  0.00  0.00    +0.000 C 
ATOM     18  C   UNL     1      23.215  14.506  43.655  0.00  0.00    +0.000 C 
BRANCH  18  19
ATOM     19  O   UNL     1      22.617  13.254  42.986  0.00  0.00    +0.000 OA
BRANCH  19  20
ATOM     20  C   UNL     1      22.525  12.098  43.615  0.00  0.00    +0.000 A 
ATOM     21  C   UNL     1      21.463  11.878  44.456  0.00  0.00    +0.000 A 
ATOM     22  C   UNL     1      21.269  10.723  45.157  0.00  0.00    +0.000 A 
ATOM     23  C   UNL     1      22.177   9.724  45.018  0.00  0.00    +0.000 A 
ATOM     24  C   UNL     1      23.257   9.874  44.198  0.00  0.00    +0.000 A 
ATOM     25  C   UNL     1      23.430  11.066  43.496  0.00  0.00    +0.000 A 
ATOM     26  O   UNL     1      24.600  10.881  42.779  0.00  0.00    +0.000 OA
ATOM     27  C   UNL     1      25.407   9.857  43.336  0.00  0.00    +0.000 C 
ATOM     28  C   UNL     1      26.214  10.529  44.444  0.00  0.00    +0.000 C 
ATOM     29  C   UNL     1      26.285   9.214  42.316  0.00  0.00    +0.000 C 
ATOM     30  C   UNL     1      24.360   8.933  43.900  0.00  0.00    +0.000 C 
ENDBRANCH  19  20
ENDBRANCH  18  19
ENDBRANCH   1  18
TORSDOF 6
ENDMDL
