MODEL 1
REMARK VINA RESULT:      -8.7      0.000      0.000
REMARK  Name = 
REMARK  6 active torsions:
REMARK  status: ('A' for Active; 'I' for Inactive)
REMARK    1  A    between atoms: C_2  and  C_3
REMARK    2  A    between atoms: C_3  and  C_4
REMARK    3  A    between atoms: N_6  and  N_7
REMARK    4  A    between atoms: C_8  and  C_9
REMARK    5  A    between atoms: N_11  and  C_12
REMARK    6  A    between atoms: C_12  and  C_13
REMARK                            x       y       z     vdW  Elec       q    Type
REMARK                         _______ _______ _______ _____ _____    ______ ____
ROOT
ATOM      1  C   UNL     1      37.462   3.276  15.226  0.00  0.00    +0.000 A 
ATOM      2  C   UNL     1      38.705   3.789  15.537  0.00  0.00    +0.000 A 
ATOM      3  N   UNL     1      38.687   5.121  15.309  0.00  0.00    +0.000 N 
ATOM      4  C   UNL     1      37.481   5.509  14.861  0.00  0.00    +0.000 A 
ATOM      5  C   UNL     1      36.968   6.736  14.491  0.00  0.00    +0.000 A 
ATOM      6  C   UNL     1      35.654   6.793  14.062  0.00  0.00    +0.000 A 
ATOM      7  C   UNL     1      34.851   5.656  13.996  0.00  0.00    +0.000 A 
ATOM      8  C   UNL     1      35.400   4.439  14.374  0.00  0.00    +0.000 A 
ATOM      9  C   UNL     1      36.716   4.358  14.808  0.00  0.00    +0.000 A 
ENDROOT
BRANCH   1  11
ATOM     10  N   UNL     1      37.924   0.987  15.695  0.00  0.00    +0.000 NA
ATOM     11  C   UNL     1      37.053   1.866  15.330  0.00  0.00    +0.000 C 
BRANCH  10  14
ATOM     12  C   UNL     1      37.161  -0.938  17.038  0.00  0.00    +0.000 C 
ATOM     13  O   UNL     1      36.940  -0.169  18.004  0.00  0.00    +0.000 OA
ATOM     14  N   UNL     1      37.669  -0.366  15.833  0.00  0.00    +0.000 NA
BRANCH  12  15
ATOM     15  C   UNL     1      36.921  -2.402  17.087  0.00  0.00    +0.000 C 
BRANCH  15  17
ATOM     16  C   UNL     1      34.463  -2.159  16.952  0.00  0.00    +0.000 C 
ATOM     17  C   UNL     1      35.690  -2.772  16.311  0.00  0.00    +0.000 C 
ATOM     18  O   UNL     1      35.530  -4.166  16.389  0.00  0.00    +0.000 OA
ATOM     19  C   UNL     1      36.503  -4.601  15.489  0.00  0.00    +0.000 C 
ATOM     20  C   UNL     1      36.375  -3.607  14.353  0.00  0.00    +0.000 C 
ATOM     21  O   UNL     1      35.781  -2.498  14.963  0.00  0.00    +0.000 OA
ENDBRANCH  15  17
ENDBRANCH  12  15
ENDBRANCH  10  14
ENDBRANCH   1  11
BRANCH   3  22
ATOM     22  C   UNL     1      39.784   6.061  15.503  0.00  0.00    +0.000 C 
BRANCH  22  23
ATOM     23  C   UNL     1      40.032   6.161  16.982  0.00  0.00    +0.000 A 
ATOM     24  C   UNL     1      39.011   6.007  17.895  0.00  0.00    +0.000 A 
ATOM     25  C   UNL     1      39.225   6.098  19.259  0.00  0.00    +0.000 A 
ATOM     26  C   UNL     1      40.477   6.347  19.751  0.00  0.00    +0.000 A 
ATOM     27  C   UNL     1      41.515   6.505  18.843  0.00  0.00    +0.000 A 
ATOM     28  C   UNL     1      42.778   6.757  19.339  0.00  0.00    +0.000 A 
ATOM     29  C   UNL     1      43.824   6.916  18.447  0.00  0.00    +0.000 A 
ATOM     30  C   UNL     1      43.607   6.825  17.083  0.00  0.00    +0.000 A 
ATOM     31  C   UNL     1      42.343   6.573  16.574  0.00  0.00    +0.000 A 
ATOM     32  C   UNL     1      41.297   6.414  17.475  0.00  0.00    +0.000 A 
ENDBRANCH  22  23
ENDBRANCH   3  22
TORSDOF 6
ENDMDL
MODEL 2
REMARK VINA RESULT:      -8.6      3.815      8.646
REMARK  Name = 
REMARK  6 active torsions:
REMARK  status: ('A' for Active; 'I' for Inactive)
REMARK    1  A    between atoms: C_2  and  C_3
REMARK    2  A    between atoms: C_3  and  C_4
REMARK    3  A    between atoms: N_6  and  N_7
REMARK    4  A    between atoms: C_8  and  C_9
REMARK    5  A    between atoms: N_11  and  C_12
REMARK    6  A    between atoms: C_12  and  C_13
REMARK                            x       y       z     vdW  Elec       q    Type
REMARK                         _______ _______ _______ _____ _____    ______ ____
ROOT
ATOM      1  C   UNL     1      36.630   1.190  15.553  0.00  0.00    +0.000 A 
ATOM      2  C   UNL     1      37.311   0.632  14.490  0.00  0.00    +0.000 A 
ATOM      3  N   UNL     1      36.990  -0.679  14.418  0.00  0.00    +0.000 N 
ATOM      4  C   UNL     1      36.125  -1.010  15.391  0.00  0.00    +0.000 A 
ATOM      5  C   UNL     1      35.511  -2.196  15.737  0.00  0.00    +0.000 A 
ATOM      6  C   UNL     1      34.653  -2.196  16.822  0.00  0.00    +0.000 A 
ATOM      7  C   UNL     1      34.399  -1.043  17.561  0.00  0.00    +0.000 A 
ATOM      8  C   UNL     1      35.034   0.133  17.185  0.00  0.00    +0.000 A 
ATOM      9  C   UNL     1      35.899   0.156  16.100  0.00  0.00    +0.000 A 
ENDROOT
BRANCH   1  11
ATOM     10  N   UNL     1      37.836   3.193  16.008  0.00  0.00    +0.000 NA
ATOM     11  C   UNL     1      36.692   2.597  15.983  0.00  0.00    +0.000 C 
BRANCH  10  14
ATOM     12  C   UNL     1      38.363   4.884  17.726  0.00  0.00    +0.000 C 
ATOM     13  O   UNL     1      38.478   3.971  18.579  0.00  0.00    +0.000 OA
ATOM     14  N   UNL     1      38.032   4.508  16.390  0.00  0.00    +0.000 NA
BRANCH  12  15
ATOM     15  C   UNL     1      38.552   6.322  18.038  0.00  0.00    +0.000 C 
BRANCH  15  17
ATOM     16  C   UNL     1      40.253   6.398  19.833  0.00  0.00    +0.000 C 
ATOM     17  C   UNL     1      39.989   6.619  18.359  0.00  0.00    +0.000 C 
ATOM     18  O   UNL     1      40.217   7.983  18.110  0.00  0.00    +0.000 OA
ATOM     19  C   UNL     1      40.290   7.996  16.717  0.00  0.00    +0.000 C 
ATOM     20  C   UNL     1      41.085   6.741  16.413  0.00  0.00    +0.000 C 
ATOM     21  O   UNL     1      40.886   5.953  17.551  0.00  0.00    +0.000 OA
ENDBRANCH  15  17
ENDBRANCH  12  15
ENDBRANCH  10  14
ENDBRANCH   1  11
BRANCH   3  22
ATOM     22  C   UNL     1      37.479  -1.651  13.449  0.00  0.00    +0.000 C 
BRANCH  22  23
ATOM     23  C   UNL     1      38.941  -1.864  13.725  0.00  0.00    +0.000 A 
ATOM     24  C   UNL     1      39.374  -2.457  14.893  0.00  0.00    +0.000 A 
ATOM     25  C   UNL     1      40.715  -2.658  15.161  0.00  0.00    +0.000 A 
ATOM     26  C   UNL     1      41.671  -2.269  14.262  0.00  0.00    +0.000 A 
ATOM     27  C   UNL     1      41.249  -1.670  13.082  0.00  0.00    +0.000 A 
ATOM     28  C   UNL     1      42.212  -1.278  12.174  0.00  0.00    +0.000 A 
ATOM     29  C   UNL     1      41.809  -0.680  10.993  0.00  0.00    +0.000 A 
ATOM     30  C   UNL     1      40.465  -0.480  10.727  0.00  0.00    +0.000 A 
ATOM     31  C   UNL     1      39.490  -0.869  11.631  0.00  0.00    +0.000 A 
ATOM     32  C   UNL     1      39.902  -1.470  12.816  0.00  0.00    +0.000 A 
ENDBRANCH  22  23
ENDBRANCH   3  22
TORSDOF 6
ENDMDL
MODEL 3
REMARK VINA RESULT:      -8.5      1.631      2.265
REMARK  Name = 
REMARK  6 active torsions:
REMARK  status: ('A' for Active; 'I' for Inactive)
REMARK    1  A    between atoms: C_2  and  C_3
REMARK    2  A    between atoms: C_3  and  C_4
REMARK    3  A    between atoms: N_6  and  N_7
REMARK    4  A    between atoms: C_8  and  C_9
REMARK    5  A    between atoms: N_11  and  C_12
REMARK    6  A    between atoms: C_12  and  C_13
REMARK                            x       y       z     vdW  Elec       q    Type
REMARK                         _______ _______ _______ _____ _____    ______ ____
ROOT
ATOM      1  C   UNL     1      37.177   4.822  15.081  0.00  0.00    +0.000 A 
ATOM      2  C   UNL     1      38.210   5.538  15.651  0.00  0.00    +0.000 A 
ATOM      3  N   UNL     1      37.940   6.856  15.519  0.00  0.00    +0.000 N 
ATOM      4  C   UNL     1      36.769   7.039  14.885  0.00  0.00    +0.000 A 
ATOM      5  C   UNL     1      36.070   8.169  14.516  0.00  0.00    +0.000 A 
ATOM      6  C   UNL     1      34.864   8.006  13.857  0.00  0.00    +0.000 A 
ATOM      7  C   UNL     1      34.350   6.744  13.564  0.00  0.00    +0.000 A 
ATOM      8  C   UNL     1      35.081   5.630  13.949  0.00  0.00    +0.000 A 
ATOM      9  C   UNL     1      36.293   5.770  14.611  0.00  0.00    +0.000 A 
ENDROOT
BRANCH   1  11
ATOM     10  N   UNL     1      37.137   2.668  16.099  0.00  0.00    +0.000 NA
ATOM     11  C   UNL     1      37.074   3.355  15.008  0.00  0.00    +0.000 C 
BRANCH  10  14
ATOM     12  C   UNL     1      35.881   0.608  16.618  0.00  0.00    +0.000 C 
ATOM     13  O   UNL     1      34.895   1.303  16.960  0.00  0.00    +0.000 OA
ATOM     14  N   UNL     1      37.052   1.289  16.169  0.00  0.00    +0.000 NA
BRANCH  12  15
ATOM     15  C   UNL     1      35.888  -0.875  16.658  0.00  0.00    +0.000 C 
BRANCH  15  17
ATOM     16  C   UNL     1      36.079  -0.612  19.110  0.00  0.00    +0.000 C 
ATOM     17  C   UNL     1      36.569  -1.377  17.899  0.00  0.00    +0.000 C 
ATOM     18  O   UNL     1      37.943  -1.106  17.781  0.00  0.00    +0.000 OA
ATOM     19  C   UNL     1      38.340  -2.101  16.889  0.00  0.00    +0.000 C 
ATOM     20  C   UNL     1      37.561  -3.309  17.369  0.00  0.00    +0.000 C 
ATOM     21  O   UNL     1      36.487  -2.743  18.062  0.00  0.00    +0.000 OA
ENDBRANCH  15  17
ENDBRANCH  12  15
ENDBRANCH  10  14
ENDBRANCH   1  11
BRANCH   3  22
ATOM     22  C   UNL     1      38.759   7.971  15.977  0.00  0.00    +0.000 C 
BRANCH  22  23
ATOM     23  C   UNL     1      38.776   7.927  17.480  0.00  0.00    +0.000 A 
ATOM     24  C   UNL     1      37.701   8.366  18.225  0.00  0.00    +0.000 A 
ATOM     25  C   UNL     1      37.703   8.331  19.607  0.00  0.00    +0.000 A 
ATOM     26  C   UNL     1      38.790   7.855  20.290  0.00  0.00    +0.000 A 
ATOM     27  C   UNL     1      39.878   7.410  19.553  0.00  0.00    +0.000 A 
ATOM     28  C   UNL     1      40.974   6.929  20.240  0.00  0.00    +0.000 A 
ATOM     29  C   UNL     1      42.068   6.481  19.520  0.00  0.00    +0.000 A 
ATOM     30  C   UNL     1      42.063   6.516  18.136  0.00  0.00    +0.000 A 
ATOM     31  C   UNL     1      40.969   6.998  17.436  0.00  0.00    +0.000 A 
ATOM     32  C   UNL     1      39.873   7.446  18.165  0.00  0.00    +0.000 A 
ENDBRANCH  22  23
ENDBRANCH   3  22
TORSDOF 6
ENDMDL
MODEL 4
REMARK VINA RESULT:      -8.4      4.010      8.964
REMARK  Name = 
REMARK  6 active torsions:
REMARK  status: ('A' for Active; 'I' for Inactive)
REMARK    1  A    between atoms: C_2  and  C_3
REMARK    2  A    between atoms: C_3  and  C_4
REMARK    3  A    between atoms: N_6  and  N_7
REMARK    4  A    between atoms: C_8  and  C_9
REMARK    5  A    between atoms: N_11  and  C_12
REMARK    6  A    between atoms: C_12  and  C_13
REMARK                            x       y       z     vdW  Elec       q    Type
REMARK                         _______ _______ _______ _____ _____    ______ ____
ROOT
ATOM      1  C   UNL     1      37.949   4.013  16.514  0.00  0.00    +0.000 A 
ATOM      2  C   UNL     1      36.965   3.078  16.763  0.00  0.00    +0.000 A 
ATOM      3  N   UNL     1      37.001   2.147  15.783  0.00  0.00    +0.000 N 
ATOM      4  C   UNL     1      37.971   2.430  14.897  0.00  0.00    +0.000 A 
ATOM      5  C   UNL     1      38.400   1.803  13.745  0.00  0.00    +0.000 A 
ATOM      6  C   UNL     1      39.450   2.369  13.045  0.00  0.00    +0.000 A 
ATOM      7  C   UNL     1      40.073   3.540  13.471  0.00  0.00    +0.000 A 
ATOM      8  C   UNL     1      39.615   4.144  14.633  0.00  0.00    +0.000 A 
ATOM      9  C   UNL     1      38.562   3.594  15.351  0.00  0.00    +0.000 A 
ENDROOT
BRANCH   1  11
ATOM     10  N   UNL     1      38.897   5.039  18.443  0.00  0.00    +0.000 NA
ATOM     11  C   UNL     1      38.253   5.195  17.336  0.00  0.00    +0.000 C 
BRANCH  10  14
ATOM     12  C   UNL     1      40.540   6.664  19.309  0.00  0.00    +0.000 C 
ATOM     13  O   UNL     1      41.388   6.233  18.491  0.00  0.00    +0.000 OA
ATOM     14  N   UNL     1      39.245   6.064  19.305  0.00  0.00    +0.000 NA
BRANCH  12  15
ATOM     15  C   UNL     1      40.817   7.757  20.273  0.00  0.00    +0.000 C 
BRANCH  15  17
ATOM     16  C   UNL     1      41.998   9.484  18.953  0.00  0.00    +0.000 C 
ATOM     17  C   UNL     1      40.691   9.101  19.614  0.00  0.00    +0.000 C 
ATOM     18  O   UNL     1      40.453  10.056  20.616  0.00  0.00    +0.000 OA
ATOM     19  C   UNL     1      39.109   9.820  20.903  0.00  0.00    +0.000 C 
ATOM     20  C   UNL     1      38.511   9.589  19.529  0.00  0.00    +0.000 C 
ATOM     21  O   UNL     1      39.613   9.201  18.761  0.00  0.00    +0.000 OA
ENDBRANCH  15  17
ENDBRANCH  12  15
ENDBRANCH  10  14
ENDBRANCH   1  11
BRANCH   3  22
ATOM     22  C   UNL     1      36.140   0.979  15.648  0.00  0.00    +0.000 C 
BRANCH  22  23
ATOM     23  C   UNL     1      36.320   0.145  16.886  0.00  0.00    +0.000 A 
ATOM     24  C   UNL     1      35.577   0.377  18.024  0.00  0.00    +0.000 A 
ATOM     25  C   UNL     1      35.732  -0.382  19.170  0.00  0.00    +0.000 A 
ATOM     26  C   UNL     1      36.643  -1.403  19.210  0.00  0.00    +0.000 A 
ATOM     27  C   UNL     1      37.398  -1.647  18.071  0.00  0.00    +0.000 A 
ATOM     28  C   UNL     1      38.316  -2.676  18.111  0.00  0.00    +0.000 A 
ATOM     29  C   UNL     1      39.077  -2.934  16.984  0.00  0.00    +0.000 A 
ATOM     30  C   UNL     1      38.920  -2.173  15.838  0.00  0.00    +0.000 A 
ATOM     31  C   UNL     1      38.001  -1.137  15.787  0.00  0.00    +0.000 A 
ATOM     32  C   UNL     1      37.240  -0.884  16.923  0.00  0.00    +0.000 A 
ENDBRANCH  22  23
ENDBRANCH   3  22
TORSDOF 6
ENDMDL
MODEL 5
REMARK VINA RESULT:      -8.4     27.131     29.691
REMARK  Name = 
REMARK  6 active torsions:
REMARK  status: ('A' for Active; 'I' for Inactive)
REMARK    1  A    between atoms: C_2  and  C_3
REMARK    2  A    between atoms: C_3  and  C_4
REMARK    3  A    between atoms: N_6  and  N_7
REMARK    4  A    between atoms: C_8  and  C_9
REMARK    5  A    between atoms: N_11  and  C_12
REMARK    6  A    between atoms: C_12  and  C_13
REMARK                            x       y       z     vdW  Elec       q    Type
REMARK                         _______ _______ _______ _____ _____    ______ ____
ROOT
ATOM      1  C   UNL     1      24.526  15.191  38.893  0.00  0.00    +0.000 A 
ATOM      2  C   UNL     1      24.710  15.986  37.781  0.00  0.00    +0.000 A 
ATOM      3  N   UNL     1      26.036  16.080  37.538  0.00  0.00    +0.000 N 
ATOM      4  C   UNL     1      26.736  15.379  38.446  0.00  0.00    +0.000 A 
ATOM      5  C   UNL     1      28.087  15.165  38.628  0.00  0.00    +0.000 A 
ATOM      6  C   UNL     1      28.486  14.372  39.689  0.00  0.00    +0.000 A 
ATOM      7  C   UNL     1      27.568  13.794  40.563  0.00  0.00    +0.000 A 
ATOM      8  C   UNL     1      26.217  14.031  40.350  0.00  0.00    +0.000 A 
ATOM      9  C   UNL     1      25.794  14.823  39.292  0.00  0.00    +0.000 A 
ENDROOT
BRANCH   1  11
ATOM     10  N   UNL     1      23.050  15.048  40.758  0.00  0.00    +0.000 NA
ATOM     11  C   UNL     1      23.233  14.830  39.499  0.00  0.00    +0.000 C 
BRANCH  10  14
ATOM     12  C   UNL     1      21.880  14.062  42.694  0.00  0.00    +0.000 C 
ATOM     13  O   UNL     1      22.983  13.706  43.172  0.00  0.00    +0.000 OA
ATOM     14  N   UNL     1      21.886  14.757  41.447  0.00  0.00    +0.000 NA
BRANCH  12  15
ATOM     15  C   UNL     1      20.579  13.796  43.356  0.00  0.00    +0.000 C 
BRANCH  15  17
ATOM     16  C   UNL     1      19.150  12.510  41.799  0.00  0.00    +0.000 C 
ATOM     17  C   UNL     1      20.064  12.430  43.003  0.00  0.00    +0.000 C 
ATOM     18  O   UNL     1      19.279  11.971  44.074  0.00  0.00    +0.000 OA
ATOM     19  C   UNL     1      20.261  11.610  44.996  0.00  0.00    +0.000 C 
ATOM     20  C   UNL     1      21.310  10.949  44.123  0.00  0.00    +0.000 C 
ATOM     21  O   UNL     1      21.057  11.484  42.857  0.00  0.00    +0.000 OA
ENDBRANCH  15  17
ENDBRANCH  12  15
ENDBRANCH  10  14
ENDBRANCH   1  11
BRANCH   3  22
ATOM     22  C   UNL     1      26.682  16.821  36.462  0.00  0.00    +0.000 C 
BRANCH  22  23
ATOM     23  C   UNL     1      26.096  16.333  35.167  0.00  0.00    +0.000 A 
ATOM     24  C   UNL     1      26.242  15.024  34.759  0.00  0.00    +0.000 A 
ATOM     25  C   UNL     1      25.709  14.561  33.570  0.00  0.00    +0.000 A 
ATOM     26  C   UNL     1      25.008  15.401  32.747  0.00  0.00    +0.000 A 
ATOM     27  C   UNL     1      24.853  16.722  33.146  0.00  0.00    +0.000 A 
ATOM     28  C   UNL     1      24.147  17.570  32.318  0.00  0.00    +0.000 A 
ATOM     29  C   UNL     1      23.982  18.890  32.700  0.00  0.00    +0.000 A 
ATOM     30  C   UNL     1      24.517  19.351  33.891  0.00  0.00    +0.000 A 
ATOM     31  C   UNL     1      25.229  18.509  34.730  0.00  0.00    +0.000 A 
ATOM     32  C   UNL     1      25.390  17.183  34.340  0.00  0.00    +0.000 A 
ENDBRANCH  22  23
ENDBRANCH   3  22
TORSDOF 6
ENDMDL
MODEL 6
REMARK VINA RESULT:      -8.4      1.669      2.823
REMARK  Name = 
REMARK  6 active torsions:
REMARK  status: ('A' for Active; 'I' for Inactive)
REMARK    1  A    between atoms: C_2  and  C_3
REMARK    2  A    between atoms: C_3  and  C_4
REMARK    3  A    between atoms: N_6  and  N_7
REMARK    4  A    between atoms: C_8  and  C_9
REMARK    5  A    between atoms: N_11  and  C_12
REMARK    6  A    between atoms: C_12  and  C_13
REMARK                            x       y       z     vdW  Elec       q    Type
REMARK                         _______ _______ _______ _____ _____    ______ ____
ROOT
ATOM      1  C   UNL     1      37.601   4.230  15.031  0.00  0.00    +0.000 A 
ATOM      2  C   UNL     1      38.689   4.948  15.484  0.00  0.00    +0.000 A 
ATOM      3  N   UNL     1      38.389   6.265  15.420  0.00  0.00    +0.000 N 
ATOM      4  C   UNL     1      37.147   6.445  14.941  0.00  0.00    +0.000 A 
ATOM      5  C   UNL     1      36.393   7.574  14.690  0.00  0.00    +0.000 A 
ATOM      6  C   UNL     1      35.116   7.408  14.184  0.00  0.00    +0.000 A 
ATOM      7  C   UNL     1      34.584   6.147  13.926  0.00  0.00    +0.000 A 
ATOM      8  C   UNL     1      35.370   5.034  14.190  0.00  0.00    +0.000 A 
ATOM      9  C   UNL     1      36.654   5.176  14.698  0.00  0.00    +0.000 A 
ENDROOT
BRANCH   1  11
ATOM     10  N   UNL     1      37.490   2.066  16.021  0.00  0.00    +0.000 NA
ATOM     11  C   UNL     1      37.505   2.765  14.935  0.00  0.00    +0.000 C 
BRANCH  10  14
ATOM     12  C   UNL     1      36.456   0.001  16.888  0.00  0.00    +0.000 C 
ATOM     13  O   UNL     1      35.676   0.692  17.586  0.00  0.00    +0.000 OA
ATOM     14  N   UNL     1      37.403   0.687  16.070  0.00  0.00    +0.000 NA
BRANCH  12  15
ATOM     15  C   UNL     1      36.442  -1.483  16.873  0.00  0.00    +0.000 C 
BRANCH  15  17
ATOM     16  C   UNL     1      37.414  -1.403  19.146  0.00  0.00    +0.000 C 
ATOM     17  C   UNL     1      37.504  -2.041  17.776  0.00  0.00    +0.000 C 
ATOM     18  O   UNL     1      38.756  -1.683  17.247  0.00  0.00    +0.000 OA
ATOM     19  C   UNL     1      38.869  -2.580  16.186  0.00  0.00    +0.000 C 
ATOM     20  C   UNL     1      38.324  -3.865  16.776  0.00  0.00    +0.000 C 
ATOM     21  O   UNL     1      37.520  -3.418  17.829  0.00  0.00    +0.000 OA
ENDBRANCH  15  17
ENDBRANCH  12  15
ENDBRANCH  10  14
ENDBRANCH   1  11
BRANCH   3  22
ATOM     22  C   UNL     1      39.246   7.381  15.799  0.00  0.00    +0.000 C 
BRANCH  22  23
ATOM     23  C   UNL     1      39.663   7.161  17.226  0.00  0.00    +0.000 A 
ATOM     24  C   UNL     1      40.763   6.392  17.545  0.00  0.00    +0.000 A 
ATOM     25  C   UNL     1      41.157   6.181  18.854  0.00  0.00    +0.000 A 
ATOM     26  C   UNL     1      40.456   6.737  19.890  0.00  0.00    +0.000 A 
ATOM     27  C   UNL     1      39.347   7.513  19.584  0.00  0.00    +0.000 A 
ATOM     28  C   UNL     1      38.640   8.074  20.627  0.00  0.00    +0.000 A 
ATOM     29  C   UNL     1      37.531   8.851  20.340  0.00  0.00    +0.000 A 
ATOM     30  C   UNL     1      37.139   9.061  19.029  0.00  0.00    +0.000 A 
ATOM     31  C   UNL     1      37.841   8.502  17.973  0.00  0.00    +0.000 A 
ATOM     32  C   UNL     1      38.954   7.723  18.269  0.00  0.00    +0.000 A 
ENDBRANCH  22  23
ENDBRANCH   3  22
TORSDOF 6
ENDMDL
MODEL 7
REMARK VINA RESULT:      -8.3      2.571      4.165
REMARK  Name = 
REMARK  6 active torsions:
REMARK  status: ('A' for Active; 'I' for Inactive)
REMARK    1  A    between atoms: C_2  and  C_3
REMARK    2  A    between atoms: C_3  and  C_4
REMARK    3  A    between atoms: N_6  and  N_7
REMARK    4  A    between atoms: C_8  and  C_9
REMARK    5  A    between atoms: N_11  and  C_12
REMARK    6  A    between atoms: C_12  and  C_13
REMARK                            x       y       z     vdW  Elec       q    Type
REMARK                         _______ _______ _______ _____ _____    ______ ____
ROOT
ATOM      1  C   UNL     1      38.828   4.996  17.453  0.00  0.00    +0.000 A 
ATOM      2  C   UNL     1      38.984   5.344  18.779  0.00  0.00    +0.000 A 
ATOM      3  N   UNL     1      40.099   6.100  18.895  0.00  0.00    +0.000 N 
ATOM      4  C   UNL     1      40.686   6.264  17.697  0.00  0.00    +0.000 A 
ATOM      5  C   UNL     1      41.823   6.936  17.294  0.00  0.00    +0.000 A 
ATOM      6  C   UNL     1      42.157   6.907  15.952  0.00  0.00    +0.000 A 
ATOM      7  C   UNL     1      41.385   6.225  15.014  0.00  0.00    +0.000 A 
ATOM      8  C   UNL     1      40.249   5.561  15.455  0.00  0.00    +0.000 A 
ATOM      9  C   UNL     1      39.894   5.576  16.797  0.00  0.00    +0.000 A 
ENDROOT
BRANCH   1  11
ATOM     10  N   UNL     1      37.503   3.017  17.403  0.00  0.00    +0.000 NA
ATOM     11  C   UNL     1      37.741   4.178  16.892  0.00  0.00    +0.000 C 
BRANCH  10  14
ATOM     12  C   UNL     1      36.746   1.138  15.994  0.00  0.00    +0.000 C 
ATOM     13  O   UNL     1      37.902   1.039  15.517  0.00  0.00    +0.000 OA
ATOM     14  N   UNL     1      36.513   2.153  16.971  0.00  0.00    +0.000 NA
BRANCH  12  15
ATOM     15  C   UNL     1      35.619   0.260  15.595  0.00  0.00    +0.000 C 
BRANCH  15  17
ATOM     16  C   UNL     1      36.474  -1.911  14.775  0.00  0.00    +0.000 C 
ATOM     17  C   UNL     1      35.895  -1.170  15.961  0.00  0.00    +0.000 C 
ATOM     18  O   UNL     1      34.669  -1.787  16.260  0.00  0.00    +0.000 OA
ATOM     19  C   UNL     1      34.410  -1.275  17.532  0.00  0.00    +0.000 C 
ATOM     20  C   UNL     1      35.775  -1.312  18.190  0.00  0.00    +0.000 C 
ATOM     21  O   UNL     1      36.655  -1.313  17.103  0.00  0.00    +0.000 OA
ENDBRANCH  15  17
ENDBRANCH  12  15
ENDBRANCH  10  14
ENDBRANCH   1  11
BRANCH   3  22
ATOM     22  C   UNL     1      40.644   6.683  20.114  0.00  0.00    +0.000 C 
BRANCH  22  23
ATOM     23  C   UNL     1      39.971   8.013  20.313  0.00  0.00    +0.000 A 
ATOM     24  C   UNL     1      38.599   8.118  20.411  0.00  0.00    +0.000 A 
ATOM     25  C   UNL     1      37.967   9.334  20.594  0.00  0.00    +0.000 A 
ATOM     26  C   UNL     1      38.695  10.490  20.684  0.00  0.00    +0.000 A 
ATOM     27  C   UNL     1      40.076  10.399  20.587  0.00  0.00    +0.000 A 
ATOM     28  C   UNL     1      40.811  11.563  20.678  0.00  0.00    +0.000 A 
ATOM     29  C   UNL     1      42.190  11.491  20.583  0.00  0.00    +0.000 A 
ATOM     30  C   UNL     1      42.820  10.272  20.401  0.00  0.00    +0.000 A 
ATOM     31  C   UNL     1      42.093   9.096  20.308  0.00  0.00    +0.000 A 
ATOM     32  C   UNL     1      40.708   9.176  20.404  0.00  0.00    +0.000 A 
ENDBRANCH  22  23
ENDBRANCH   3  22
TORSDOF 6
ENDMDL
MODEL 8
REMARK VINA RESULT:      -8.3      2.404      4.592
REMARK  Name = 
REMARK  6 active torsions:
REMARK  status: ('A' for Active; 'I' for Inactive)
REMARK    1  A    between atoms: C_2  and  C_3
REMARK    2  A    between atoms: C_3  and  C_4
REMARK    3  A    between atoms: N_6  and  N_7
REMARK    4  A    between atoms: C_8  and  C_9
REMARK    5  A    between atoms: N_11  and  C_12
REMARK    6  A    between atoms: C_12  and  C_13
REMARK                            x       y       z     vdW  Elec       q    Type
REMARK                         _______ _______ _______ _____ _____    ______ ____
ROOT
ATOM      1  C   UNL     1      38.905   5.912  18.217  0.00  0.00    +0.000 A 
ATOM      2  C   UNL     1      40.068   5.592  18.887  0.00  0.00    +0.000 A 
ATOM      3  N   UNL     1      40.278   6.521  19.846  0.00  0.00    +0.000 N 
ATOM      4  C   UNL     1      39.300   7.442  19.836  0.00  0.00    +0.000 A 
ATOM      5  C   UNL     1      39.064   8.568  20.599  0.00  0.00    +0.000 A 
ATOM      6  C   UNL     1      37.936   9.320  20.323  0.00  0.00    +0.000 A 
ATOM      7  C   UNL     1      37.048   8.970  19.308  0.00  0.00    +0.000 A 
ATOM      8  C   UNL     1      37.317   7.832  18.560  0.00  0.00    +0.000 A 
ATOM      9  C   UNL     1      38.442   7.063  18.820  0.00  0.00    +0.000 A 
ENDROOT
BRANCH   1  11
ATOM     10  N   UNL     1      37.926   3.944  17.296  0.00  0.00    +0.000 NA
ATOM     11  C   UNL     1      38.311   5.160  17.099  0.00  0.00    +0.000 C 
BRANCH  10  14
ATOM     12  C   UNL     1      36.656   1.929  16.653  0.00  0.00    +0.000 C 
ATOM     13  O   UNL     1      36.566   1.607  17.862  0.00  0.00    +0.000 OA
ATOM     14  N   UNL     1      37.354   3.132  16.334  0.00  0.00    +0.000 NA
BRANCH  12  15
ATOM     15  C   UNL     1      36.078   1.124  15.549  0.00  0.00    +0.000 C 
BRANCH  15  17
ATOM     16  C   UNL     1      37.798   0.946  13.780  0.00  0.00    +0.000 C 
ATOM     17  C   UNL     1      37.118   0.234  14.930  0.00  0.00    +0.000 C 
ATOM     18  O   UNL     1      36.463  -0.881  14.380  0.00  0.00    +0.000 OA
ATOM     19  C   UNL     1      36.184  -1.625  15.526  0.00  0.00    +0.000 C 
ATOM     20  C   UNL     1      37.452  -1.467  16.342  0.00  0.00    +0.000 C 
ATOM     21  O   UNL     1      38.012  -0.289  15.839  0.00  0.00    +0.000 OA
ENDBRANCH  15  17
ENDBRANCH  12  15
ENDBRANCH  10  14
ENDBRANCH   1  11
BRANCH   3  22
ATOM     22  C   UNL     1      41.387   6.575  20.790  0.00  0.00    +0.000 C 
BRANCH  22  23
ATOM     23  C   UNL     1      42.649   6.742  19.989  0.00  0.00    +0.000 A 
ATOM     24  C   UNL     1      42.645   7.380  18.766  0.00  0.00    +0.000 A 
ATOM     25  C   UNL     1      43.798   7.540  18.018  0.00  0.00    +0.000 A 
ATOM     26  C   UNL     1      44.996   7.063  18.476  0.00  0.00    +0.000 A 
ATOM     27  C   UNL     1      45.014   6.419  19.706  0.00  0.00    +0.000 A 
ATOM     28  C   UNL     1      46.222   5.939  20.169  0.00  0.00    +0.000 A 
ATOM     29  C   UNL     1      46.257   5.295  21.393  0.00  0.00    +0.000 A 
ATOM     30  C   UNL     1      45.103   5.135  22.140  0.00  0.00    +0.000 A 
ATOM     31  C   UNL     1      43.884   5.614  21.685  0.00  0.00    +0.000 A 
ATOM     32  C   UNL     1      43.855   6.260  20.454  0.00  0.00    +0.000 A 
ENDBRANCH  22  23
ENDBRANCH   3  22
TORSDOF 6
ENDMDL
MODEL 9
REMARK VINA RESULT:      -8.0      3.221      8.599
REMARK  Name = 
REMARK  6 active torsions:
REMARK  status: ('A' for Active; 'I' for Inactive)
REMARK    1  A    between atoms: C_2  and  C_3
REMARK    2  A    between atoms: C_3  and  C_4
REMARK    3  A    between atoms: N_6  and  N_7
REMARK    4  A    between atoms: C_8  and  C_9
REMARK    5  A    between atoms: N_11  and  C_12
REMARK    6  A    between atoms: C_12  and  C_13
REMARK                            x       y       z     vdW  Elec       q    Type
REMARK                         _______ _______ _______ _____ _____    ______ ____
ROOT
ATOM      1  C   UNL     1      37.532   2.999  14.599  0.00  0.00    +0.000 A 
ATOM      2  C   UNL     1      37.006   2.007  15.400  0.00  0.00    +0.000 A 
ATOM      3  N   UNL     1      36.673   0.956  14.618  0.00  0.00    +0.000 N 
ATOM      4  C   UNL     1      36.959   1.215  13.330  0.00  0.00    +0.000 A 
ATOM      5  C   UNL     1      36.809   0.481  12.171  0.00  0.00    +0.000 A 
ATOM      6  C   UNL     1      37.213   1.055  10.978  0.00  0.00    +0.000 A 
ATOM      7  C   UNL     1      37.758   2.336  10.924  0.00  0.00    +0.000 A 
ATOM      8  C   UNL     1      37.893   3.045  12.109  0.00  0.00    +0.000 A 
ATOM      9  C   UNL     1      37.494   2.489  13.317  0.00  0.00    +0.000 A 
ENDROOT
BRANCH   1  11
ATOM     10  N   UNL     1      38.872   4.365  16.018  0.00  0.00    +0.000 NA
ATOM     11  C   UNL     1      38.021   4.312  15.049  0.00  0.00    +0.000 C 
BRANCH  10  14
ATOM     12  C   UNL     1      39.438   5.815  17.932  0.00  0.00    +0.000 C 
ATOM     13  O   UNL     1      38.953   4.962  18.714  0.00  0.00    +0.000 OA
ATOM     14  N   UNL     1      39.408   5.530  16.534  0.00  0.00    +0.000 NA
BRANCH  12  15
ATOM     15  C   UNL     1      40.035   7.095  18.388  0.00  0.00    +0.000 C 
BRANCH  15  17
ATOM     16  C   UNL     1      41.527   6.315  20.201  0.00  0.00    +0.000 C 
ATOM     17  C   UNL     1      41.464   6.902  18.807  0.00  0.00    +0.000 C 
ATOM     18  O   UNL     1      42.070   8.168  18.878  0.00  0.00    +0.000 OA
ATOM     19  C   UNL     1      42.268   8.451  17.526  0.00  0.00    +0.000 C 
ATOM     20  C   UNL     1      42.721   7.116  16.970  0.00  0.00    +0.000 C 
ATOM     21  O   UNL     1      42.219   6.196  17.895  0.00  0.00    +0.000 OA
ENDBRANCH  15  17
ENDBRANCH  12  15
ENDBRANCH  10  14
ENDBRANCH   1  11
BRANCH   3  22
ATOM     22  C   UNL     1      36.085  -0.307  15.045  0.00  0.00    +0.000 C 
BRANCH  22  23
ATOM     23  C   UNL     1      37.198  -1.158  15.590  0.00  0.00    +0.000 A 
ATOM     24  C   UNL     1      38.158  -1.703  14.764  0.00  0.00    +0.000 A 
ATOM     25  C   UNL     1      39.187  -2.488  15.251  0.00  0.00    +0.000 A 
ATOM     26  C   UNL     1      39.285  -2.753  16.591  0.00  0.00    +0.000 A 
ATOM     27  C   UNL     1      38.325  -2.211  17.434  0.00  0.00    +0.000 A 
ATOM     28  C   UNL     1      38.423  -2.477  18.784  0.00  0.00    +0.000 A 
ATOM     29  C   UNL     1      37.475  -1.944  19.639  0.00  0.00    +0.000 A 
ATOM     30  C   UNL     1      36.447  -1.158  19.149  0.00  0.00    +0.000 A 
ATOM     31  C   UNL     1      36.337  -0.884  17.795  0.00  0.00    +0.000 A 
ATOM     32  C   UNL     1      37.294  -1.423  16.941  0.00  0.00    +0.000 A 
ENDBRANCH  22  23
ENDBRANCH   3  22
TORSDOF 6
ENDMDL
MODEL 10
REMARK VINA RESULT:      -7.8      6.317      8.296
REMARK  Name = 
REMARK  6 active torsions:
REMARK  status: ('A' for Active; 'I' for Inactive)
REMARK    1  A    between atoms: C_2  and  C_3
REMARK    2  A    between atoms: C_3  and  C_4
REMARK    3  A    between atoms: N_6  and  N_7
REMARK    4  A    between atoms: C_8  and  C_9
REMARK    5  A    between atoms: N_11  and  C_12
REMARK    6  A    between atoms: C_12  and  C_13
REMARK                            x       y       z     vdW  Elec       q    Type
REMARK                         _______ _______ _______ _____ _____    ______ ____
ROOT
ATOM      1  C   UNL     1      41.250  -1.894  14.135  0.00  0.00    +0.000 A 
ATOM      2  C   UNL     1      42.422  -1.354  14.623  0.00  0.00    +0.000 A 
ATOM      3  N   UNL     1      43.385  -1.507  13.687  0.00  0.00    +0.000 N 
ATOM      4  C   UNL     1      42.895  -2.127  12.599  0.00  0.00    +0.000 A 
ATOM      5  C   UNL     1      43.464  -2.507  11.401  0.00  0.00    +0.000 A 
ATOM      6  C   UNL     1      42.662  -3.143  10.470  0.00  0.00    +0.000 A 
ATOM      7  C   UNL     1      41.316  -3.404  10.713  0.00  0.00    +0.000 A 
ATOM      8  C   UNL     1      40.778  -3.008  11.929  0.00  0.00    +0.000 A 
ATOM      9  C   UNL     1      41.563  -2.369  12.878  0.00  0.00    +0.000 A 
ENDROOT
BRANCH   1  11
ATOM     10  N   UNL     1      39.463  -0.842  15.307  0.00  0.00    +0.000 NA
ATOM     11  C   UNL     1      39.955  -1.937  14.834  0.00  0.00    +0.000 C 
BRANCH  10  14
ATOM     12  C   UNL     1      37.067  -0.254  15.371  0.00  0.00    +0.000 C 
ATOM     13  O   UNL     1      37.129   0.101  14.169  0.00  0.00    +0.000 OA
ATOM     14  N   UNL     1      38.259  -0.745  15.982  0.00  0.00    +0.000 NA
BRANCH  12  15
ATOM     15  C   UNL     1      35.825  -0.187  16.179  0.00  0.00    +0.000 C 
BRANCH  15  17
ATOM     16  C   UNL     1      36.120   0.345  18.577  0.00  0.00    +0.000 C 
ATOM     17  C   UNL     1      35.901   0.918  17.193  0.00  0.00    +0.000 C 
ATOM     18  O   UNL     1      34.656   1.569  17.221  0.00  0.00    +0.000 OA
ATOM     19  C   UNL     1      34.721   2.329  16.053  0.00  0.00    +0.000 C 
ATOM     20  C   UNL     1      36.152   2.830  16.062  0.00  0.00    +0.000 C 
ATOM     21  O   UNL     1      36.812   1.902  16.873  0.00  0.00    +0.000 OA
ENDBRANCH  15  17
ENDBRANCH  12  15
ENDBRANCH  10  14
ENDBRANCH   1  11
BRANCH   3  22
ATOM     22  C   UNL     1      44.777  -1.084  13.779  0.00  0.00    +0.000 C 
BRANCH  22  23
ATOM     23  C   UNL     1      45.472  -2.032  14.716  0.00  0.00    +0.000 A 
ATOM     24  C   UNL     1      45.842  -3.299  14.314  0.00  0.00    +0.000 A 
ATOM     25  C   UNL     1      46.482  -4.182  15.165  0.00  0.00    +0.000 A 
ATOM     26  C   UNL     1      46.771  -3.821  16.453  0.00  0.00    +0.000 A 
ATOM     27  C   UNL     1      46.403  -2.549  16.871  0.00  0.00    +0.000 A 
ATOM     28  C   UNL     1      46.695  -2.184  18.170  0.00  0.00    +0.000 A 
ATOM     29  C   UNL     1      46.336  -0.920  18.603  0.00  0.00    +0.000 A 
ATOM     30  C   UNL     1      45.696  -0.038  17.749  0.00  0.00    +0.000 A 
ATOM     31  C   UNL     1      45.398  -0.393  16.444  0.00  0.00    +0.000 A 
ATOM     32  C   UNL     1      45.762  -1.665  16.015  0.00  0.00    +0.000 A 
ENDBRANCH  22  23
ENDBRANCH   3  22
TORSDOF 6
ENDMDL
