MODEL 1
REMARK VINA RESULT:      -6.8      0.000      0.000
REMARK  Name = 
REMARK  7 active torsions:
REMARK  status: ('A' for Active; 'I' for Inactive)
REMARK    1  A    between atoms: C_2  and  N_3
REMARK    2  A    between atoms: N_3  and  C_4
REMARK    3  A    between atoms: C_4  and  N_6
REMARK    4  A    between atoms: N_6  and  C_7
REMARK    5  A    between atoms: C_8  and  C_9
REMARK    6  A    between atoms: C_9  and  O_11
REMARK    7  A    between atoms: O_11  and  C_12
REMARK                            x       y       z     vdW  Elec       q    Type
REMARK                         _______ _______ _______ _____ _____    ______ ____
ROOT
ATOM      1  C   UNL     1      15.746  11.732  34.523  0.00  0.00    +0.000 A 
ATOM      2  C   UNL     1      16.589  10.685  34.229  0.00  0.00    +0.000 A 
ATOM      3  N   UNL     1      16.570  10.466  32.905  0.00  0.00    +0.000 NA
ATOM      4  C   UNL     1      15.733  11.351  32.342  0.00  0.00    +0.000 A 
ATOM      5  C   UNL     1      15.341  11.571  31.013  0.00  0.00    +0.000 A 
ATOM      6  C   UNL     1      14.451  12.560  30.686  0.00  0.00    +0.000 A 
ATOM      7  C   UNL     1      13.924  13.361  31.671  0.00  0.00    +0.000 A 
ATOM      8  C   UNL     1      14.313  13.140  32.968  0.00  0.00    +0.000 A 
ATOM      9  C   UNL     1      15.216  12.139  33.324  0.00  0.00    +0.000 A 
ENDROOT
BRANCH   2  10
ATOM     10  C   UNL     1      17.387   9.923  35.211  0.00  0.00    +0.000 C 
ATOM     11  O   UNL     1      17.314   8.683  35.303  0.00  0.00    +0.000 OA
BRANCH  10  12
ATOM     12  O   UNL     1      18.249  10.589  36.063  0.00  0.00    +0.000 OA
BRANCH  12  13
ATOM     13  C   UNL     1      18.899   9.904  37.144  0.00  0.00    +0.000 C 
ATOM     14  C   UNL     1      20.356   9.832  36.756  0.00  0.00    +0.000 C 
ENDBRANCH  12  13
ENDBRANCH  10  12
ENDBRANCH   2  10
BRANCH   1  15
ATOM     15  N   UNL     1      15.494  12.253  35.796  0.00  0.00    +0.000 NA
BRANCH  15  16
ATOM     16  C   UNL     1      14.711  11.663  36.813  0.00  0.00    +0.000 C 
ATOM     17  S   UNL     1      15.338  10.991  38.156  0.00  0.00    +0.000 S 
BRANCH  16  18
ATOM     18  N   UNL     1      13.306  11.653  36.660  0.00  0.00    +0.000 NA
BRANCH  18  20
ATOM     19  C   UNL     1      11.032  11.264  37.279  0.00  0.00    +0.000 C 
ATOM     20  C   UNL     1      12.477  10.994  37.622  0.00  0.00    +0.000 C 
ENDBRANCH  18  20
ENDBRANCH  16  18
ENDBRANCH  15  16
ENDBRANCH   1  15
TORSDOF 7
ENDMDL
MODEL 2
REMARK VINA RESULT:      -6.5      2.067      4.980
REMARK  Name = 
REMARK  7 active torsions:
REMARK  status: ('A' for Active; 'I' for Inactive)
REMARK    1  A    between atoms: C_2  and  N_3
REMARK    2  A    between atoms: N_3  and  C_4
REMARK    3  A    between atoms: C_4  and  N_6
REMARK    4  A    between atoms: N_6  and  C_7
REMARK    5  A    between atoms: C_8  and  C_9
REMARK    6  A    between atoms: C_9  and  O_11
REMARK    7  A    between atoms: O_11  and  C_12
REMARK                            x       y       z     vdW  Elec       q    Type
REMARK                         _______ _______ _______ _____ _____    ______ ____
ROOT
ATOM      1  C   UNL     1      14.923  12.118  36.463  0.00  0.00    +0.000 A 
ATOM      2  C   UNL     1      15.899  11.586  37.274  0.00  0.00    +0.000 A 
ATOM      3  N   UNL     1      15.315  10.910  38.276  0.00  0.00    +0.000 NA
ATOM      4  C   UNL     1      13.984  10.997  38.125  0.00  0.00    +0.000 A 
ATOM      5  C   UNL     1      12.911  10.487  38.872  0.00  0.00    +0.000 A 
ATOM      6  C   UNL     1      11.612  10.720  38.504  0.00  0.00    +0.000 A 
ATOM      7  C   UNL     1      11.340  11.467  37.382  0.00  0.00    +0.000 A 
ATOM      8  C   UNL     1      12.395  11.961  36.657  0.00  0.00    +0.000 A 
ATOM      9  C   UNL     1      13.725  11.737  37.014  0.00  0.00    +0.000 A 
ENDROOT
BRANCH   2  10
ATOM     10  C   UNL     1      17.356  11.732  37.076  0.00  0.00    +0.000 C 
ATOM     11  O   UNL     1      17.938  12.824  37.228  0.00  0.00    +0.000 OA
BRANCH  10  12
ATOM     12  O   UNL     1      18.114  10.636  36.712  0.00  0.00    +0.000 OA
BRANCH  12  13
ATOM     13  C   UNL     1      18.130  10.163  35.356  0.00  0.00    +0.000 C 
ATOM     14  C   UNL     1      17.612   8.747  35.418  0.00  0.00    +0.000 C 
ENDBRANCH  12  13
ENDBRANCH  10  12
ENDBRANCH   2  10
BRANCH   1  15
ATOM     15  N   UNL     1      15.138  12.892  35.318  0.00  0.00    +0.000 NA
BRANCH  15  16
ATOM     16  C   UNL     1      14.825  12.539  33.986  0.00  0.00    +0.000 C 
ATOM     17  S   UNL     1      15.237  11.116  33.313  0.00  0.00    +0.000 S 
BRANCH  16  18
ATOM     18  N   UNL     1      14.117  13.469  33.192  0.00  0.00    +0.000 NA
BRANCH  18  20
ATOM     19  C   UNL     1      14.668  14.314  31.027  0.00  0.00    +0.000 C 
ATOM     20  C   UNL     1      13.937  13.237  31.792  0.00  0.00    +0.000 C 
ENDBRANCH  18  20
ENDBRANCH  16  18
ENDBRANCH  15  16
ENDBRANCH   1  15
TORSDOF 7
ENDMDL
MODEL 3
REMARK VINA RESULT:      -6.2      1.999      4.323
REMARK  Name = 
REMARK  7 active torsions:
REMARK  status: ('A' for Active; 'I' for Inactive)
REMARK    1  A    between atoms: C_2  and  N_3
REMARK    2  A    between atoms: N_3  and  C_4
REMARK    3  A    between atoms: C_4  and  N_6
REMARK    4  A    between atoms: N_6  and  C_7
REMARK    5  A    between atoms: C_8  and  C_9
REMARK    6  A    between atoms: C_9  and  O_11
REMARK    7  A    between atoms: O_11  and  C_12
REMARK                            x       y       z     vdW  Elec       q    Type
REMARK                         _______ _______ _______ _____ _____    ______ ____
ROOT
ATOM      1  C   UNL     1      16.231  11.318  34.728  0.00  0.00    +0.000 A 
ATOM      2  C   UNL     1      16.731  10.513  35.726  0.00  0.00    +0.000 A 
ATOM      3  N   UNL     1      15.982  10.666  36.829  0.00  0.00    +0.000 NA
ATOM      4  C   UNL     1      15.011  11.552  36.561  0.00  0.00    +0.000 A 
ATOM      5  C   UNL     1      13.965  12.075  37.337  0.00  0.00    +0.000 A 
ATOM      6  C   UNL     1      13.084  12.990  36.822  0.00  0.00    +0.000 A 
ATOM      7  C   UNL     1      13.215  13.412  35.520  0.00  0.00    +0.000 A 
ATOM      8  C   UNL     1      14.240  12.895  34.768  0.00  0.00    +0.000 A 
ATOM      9  C   UNL     1      15.148  11.964  35.271  0.00  0.00    +0.000 A 
ENDROOT
BRANCH   2  10
ATOM     10  C   UNL     1      17.904   9.622  35.605  0.00  0.00    +0.000 C 
ATOM     11  O   UNL     1      17.844   8.525  35.018  0.00  0.00    +0.000 OA
BRANCH  10  12
ATOM     12  O   UNL     1      19.115  10.001  36.153  0.00  0.00    +0.000 OA
BRANCH  12  13
ATOM     13  C   UNL     1      19.384   9.822  37.552  0.00  0.00    +0.000 C 
ATOM     14  C   UNL     1      19.592  11.211  38.104  0.00  0.00    +0.000 C 
ENDBRANCH  12  13
ENDBRANCH  10  12
ENDBRANCH   2  10
BRANCH   1  15
ATOM     15  N   UNL     1      16.745  11.438  33.433  0.00  0.00    +0.000 NA
BRANCH  15  16
ATOM     16  C   UNL     1      16.007  11.481  32.229  0.00  0.00    +0.000 C 
ATOM     17  S   UNL     1      14.957  10.322  31.777  0.00  0.00    +0.000 S 
BRANCH  16  18
ATOM     18  N   UNL     1      16.187  12.586  31.368  0.00  0.00    +0.000 NA
BRANCH  18  20
ATOM     19  C   UNL     1      14.326  14.077  31.239  0.00  0.00    +0.000 C 
ATOM     20  C   UNL     1      15.125  13.020  30.514  0.00  0.00    +0.000 C 
ENDBRANCH  18  20
ENDBRANCH  16  18
ENDBRANCH  15  16
ENDBRANCH   1  15
TORSDOF 7
ENDMDL
MODEL 4
REMARK VINA RESULT:      -6.0      2.274      4.347
REMARK  Name = 
REMARK  7 active torsions:
REMARK  status: ('A' for Active; 'I' for Inactive)
REMARK    1  A    between atoms: C_2  and  N_3
REMARK    2  A    between atoms: N_3  and  C_4
REMARK    3  A    between atoms: C_4  and  N_6
REMARK    4  A    between atoms: N_6  and  C_7
REMARK    5  A    between atoms: C_8  and  C_9
REMARK    6  A    between atoms: C_9  and  O_11
REMARK    7  A    between atoms: O_11  and  C_12
REMARK                            x       y       z     vdW  Elec       q    Type
REMARK                         _______ _______ _______ _____ _____    ______ ____
ROOT
ATOM      1  C   UNL     1      15.220  11.640  34.116  0.00  0.00    +0.000 A 
ATOM      2  C   UNL     1      14.332  12.369  34.873  0.00  0.00    +0.000 A 
ATOM      3  N   UNL     1      13.864  13.389  34.137  0.00  0.00    +0.000 NA
ATOM      4  C   UNL     1      14.433  13.331  32.923  0.00  0.00    +0.000 A 
ATOM      5  C   UNL     1      14.308  14.134  31.780  0.00  0.00    +0.000 A 
ATOM      6  C   UNL     1      15.012  13.860  30.636  0.00  0.00    +0.000 A 
ATOM      7  C   UNL     1      15.861  12.779  30.596  0.00  0.00    +0.000 A 
ATOM      8  C   UNL     1      15.976  11.999  31.718  0.00  0.00    +0.000 A 
ATOM      9  C   UNL     1      15.270  12.259  32.892  0.00  0.00    +0.000 A 
ENDROOT
BRANCH   2  10
ATOM     10  C   UNL     1      13.953  12.078  36.271  0.00  0.00    +0.000 C 
ATOM     11  O   UNL     1      14.423  12.717  37.232  0.00  0.00    +0.000 OA
BRANCH  10  12
ATOM     12  O   UNL     1      13.048  11.069  36.543  0.00  0.00    +0.000 OA
BRANCH  12  13
ATOM     13  C   UNL     1      12.436  10.949  37.836  0.00  0.00    +0.000 C 
ATOM     14  C   UNL     1      10.964  11.188  37.608  0.00  0.00    +0.000 C 
ENDBRANCH  12  13
ENDBRANCH  10  12
ENDBRANCH   2  10
BRANCH   1  15
ATOM     15  N   UNL     1      15.920  10.504  34.537  0.00  0.00    +0.000 NA
BRANCH  15  16
ATOM     16  C   UNL     1      17.133  10.476  35.261  0.00  0.00    +0.000 C 
ATOM     17  S   UNL     1      18.224   9.274  35.142  0.00  0.00    +0.000 S 
BRANCH  16  18
ATOM     18  N   UNL     1      17.419  11.548  36.137  0.00  0.00    +0.000 NA
BRANCH  18  20
ATOM     19  C   UNL     1      16.857  10.525  38.220  0.00  0.00    +0.000 C 
ATOM     20  C   UNL     1      17.908  11.294  37.456  0.00  0.00    +0.000 C 
ENDBRANCH  18  20
ENDBRANCH  16  18
ENDBRANCH  15  16
ENDBRANCH   1  15
TORSDOF 7
ENDMDL
MODEL 5
REMARK VINA RESULT:      -5.9      1.971      4.817
REMARK  Name = 
REMARK  7 active torsions:
REMARK  status: ('A' for Active; 'I' for Inactive)
REMARK    1  A    between atoms: C_2  and  N_3
REMARK    2  A    between atoms: N_3  and  C_4
REMARK    3  A    between atoms: C_4  and  N_6
REMARK    4  A    between atoms: N_6  and  C_7
REMARK    5  A    between atoms: C_8  and  C_9
REMARK    6  A    between atoms: C_9  and  O_11
REMARK    7  A    between atoms: O_11  and  C_12
REMARK                            x       y       z     vdW  Elec       q    Type
REMARK                         _______ _______ _______ _____ _____    ______ ____
ROOT
ATOM      1  C   UNL     1      15.394  11.759  36.466  0.00  0.00    +0.000 A 
ATOM      2  C   UNL     1      16.275  11.193  37.358  0.00  0.00    +0.000 A 
ATOM      3  N   UNL     1      15.585  10.670  38.383  0.00  0.00    +0.000 NA
ATOM      4  C   UNL     1      14.279  10.889  38.169  0.00  0.00    +0.000 A 
ATOM      5  C   UNL     1      13.131  10.562  38.906  0.00  0.00    +0.000 A 
ATOM      6  C   UNL     1      11.879  10.905  38.465  0.00  0.00    +0.000 A 
ATOM      7  C   UNL     1      11.732  11.581  37.278  0.00  0.00    +0.000 A 
ATOM      8  C   UNL     1      12.860  11.896  36.563  0.00  0.00    +0.000 A 
ATOM      9  C   UNL     1      14.143  11.558  36.992  0.00  0.00    +0.000 A 
ENDROOT
BRANCH   2  10
ATOM     10  C   UNL     1      17.746  11.162  37.212  0.00  0.00    +0.000 C 
ATOM     11  O   UNL     1      18.314  10.416  36.392  0.00  0.00    +0.000 OA
BRANCH  10  12
ATOM     12  O   UNL     1      18.532  11.981  38.000  0.00  0.00    +0.000 OA
BRANCH  12  13
ATOM     13  C   UNL     1      19.759  11.504  38.571  0.00  0.00    +0.000 C 
ATOM     14  C   UNL     1      19.350  10.548  39.666  0.00  0.00    +0.000 C 
ENDBRANCH  12  13
ENDBRANCH  10  12
ENDBRANCH   2  10
BRANCH   1  15
ATOM     15  N   UNL     1      15.733  12.408  35.275  0.00  0.00    +0.000 NA
BRANCH  15  16
ATOM     16  C   UNL     1      15.534  11.926  33.961  0.00  0.00    +0.000 C 
ATOM     17  S   UNL     1      16.379  10.693  33.318  0.00  0.00    +0.000 S 
BRANCH  16  18
ATOM     18  N   UNL     1      14.549  12.545  33.159  0.00  0.00    +0.000 NA
BRANCH  18  20
ATOM     19  C   UNL     1      13.987  13.614  31.099  0.00  0.00    +0.000 C 
ATOM     20  C   UNL     1      14.557  12.371  31.739  0.00  0.00    +0.000 C 
ENDBRANCH  18  20
ENDBRANCH  16  18
ENDBRANCH  15  16
ENDBRANCH   1  15
TORSDOF 7
ENDMDL
MODEL 6
REMARK VINA RESULT:      -5.8     19.051     20.502
REMARK  Name = 
REMARK  7 active torsions:
REMARK  status: ('A' for Active; 'I' for Inactive)
REMARK    1  A    between atoms: C_2  and  N_3
REMARK    2  A    between atoms: N_3  and  C_4
REMARK    3  A    between atoms: C_4  and  N_6
REMARK    4  A    between atoms: N_6  and  C_7
REMARK    5  A    between atoms: C_8  and  C_9
REMARK    6  A    between atoms: C_9  and  O_11
REMARK    7  A    between atoms: O_11  and  C_12
REMARK                            x       y       z     vdW  Elec       q    Type
REMARK                         _______ _______ _______ _____ _____    ______ ____
ROOT
ATOM      1  C   UNL     1      27.063  23.346  24.680  0.00  0.00    +0.000 A 
ATOM      2  C   UNL     1      27.512  23.383  23.380  0.00  0.00    +0.000 A 
ATOM      3  N   UNL     1      28.812  23.050  23.357  0.00  0.00    +0.000 NA
ATOM      4  C   UNL     1      29.207  22.800  24.614  0.00  0.00    +0.000 A 
ATOM      5  C   UNL     1      30.441  22.417  25.161  0.00  0.00    +0.000 A 
ATOM      6  C   UNL     1      30.593  22.219  26.508  0.00  0.00    +0.000 A 
ATOM      7  C   UNL     1      29.524  22.395  27.353  0.00  0.00    +0.000 A 
ATOM      8  C   UNL     1      28.320  22.769  26.810  0.00  0.00    +0.000 A 
ATOM      9  C   UNL     1      28.142  22.977  25.443  0.00  0.00    +0.000 A 
ENDROOT
BRANCH   2  10
ATOM     10  C   UNL     1      26.697  23.732  22.198  0.00  0.00    +0.000 C 
ATOM     11  O   UNL     1      25.713  23.052  21.849  0.00  0.00    +0.000 OA
BRANCH  10  12
ATOM     12  O   UNL     1      27.020  24.844  21.444  0.00  0.00    +0.000 OA
BRANCH  12  13
ATOM     13  C   UNL     1      27.662  25.982  22.038  0.00  0.00    +0.000 C 
ATOM     14  C   UNL     1      28.976  26.130  21.310  0.00  0.00    +0.000 C 
ENDBRANCH  12  13
ENDBRANCH  10  12
ENDBRANCH   2  10
BRANCH   1  15
ATOM     15  N   UNL     1      25.764  23.636  25.109  0.00  0.00    +0.000 NA
BRANCH  15  16
ATOM     16  C   UNL     1      25.339  24.791  25.804  0.00  0.00    +0.000 C 
ATOM     17  S   UNL     1      25.338  26.283  25.152  0.00  0.00    +0.000 S 
BRANCH  16  18
ATOM     18  N   UNL     1      24.891  24.649  27.136  0.00  0.00    +0.000 NA
BRANCH  18  20
ATOM     19  C   UNL     1      25.907  24.142  29.237  0.00  0.00    +0.000 C 
ATOM     20  C   UNL     1      25.635  25.220  28.216  0.00  0.00    +0.000 C 
ENDBRANCH  18  20
ENDBRANCH  16  18
ENDBRANCH  15  16
ENDBRANCH   1  15
TORSDOF 7
ENDMDL
MODEL 7
REMARK VINA RESULT:      -5.8     18.577     20.267
REMARK  Name = 
REMARK  7 active torsions:
REMARK  status: ('A' for Active; 'I' for Inactive)
REMARK    1  A    between atoms: C_2  and  N_3
REMARK    2  A    between atoms: N_3  and  C_4
REMARK    3  A    between atoms: C_4  and  N_6
REMARK    4  A    between atoms: N_6  and  C_7
REMARK    5  A    between atoms: C_8  and  C_9
REMARK    6  A    between atoms: C_9  and  O_11
REMARK    7  A    between atoms: O_11  and  C_12
REMARK                            x       y       z     vdW  Elec       q    Type
REMARK                         _______ _______ _______ _____ _____    ______ ____
ROOT
ATOM      1  C   UNL     1      26.352  23.446  25.621  0.00  0.00    +0.000 A 
ATOM      2  C   UNL     1      25.755  23.851  24.449  0.00  0.00    +0.000 A 
ATOM      3  N   UNL     1      24.871  24.823  24.722  0.00  0.00    +0.000 NA
ATOM      4  C   UNL     1      24.888  25.051  26.044  0.00  0.00    +0.000 A 
ATOM      5  C   UNL     1      24.176  25.944  26.859  0.00  0.00    +0.000 A 
ATOM      6  C   UNL     1      24.376  25.986  28.214  0.00  0.00    +0.000 A 
ATOM      7  C   UNL     1      25.290  25.142  28.799  0.00  0.00    +0.000 A 
ATOM      8  C   UNL     1      25.982  24.272  27.994  0.00  0.00    +0.000 A 
ATOM      9  C   UNL     1      25.794  24.212  26.614  0.00  0.00    +0.000 A 
ENDROOT
BRANCH   2  10
ATOM     10  C   UNL     1      26.041  23.305  23.106  0.00  0.00    +0.000 C 
ATOM     11  O   UNL     1      25.185  22.682  22.449  0.00  0.00    +0.000 OA
BRANCH  10  12
ATOM     12  O   UNL     1      27.291  23.482  22.543  0.00  0.00    +0.000 OA
BRANCH  12  13
ATOM     13  C   UNL     1      27.772  24.790  22.203  0.00  0.00    +0.000 C 
ATOM     14  C   UNL     1      29.114  24.569  21.548  0.00  0.00    +0.000 C 
ENDBRANCH  12  13
ENDBRANCH  10  12
ENDBRANCH   2  10
BRANCH   1  15
ATOM     15  N   UNL     1      27.323  22.448  25.747  0.00  0.00    +0.000 NA
BRANCH  15  16
ATOM     16  C   UNL     1      28.697  22.632  26.024  0.00  0.00    +0.000 C 
ATOM     17  S   UNL     1      29.391  22.223  27.438  0.00  0.00    +0.000 S 
BRANCH  16  18
ATOM     18  N   UNL     1      29.515  23.203  25.023  0.00  0.00    +0.000 NA
BRANCH  18  20
ATOM     19  C   UNL     1      31.831  23.475  24.507  0.00  0.00    +0.000 C 
ATOM     20  C   UNL     1      30.672  22.508  24.551  0.00  0.00    +0.000 C 
ENDBRANCH  18  20
ENDBRANCH  16  18
ENDBRANCH  15  16
ENDBRANCH   1  15
TORSDOF 7
ENDMDL
MODEL 8
REMARK VINA RESULT:      -5.6     18.648     19.903
REMARK  Name = 
REMARK  7 active torsions:
REMARK  status: ('A' for Active; 'I' for Inactive)
REMARK    1  A    between atoms: C_2  and  N_3
REMARK    2  A    between atoms: N_3  and  C_4
REMARK    3  A    between atoms: C_4  and  N_6
REMARK    4  A    between atoms: N_6  and  C_7
REMARK    5  A    between atoms: C_8  and  C_9
REMARK    6  A    between atoms: C_9  and  O_11
REMARK    7  A    between atoms: O_11  and  C_12
REMARK                            x       y       z     vdW  Elec       q    Type
REMARK                         _______ _______ _______ _____ _____    ______ ____
ROOT
ATOM      1  C   UNL     1      26.377  23.394  25.604  0.00  0.00    +0.000 A 
ATOM      2  C   UNL     1      25.823  23.863  24.436  0.00  0.00    +0.000 A 
ATOM      3  N   UNL     1      24.991  24.876  24.722  0.00  0.00    +0.000 NA
ATOM      4  C   UNL     1      24.999  25.068  26.049  0.00  0.00    +0.000 A 
ATOM      5  C   UNL     1      24.325  25.978  26.879  0.00  0.00    +0.000 A 
ATOM      6  C   UNL     1      24.506  25.972  28.237  0.00  0.00    +0.000 A 
ATOM      7  C   UNL     1      25.361  25.063  28.812  0.00  0.00    +0.000 A 
ATOM      8  C   UNL     1      26.016  24.177  27.994  0.00  0.00    +0.000 A 
ATOM      9  C   UNL     1      25.847  24.164  26.609  0.00  0.00    +0.000 A 
ENDROOT
BRANCH   2  10
ATOM     10  C   UNL     1      26.099  23.337  23.082  0.00  0.00    +0.000 C 
ATOM     11  O   UNL     1      25.240  22.717  22.426  0.00  0.00    +0.000 OA
BRANCH  10  12
ATOM     12  O   UNL     1      27.342  23.530  22.510  0.00  0.00    +0.000 OA
BRANCH  12  13
ATOM     13  C   UNL     1      27.701  24.791  21.925  0.00  0.00    +0.000 C 
ATOM     14  C   UNL     1      29.141  24.640  21.498  0.00  0.00    +0.000 C 
ENDBRANCH  12  13
ENDBRANCH  10  12
ENDBRANCH   2  10
BRANCH   1  15
ATOM     15  N   UNL     1      27.289  22.339  25.717  0.00  0.00    +0.000 NA
BRANCH  15  16
ATOM     16  C   UNL     1      28.663  22.438  26.031  0.00  0.00    +0.000 C 
ATOM     17  S   UNL     1      29.812  22.802  24.938  0.00  0.00    +0.000 S 
BRANCH  16  18
ATOM     18  N   UNL     1      29.067  22.208  27.366  0.00  0.00    +0.000 NA
BRANCH  18  20
ATOM     19  C   UNL     1      29.255  23.038  29.597  0.00  0.00    +0.000 C 
ATOM     20  C   UNL     1      29.616  23.270  28.150  0.00  0.00    +0.000 C 
ENDBRANCH  18  20
ENDBRANCH  16  18
ENDBRANCH  15  16
ENDBRANCH   1  15
TORSDOF 7
ENDMDL
MODEL 9
REMARK VINA RESULT:      -5.3     20.244     21.717
REMARK  Name = 
REMARK  7 active torsions:
REMARK  status: ('A' for Active; 'I' for Inactive)
REMARK    1  A    between atoms: C_2  and  N_3
REMARK    2  A    between atoms: N_3  and  C_4
REMARK    3  A    between atoms: C_4  and  N_6
REMARK    4  A    between atoms: N_6  and  C_7
REMARK    5  A    between atoms: C_8  and  C_9
REMARK    6  A    between atoms: C_9  and  O_11
REMARK    7  A    between atoms: O_11  and  C_12
REMARK                            x       y       z     vdW  Elec       q    Type
REMARK                         _______ _______ _______ _____ _____    ______ ____
ROOT
ATOM      1  C   UNL     1      19.678  -8.134  26.435  0.00  0.00    +0.000 A 
ATOM      2  C   UNL     1      19.055  -6.914  26.309  0.00  0.00    +0.000 A 
ATOM      3  N   UNL     1      19.853  -6.084  25.619  0.00  0.00    +0.000 NA
ATOM      4  C   UNL     1      20.975  -6.746  25.299  0.00  0.00    +0.000 A 
ATOM      5  C   UNL     1      22.129  -6.369  24.595  0.00  0.00    +0.000 A 
ATOM      6  C   UNL     1      23.162  -7.247  24.397  0.00  0.00    +0.000 A 
ATOM      7  C   UNL     1      23.079  -8.526  24.892  0.00  0.00    +0.000 A 
ATOM      8  C   UNL     1      21.948  -8.887  25.579  0.00  0.00    +0.000 A 
ATOM      9  C   UNL     1      20.885  -8.010  25.794  0.00  0.00    +0.000 A 
ENDROOT
BRANCH   2  10
ATOM     10  C   UNL     1      17.722  -6.570  26.846  0.00  0.00    +0.000 C 
ATOM     11  O   UNL     1      17.448  -5.426  27.255  0.00  0.00    +0.000 OA
BRANCH  10  12
ATOM     12  O   UNL     1      16.733  -7.534  26.903  0.00  0.00    +0.000 OA
BRANCH  12  13
ATOM     13  C   UNL     1      16.076  -7.993  25.712  0.00  0.00    +0.000 C 
ATOM     14  C   UNL     1      15.118  -9.066  26.169  0.00  0.00    +0.000 C 
ENDBRANCH  12  13
ENDBRANCH  10  12
ENDBRANCH   2  10
BRANCH   1  15
ATOM     15  N   UNL     1      19.164  -9.255  27.095  0.00  0.00    +0.000 NA
BRANCH  15  16
ATOM     16  C   UNL     1      19.361  -9.606  28.449  0.00  0.00    +0.000 C 
ATOM     17  S   UNL     1      20.669 -10.411  28.989  0.00  0.00    +0.000 S 
BRANCH  16  18
ATOM     18  N   UNL     1      18.372  -9.241  29.390  0.00  0.00    +0.000 NA
BRANCH  18  20
ATOM     19  C   UNL     1      17.109 -10.025  31.259  0.00  0.00    +0.000 C 
ATOM     20  C   UNL     1      17.361 -10.174  29.778  0.00  0.00    +0.000 C 
ENDBRANCH  18  20
ENDBRANCH  16  18
ENDBRANCH  15  16
ENDBRANCH   1  15
TORSDOF 7
ENDMDL
MODEL 10
REMARK VINA RESULT:      -5.3     17.670     19.051
REMARK  Name = 
REMARK  7 active torsions:
REMARK  status: ('A' for Active; 'I' for Inactive)
REMARK    1  A    between atoms: C_2  and  N_3
REMARK    2  A    between atoms: N_3  and  C_4
REMARK    3  A    between atoms: C_4  and  N_6
REMARK    4  A    between atoms: N_6  and  C_7
REMARK    5  A    between atoms: C_8  and  C_9
REMARK    6  A    between atoms: C_9  and  O_11
REMARK    7  A    between atoms: O_11  and  C_12
REMARK                            x       y       z     vdW  Elec       q    Type
REMARK                         _______ _______ _______ _____ _____    ______ ____
ROOT
ATOM      1  C   UNL     1      28.632  22.547  29.248  0.00  0.00    +0.000 A 
ATOM      2  C   UNL     1      27.265  22.686  29.191  0.00  0.00    +0.000 A 
ATOM      3  N   UNL     1      26.888  22.792  27.907  0.00  0.00    +0.000 NA
ATOM      4  C   UNL     1      27.985  22.724  27.138  0.00  0.00    +0.000 A 
ATOM      5  C   UNL     1      28.172  22.781  25.748  0.00  0.00    +0.000 A 
ATOM      6  C   UNL     1      29.422  22.687  25.193  0.00  0.00    +0.000 A 
ATOM      7  C   UNL     1      30.522  22.534  26.002  0.00  0.00    +0.000 A 
ATOM      8  C   UNL     1      30.330  22.479  27.360  0.00  0.00    +0.000 A 
ATOM      9  C   UNL     1      29.069  22.573  27.947  0.00  0.00    +0.000 A 
ENDROOT
BRANCH   2  10
ATOM     10  C   UNL     1      26.354  22.713  30.355  0.00  0.00    +0.000 C 
ATOM     11  O   UNL     1      25.816  21.680  30.798  0.00  0.00    +0.000 OA
BRANCH  10  12
ATOM     12  O   UNL     1      26.079  23.912  30.985  0.00  0.00    +0.000 OA
BRANCH  12  13
ATOM     13  C   UNL     1      25.640  25.057  30.240  0.00  0.00    +0.000 C 
ATOM     14  C   UNL     1      24.898  25.922  31.230  0.00  0.00    +0.000 C 
ENDBRANCH  12  13
ENDBRANCH  10  12
ENDBRANCH   2  10
BRANCH   1  15
ATOM     15  N   UNL     1      29.398  22.414  30.410  0.00  0.00    +0.000 NA
BRANCH  15  16
ATOM     16  C   UNL     1      30.274  23.375  30.963  0.00  0.00    +0.000 C 
ATOM     17  S   UNL     1      29.768  24.700  31.761  0.00  0.00    +0.000 S 
BRANCH  16  18
ATOM     18  N   UNL     1      31.666  23.180  30.816  0.00  0.00    +0.000 NA
BRANCH  18  20
ATOM     19  C   UNL     1      32.946  21.515  29.680  0.00  0.00    +0.000 C 
ATOM     20  C   UNL     1      32.234  21.876  30.961  0.00  0.00    +0.000 C 
ENDBRANCH  18  20
ENDBRANCH  16  18
ENDBRANCH  15  16
ENDBRANCH   1  15
TORSDOF 7
ENDMDL
