MODEL 1
REMARK VINA RESULT:      -7.5      0.000      0.000
REMARK  Name = 
REMARK  8 active torsions:
REMARK  status: ('A' for Active; 'I' for Inactive)
REMARK    1  A    between atoms: C_2  and  C_4
REMARK    2  A    between atoms: C_4  and  N_5
REMARK    3  A    between atoms: C_6  and  S_7
REMARK    4  A    between atoms: S_7  and  C_8
REMARK    5  A    between atoms: C_8  and  C_9
REMARK    6  A    between atoms: N_11  and  C_12
REMARK    7  A    between atoms: C_17  and  C_18
REMARK    8  A    between atoms: N_20  and  C_21
REMARK                            x       y       z     vdW  Elec       q    Type
REMARK                         _______ _______ _______ _____ _____    ______ ____
ROOT
ATOM      1  C   UNL     1      36.076   1.671  14.483  0.00  0.00    +0.000 C 
ENDROOT
BRANCH   1   2
ATOM      2  C   UNL     1      36.999   0.548  14.293  0.00  0.00    +0.000 C 
ATOM      3  O   UNL     1      36.875  -0.393  13.482  0.00  0.00    +0.000 OA
ATOM      4  N   UNL     1      38.187   0.486  15.111  0.00  0.00    +0.000 NA
BRANCH   4   5
ATOM      5  C   UNL     1      39.151  -0.509  15.042  0.00  0.00    +0.000 A 
ATOM      6  C   UNL     1      40.285  -0.355  14.285  0.00  0.00    +0.000 A 
ATOM      7  C   UNL     1      41.208  -1.348  14.258  0.00  0.00    +0.000 A 
ATOM      8  C   UNL     1      41.065  -2.522  14.962  0.00  0.00    +0.000 A 
ATOM      9  C   UNL     1      39.915  -2.688  15.737  0.00  0.00    +0.000 A 
ATOM     10  C   UNL     1      38.988  -1.671  15.754  0.00  0.00    +0.000 A 
BRANCH  10  11
ATOM     11  C   UNL     1      37.801  -1.868  16.564  0.00  0.00    +0.000 C 
ATOM     12  O   UNL     1      36.979  -2.758  16.224  0.00  0.00    +0.000 OA
ATOM     13  N   UNL     1      37.532  -1.100  17.720  0.00  0.00    +0.000 NA
BRANCH  13  14
ATOM     14  C   UNL     1      36.314  -1.379  18.459  0.00  0.00    +0.000 C 
ATOM     15  C   UNL     1      35.703  -0.291  19.284  0.00  0.00    +0.000 C 
ATOM     16  C   UNL     1      35.099  -0.724  17.936  0.00  0.00    +0.000 C 
ENDBRANCH  13  14
ENDBRANCH  10  11
ENDBRANCH   4   5
ENDBRANCH   1   2
BRANCH   1  17
ATOM     17  S   UNL     1      36.097   2.548  15.994  0.00  0.00    +0.000 S 
BRANCH  17  19
ATOM     18  N   UNL     1      38.364   4.224  15.576  0.00  0.00    +0.000 N 
ATOM     19  C   UNL     1      37.497   3.574  16.343  0.00  0.00    +0.000 A 
ATOM     20  N   UNL     1      37.793   3.930  17.641  0.00  0.00    +0.000 NA
ATOM     21  C   UNL     1      38.816   4.782  17.656  0.00  0.00    +0.000 A 
ATOM     22  C   UNL     1      39.443   5.401  18.743  0.00  0.00    +0.000 A 
ATOM     23  C   UNL     1      40.520   6.276  18.442  0.00  0.00    +0.000 A 
ATOM     24  C   UNL     1      40.883   6.468  17.146  0.00  0.00    +0.000 A 
ATOM     25  C   UNL     1      40.244   5.841  16.115  0.00  0.00    +0.000 A 
ATOM     26  C   UNL     1      39.185   4.978  16.363  0.00  0.00    +0.000 A 
BRANCH  18  27
ATOM     27  C   UNL     1      38.530   4.107  14.162  0.00  0.00    +0.000 C 
BRANCH  27  29
ATOM     28  C   UNL     1      36.502   4.907  12.845  0.00  0.00    +0.000 C 
ATOM     29  C   UNL     1      37.842   5.182  13.392  0.00  0.00    +0.000 C 
ATOM     30  C   UNL     1      38.743   5.958  12.485  0.00  0.00    +0.000 C 
ENDBRANCH  27  29
ENDBRANCH  18  27
ENDBRANCH  17  19
ENDBRANCH   1  17
TORSDOF 8
ENDMDL
MODEL 2
REMARK VINA RESULT:      -7.2      2.463      7.624
REMARK  Name = 
REMARK  8 active torsions:
REMARK  status: ('A' for Active; 'I' for Inactive)
REMARK    1  A    between atoms: C_2  and  C_4
REMARK    2  A    between atoms: C_4  and  N_5
REMARK    3  A    between atoms: C_6  and  S_7
REMARK    4  A    between atoms: S_7  and  C_8
REMARK    5  A    between atoms: C_8  and  C_9
REMARK    6  A    between atoms: N_11  and  C_12
REMARK    7  A    between atoms: C_17  and  C_18
REMARK    8  A    between atoms: N_20  and  C_21
REMARK                            x       y       z     vdW  Elec       q    Type
REMARK                         _______ _______ _______ _____ _____    ______ ____
ROOT
ATOM      1  C   UNL     1      37.597   2.329  14.794  0.00  0.00    +0.000 C 
ENDROOT
BRANCH   1   2
ATOM      2  C   UNL     1      37.535   3.313  15.879  0.00  0.00    +0.000 C 
ATOM      3  O   UNL     1      36.667   3.386  16.774  0.00  0.00    +0.000 OA
ATOM      4  N   UNL     1      38.566   4.321  15.955  0.00  0.00    +0.000 NA
BRANCH   4   5
ATOM      5  C   UNL     1      38.644   5.311  16.924  0.00  0.00    +0.000 A 
ATOM      6  C   UNL     1      39.091   5.037  18.192  0.00  0.00    +0.000 A 
ATOM      7  C   UNL     1      39.163   6.039  19.103  0.00  0.00    +0.000 A 
ATOM      8  C   UNL     1      38.806   7.338  18.818  0.00  0.00    +0.000 A 
ATOM      9  C   UNL     1      38.351   7.626  17.530  0.00  0.00    +0.000 A 
ATOM     10  C   UNL     1      38.283   6.599  16.617  0.00  0.00    +0.000 A 
BRANCH  10  11
ATOM     11  C   UNL     1      37.805   6.923  15.287  0.00  0.00    +0.000 C 
ATOM     12  O   UNL     1      38.616   7.408  14.456  0.00  0.00    +0.000 OA
ATOM     13  N   UNL     1      36.465   6.715  14.887  0.00  0.00    +0.000 NA
BRANCH  13  14
ATOM     14  C   UNL     1      36.091   7.075  13.531  0.00  0.00    +0.000 C 
ATOM     15  C   UNL     1      35.212   6.147  12.753  0.00  0.00    +0.000 C 
ATOM     16  C   UNL     1      34.677   7.460  13.352  0.00  0.00    +0.000 C 
ENDBRANCH  13  14
ENDBRANCH  10  11
ENDBRANCH   4   5
ENDBRANCH   1   2
BRANCH   1  17
ATOM     17  S   UNL     1      36.640   0.872  14.907  0.00  0.00    +0.000 S 
BRANCH  17  19
ATOM     18  N   UNL     1      38.002  -1.334  16.090  0.00  0.00    +0.000 N 
ATOM     19  C   UNL     1      37.114  -0.347  16.100  0.00  0.00    +0.000 A 
ATOM     20  N   UNL     1      36.600  -0.306  17.377  0.00  0.00    +0.000 NA
ATOM     21  C   UNL     1      37.171  -1.248  18.126  0.00  0.00    +0.000 A 
ATOM     22  C   UNL     1      36.960  -1.565  19.473  0.00  0.00    +0.000 A 
ATOM     23  C   UNL     1      37.730  -2.633  20.003  0.00  0.00    +0.000 A 
ATOM     24  C   UNL     1      38.614  -3.282  19.200  0.00  0.00    +0.000 A 
ATOM     25  C   UNL     1      38.788  -2.942  17.890  0.00  0.00    +0.000 A 
ATOM     26  C   UNL     1      38.056  -1.903  17.329  0.00  0.00    +0.000 A 
BRANCH  18  27
ATOM     27  C   UNL     1      38.729  -1.836  14.968  0.00  0.00    +0.000 C 
BRANCH  27  29
ATOM     28  C   UNL     1      40.368  -0.074  14.138  0.00  0.00    +0.000 C 
ATOM     29  C   UNL     1      40.124  -1.320  14.885  0.00  0.00    +0.000 C 
ATOM     30  C   UNL     1      41.160  -2.381  14.690  0.00  0.00    +0.000 C 
ENDBRANCH  27  29
ENDBRANCH  18  27
ENDBRANCH  17  19
ENDBRANCH   1  17
TORSDOF 8
ENDMDL
MODEL 3
REMARK VINA RESULT:      -7.1      2.401      7.311
REMARK  Name = 
REMARK  8 active torsions:
REMARK  status: ('A' for Active; 'I' for Inactive)
REMARK    1  A    between atoms: C_2  and  C_4
REMARK    2  A    between atoms: C_4  and  N_5
REMARK    3  A    between atoms: C_6  and  S_7
REMARK    4  A    between atoms: S_7  and  C_8
REMARK    5  A    between atoms: C_8  and  C_9
REMARK    6  A    between atoms: N_11  and  C_12
REMARK    7  A    between atoms: C_17  and  C_18
REMARK    8  A    between atoms: N_20  and  C_21
REMARK                            x       y       z     vdW  Elec       q    Type
REMARK                         _______ _______ _______ _____ _____    ______ ____
ROOT
ATOM      1  C   UNL     1      36.307   3.017  16.569  0.00  0.00    +0.000 C 
ENDROOT
BRANCH   1   2
ATOM      2  C   UNL     1      37.183   3.901  15.796  0.00  0.00    +0.000 C 
ATOM      3  O   UNL     1      36.833   4.730  14.930  0.00  0.00    +0.000 OA
ATOM      4  N   UNL     1      38.607   3.837  16.028  0.00  0.00    +0.000 NA
BRANCH   4   5
ATOM      5  C   UNL     1      39.556   4.612  15.379  0.00  0.00    +0.000 A 
ATOM      6  C   UNL     1      40.011   4.288  14.126  0.00  0.00    +0.000 A 
ATOM      7  C   UNL     1      40.930   5.083  13.525  0.00  0.00    +0.000 A 
ATOM      8  C   UNL     1      41.439   6.218  14.114  0.00  0.00    +0.000 A 
ATOM      9  C   UNL     1      40.981   6.558  15.390  0.00  0.00    +0.000 A 
ATOM     10  C   UNL     1      40.049   5.740  15.986  0.00  0.00    +0.000 A 
BRANCH  10  11
ATOM     11  C   UNL     1      39.592   6.112  17.312  0.00  0.00    +0.000 C 
ATOM     12  O   UNL     1      40.120   5.558  18.310  0.00  0.00    +0.000 OA
ATOM     13  N   UNL     1      38.577   7.073  17.525  0.00  0.00    +0.000 NA
BRANCH  13  14
ATOM     14  C   UNL     1      38.194   7.372  18.893  0.00  0.00    +0.000 C 
ATOM     15  C   UNL     1      38.625   8.671  19.498  0.00  0.00    +0.000 C 
ATOM     16  C   UNL     1      37.175   8.430  19.042  0.00  0.00    +0.000 C 
ENDBRANCH  13  14
ENDBRANCH  10  11
ENDBRANCH   4   5
ENDBRANCH   1   2
BRANCH   1  17
ATOM     17  S   UNL     1      35.940   1.424  15.952  0.00  0.00    +0.000 S 
BRANCH  17  19
ATOM     18  N   UNL     1      37.404  -0.986  16.367  0.00  0.00    +0.000 N 
ATOM     19  C   UNL     1      37.253   0.238  15.875  0.00  0.00    +0.000 A 
ATOM     20  N   UNL     1      38.358   0.474  15.088  0.00  0.00    +0.000 NA
ATOM     21  C   UNL     1      39.161  -0.589  15.102  0.00  0.00    +0.000 A 
ATOM     22  C   UNL     1      40.381  -0.792  14.448  0.00  0.00    +0.000 A 
ATOM     23  C   UNL     1      41.011  -2.047  14.653  0.00  0.00    +0.000 A 
ATOM     24  C   UNL     1      40.416  -2.971  15.454  0.00  0.00    +0.000 A 
ATOM     25  C   UNL     1      39.224  -2.731  16.075  0.00  0.00    +0.000 A 
ATOM     26  C   UNL     1      38.572  -1.517  15.902  0.00  0.00    +0.000 A 
BRANCH  18  27
ATOM     27  C   UNL     1      36.571  -1.648  17.320  0.00  0.00    +0.000 C 
BRANCH  27  29
ATOM     28  C   UNL     1      37.437  -2.070  19.677  0.00  0.00    +0.000 C 
ATOM     29  C   UNL     1      36.773  -1.171  18.717  0.00  0.00    +0.000 C 
ATOM     30  C   UNL     1      35.620  -0.399  19.275  0.00  0.00    +0.000 C 
ENDBRANCH  27  29
ENDBRANCH  18  27
ENDBRANCH  17  19
ENDBRANCH   1  17
TORSDOF 8
ENDMDL
MODEL 4
REMARK VINA RESULT:      -7.0      2.516      4.940
REMARK  Name = 
REMARK  8 active torsions:
REMARK  status: ('A' for Active; 'I' for Inactive)
REMARK    1  A    between atoms: C_2  and  C_4
REMARK    2  A    between atoms: C_4  and  N_5
REMARK    3  A    between atoms: C_6  and  S_7
REMARK    4  A    between atoms: S_7  and  C_8
REMARK    5  A    between atoms: C_8  and  C_9
REMARK    6  A    between atoms: N_11  and  C_12
REMARK    7  A    between atoms: C_17  and  C_18
REMARK    8  A    between atoms: N_20  and  C_21
REMARK                            x       y       z     vdW  Elec       q    Type
REMARK                         _______ _______ _______ _____ _____    ______ ____
ROOT
ATOM      1  C   UNL     1      38.672   4.591  14.755  0.00  0.00    +0.000 C 
ENDROOT
BRANCH   1   2
ATOM      2  C   UNL     1      37.977   3.604  15.587  0.00  0.00    +0.000 C 
ATOM      3  O   UNL     1      38.037   3.500  16.831  0.00  0.00    +0.000 OA
ATOM      4  N   UNL     1      37.127   2.634  14.941  0.00  0.00    +0.000 NA
BRANCH   4   5
ATOM      5  C   UNL     1      36.404   1.646  15.594  0.00  0.00    +0.000 A 
ATOM      6  C   UNL     1      35.366   1.958  16.436  0.00  0.00    +0.000 A 
ATOM      7  C   UNL     1      34.678   0.960  17.043  0.00  0.00    +0.000 A 
ATOM      8  C   UNL     1      34.970  -0.373  16.855  0.00  0.00    +0.000 A 
ATOM      9  C   UNL     1      36.023  -0.700  15.998  0.00  0.00    +0.000 A 
ATOM     10  C   UNL     1      36.712   0.324  15.391  0.00  0.00    +0.000 A 
BRANCH  10  11
ATOM     11  C   UNL     1      37.803  -0.041  14.508  0.00  0.00    +0.000 C 
ATOM     12  O   UNL     1      37.552  -0.245  13.292  0.00  0.00    +0.000 OA
ATOM     13  N   UNL     1      39.136  -0.176  14.959  0.00  0.00    +0.000 NA
BRANCH  13  14
ATOM     14  C   UNL     1      40.153  -0.546  13.991  0.00  0.00    +0.000 C 
ATOM     15  C   UNL     1      41.501   0.097  14.077  0.00  0.00    +0.000 C 
ATOM     16  C   UNL     1      41.264  -1.356  14.528  0.00  0.00    +0.000 C 
ENDBRANCH  13  14
ENDBRANCH  10  11
ENDBRANCH   4   5
ENDBRANCH   1   2
BRANCH   1  17
ATOM     17  S   UNL     1      38.378   6.292  15.022  0.00  0.00    +0.000 S 
BRANCH  17  19
ATOM     18  N   UNL     1      39.373   6.805  17.643  0.00  0.00    +0.000 N 
ATOM     19  C   UNL     1      38.463   6.903  16.682  0.00  0.00    +0.000 A 
ATOM     20  N   UNL     1      37.490   7.752  17.161  0.00  0.00    +0.000 NA
ATOM     21  C   UNL     1      37.810   8.163  18.387  0.00  0.00    +0.000 A 
ATOM     22  C   UNL     1      37.121   9.028  19.244  0.00  0.00    +0.000 A 
ATOM     23  C   UNL     1      37.721   9.285  20.505  0.00  0.00    +0.000 A 
ATOM     24  C   UNL     1      38.906   8.694  20.814  0.00  0.00    +0.000 A 
ATOM     25  C   UNL     1      39.544   7.854  19.947  0.00  0.00    +0.000 A 
ATOM     26  C   UNL     1      38.994   7.575  18.703  0.00  0.00    +0.000 A 
BRANCH  18  27
ATOM     27  C   UNL     1      40.525   5.960  17.664  0.00  0.00    +0.000 C 
BRANCH  27  29
ATOM     28  C   UNL     1      42.303   6.428  15.904  0.00  0.00    +0.000 C 
ATOM     29  C   UNL     1      41.780   6.655  17.262  0.00  0.00    +0.000 C 
ATOM     30  C   UNL     1      42.820   6.712  18.334  0.00  0.00    +0.000 C 
ENDBRANCH  27  29
ENDBRANCH  18  27
ENDBRANCH  17  19
ENDBRANCH   1  17
TORSDOF 8
ENDMDL
MODEL 5
REMARK VINA RESULT:      -7.0      2.243      7.226
REMARK  Name = 
REMARK  8 active torsions:
REMARK  status: ('A' for Active; 'I' for Inactive)
REMARK    1  A    between atoms: C_2  and  C_4
REMARK    2  A    between atoms: C_4  and  N_5
REMARK    3  A    between atoms: C_6  and  S_7
REMARK    4  A    between atoms: S_7  and  C_8
REMARK    5  A    between atoms: C_8  and  C_9
REMARK    6  A    between atoms: N_11  and  C_12
REMARK    7  A    between atoms: C_17  and  C_18
REMARK    8  A    between atoms: N_20  and  C_21
REMARK                            x       y       z     vdW  Elec       q    Type
REMARK                         _______ _______ _______ _____ _____    ______ ____
ROOT
ATOM      1  C   UNL     1      35.976   2.957  14.820  0.00  0.00    +0.000 C 
ENDROOT
BRANCH   1   2
ATOM      2  C   UNL     1      36.800   4.038  15.370  0.00  0.00    +0.000 C 
ATOM      3  O   UNL     1      36.616   5.265  15.227  0.00  0.00    +0.000 OA
ATOM      4  N   UNL     1      37.953   3.690  16.165  0.00  0.00    +0.000 NA
BRANCH   4   5
ATOM      5  C   UNL     1      38.819   4.599  16.755  0.00  0.00    +0.000 A 
ATOM      6  C   UNL     1      38.732   4.911  18.088  0.00  0.00    +0.000 A 
ATOM      7  C   UNL     1      39.608   5.795  18.624  0.00  0.00    +0.000 A 
ATOM      8  C   UNL     1      40.600   6.406  17.890  0.00  0.00    +0.000 A 
ATOM      9  C   UNL     1      40.698   6.094  16.532  0.00  0.00    +0.000 A 
ATOM     10  C   UNL     1      39.800   5.196  16.003  0.00  0.00    +0.000 A 
BRANCH  10  11
ATOM     11  C   UNL     1      39.922   4.890  14.590  0.00  0.00    +0.000 C 
ATOM     12  O   UNL     1      39.680   5.798  13.753  0.00  0.00    +0.000 OA
ATOM     13  N   UNL     1      40.301   3.613  14.117  0.00  0.00    +0.000 NA
BRANCH  13  14
ATOM     14  C   UNL     1      40.392   3.414  12.681  0.00  0.00    +0.000 C 
ATOM     15  C   UNL     1      40.702   2.046  12.159  0.00  0.00    +0.000 C 
ATOM     16  C   UNL     1      39.285   2.642  12.084  0.00  0.00    +0.000 C 
ENDBRANCH  13  14
ENDBRANCH  10  11
ENDBRANCH   4   5
ENDBRANCH   1   2
BRANCH   1  17
ATOM     17  S   UNL     1      35.741   1.501  15.757  0.00  0.00    +0.000 S 
BRANCH  17  19
ATOM     18  N   UNL     1      37.158  -0.910  16.306  0.00  0.00    +0.000 N 
ATOM     19  C   UNL     1      37.041   0.299  15.771  0.00  0.00    +0.000 A 
ATOM     20  N   UNL     1      38.181   0.500  15.025  0.00  0.00    +0.000 NA
ATOM     21  C   UNL     1      38.970  -0.570  15.104  0.00  0.00    +0.000 A 
ATOM     22  C   UNL     1      40.214  -0.806  14.508  0.00  0.00    +0.000 A 
ATOM     23  C   UNL     1      40.821  -2.061  14.778  0.00  0.00    +0.000 A 
ATOM     24  C   UNL     1      40.182  -2.953  15.581  0.00  0.00    +0.000 A 
ATOM     25  C   UNL     1      38.968  -2.681  16.144  0.00  0.00    +0.000 A 
ATOM     26  C   UNL     1      38.338  -1.467  15.907  0.00  0.00    +0.000 A 
BRANCH  18  27
ATOM     27  C   UNL     1      36.279  -1.533  17.244  0.00  0.00    +0.000 C 
BRANCH  27  29
ATOM     28  C   UNL     1      33.746  -1.735  17.416  0.00  0.00    +0.000 C 
ATOM     29  C   UNL     1      34.982  -1.962  16.647  0.00  0.00    +0.000 C 
ATOM     30  C   UNL     1      35.042  -3.271  15.927  0.00  0.00    +0.000 C 
ENDBRANCH  27  29
ENDBRANCH  18  27
ENDBRANCH  17  19
ENDBRANCH   1  17
TORSDOF 8
ENDMDL
MODEL 6
REMARK VINA RESULT:      -6.7      2.739      4.461
REMARK  Name = 
REMARK  8 active torsions:
REMARK  status: ('A' for Active; 'I' for Inactive)
REMARK    1  A    between atoms: C_2  and  C_4
REMARK    2  A    between atoms: C_4  and  N_5
REMARK    3  A    between atoms: C_6  and  S_7
REMARK    4  A    between atoms: S_7  and  C_8
REMARK    5  A    between atoms: C_8  and  C_9
REMARK    6  A    between atoms: N_11  and  C_12
REMARK    7  A    between atoms: C_17  and  C_18
REMARK    8  A    between atoms: N_20  and  C_21
REMARK                            x       y       z     vdW  Elec       q    Type
REMARK                         _______ _______ _______ _____ _____    ______ ____
ROOT
ATOM      1  C   UNL     1      37.845   4.931  16.085  0.00  0.00    +0.000 C 
ENDROOT
BRANCH   1   2
ATOM      2  C   UNL     1      38.129   3.918  15.064  0.00  0.00    +0.000 C 
ATOM      3  O   UNL     1      37.843   3.980  13.850  0.00  0.00    +0.000 OA
ATOM      4  N   UNL     1      38.806   2.708  15.464  0.00  0.00    +0.000 NA
BRANCH   4   5
ATOM      5  C   UNL     1      39.146   1.666  14.613  0.00  0.00    +0.000 A 
ATOM      6  C   UNL     1      40.235   1.747  13.782  0.00  0.00    +0.000 A 
ATOM      7  C   UNL     1      40.538   0.699  12.977  0.00  0.00    +0.000 A 
ATOM      8  C   UNL     1      39.798  -0.462  12.949  0.00  0.00    +0.000 A 
ATOM      9  C   UNL     1      38.689  -0.555  13.793  0.00  0.00    +0.000 A 
ATOM     10  C   UNL     1      38.395   0.518  14.603  0.00  0.00    +0.000 A 
BRANCH  10  11
ATOM     11  C   UNL     1      37.236   0.398  15.468  0.00  0.00    +0.000 C 
ATOM     12  O   UNL     1      36.139   0.874  15.076  0.00  0.00    +0.000 OA
ATOM     13  N   UNL     1      37.291  -0.231  16.733  0.00  0.00    +0.000 NA
BRANCH  13  14
ATOM     14  C   UNL     1      36.072  -0.296  17.519  0.00  0.00    +0.000 C 
ATOM     15  C   UNL     1      36.093  -1.022  18.827  0.00  0.00    +0.000 C 
ATOM     16  C   UNL     1      36.077   0.515  18.752  0.00  0.00    +0.000 C 
ENDBRANCH  13  14
ENDBRANCH  10  11
ENDBRANCH   4   5
ENDBRANCH   1   2
BRANCH   1  17
ATOM     17  S   UNL     1      38.748   4.913  17.581  0.00  0.00    +0.000 S 
BRANCH  17  19
ATOM     18  N   UNL     1      39.636   6.880  19.441  0.00  0.00    +0.000 N 
ATOM     19  C   UNL     1      38.778   6.391  18.554  0.00  0.00    +0.000 A 
ATOM     20  N   UNL     1      37.821   7.365  18.371  0.00  0.00    +0.000 NA
ATOM     21  C   UNL     1      38.098   8.423  19.130  0.00  0.00    +0.000 A 
ATOM     22  C   UNL     1      37.407   9.633  19.258  0.00  0.00    +0.000 A 
ATOM     23  C   UNL     1      37.955  10.587  20.155  0.00  0.00    +0.000 A 
ATOM     24  C   UNL     1      39.097  10.290  20.831  0.00  0.00    +0.000 A 
ATOM     25  C   UNL     1      39.740   9.095  20.676  0.00  0.00    +0.000 A 
ATOM     26  C   UNL     1      39.239   8.133  19.809  0.00  0.00    +0.000 A 
BRANCH  18  27
ATOM     27  C   UNL     1      40.747   6.208  20.036  0.00  0.00    +0.000 C 
BRANCH  27  29
ATOM     28  C   UNL     1      42.433   6.543  18.158  0.00  0.00    +0.000 C 
ATOM     29  C   UNL     1      42.068   6.721  19.574  0.00  0.00    +0.000 C 
ATOM     30  C   UNL     1      43.185   6.499  20.542  0.00  0.00    +0.000 C 
ENDBRANCH  27  29
ENDBRANCH  18  27
ENDBRANCH  17  19
ENDBRANCH   1  17
TORSDOF 8
ENDMDL
MODEL 7
REMARK VINA RESULT:      -6.7      2.076      7.358
REMARK  Name = 
REMARK  8 active torsions:
REMARK  status: ('A' for Active; 'I' for Inactive)
REMARK    1  A    between atoms: C_2  and  C_4
REMARK    2  A    between atoms: C_4  and  N_5
REMARK    3  A    between atoms: C_6  and  S_7
REMARK    4  A    between atoms: S_7  and  C_8
REMARK    5  A    between atoms: C_8  and  C_9
REMARK    6  A    between atoms: N_11  and  C_12
REMARK    7  A    between atoms: C_17  and  C_18
REMARK    8  A    between atoms: N_20  and  C_21
REMARK                            x       y       z     vdW  Elec       q    Type
REMARK                         _______ _______ _______ _____ _____    ______ ____
ROOT
ATOM      1  C   UNL     1      36.908   2.964  14.192  0.00  0.00    +0.000 C 
ENDROOT
BRANCH   1   2
ATOM      2  C   UNL     1      37.942   3.345  15.160  0.00  0.00    +0.000 C 
ATOM      3  O   UNL     1      38.882   2.632  15.569  0.00  0.00    +0.000 OA
ATOM      4  N   UNL     1      37.904   4.675  15.721  0.00  0.00    +0.000 NA
BRANCH   4   5
ATOM      5  C   UNL     1      38.814   5.178  16.639  0.00  0.00    +0.000 A 
ATOM      6  C   UNL     1      38.609   5.058  17.991  0.00  0.00    +0.000 A 
ATOM      7  C   UNL     1      39.531   5.554  18.851  0.00  0.00    +0.000 A 
ATOM      8  C   UNL     1      40.684   6.181  18.434  0.00  0.00    +0.000 A 
ATOM      9  C   UNL     1      40.903   6.306  17.060  0.00  0.00    +0.000 A 
ATOM     10  C   UNL     1      39.957   5.799  16.200  0.00  0.00    +0.000 A 
BRANCH  10  11
ATOM     11  C   UNL     1      40.206   5.944  14.778  0.00  0.00    +0.000 C 
ATOM     12  O   UNL     1      40.899   5.070  14.195  0.00  0.00    +0.000 OA
ATOM     13  N   UNL     1      39.701   7.026  14.023  0.00  0.00    +0.000 NA
BRANCH  13  14
ATOM     14  C   UNL     1      40.009   7.076  12.605  0.00  0.00    +0.000 C 
ATOM     15  C   UNL     1      39.043   7.742  11.677  0.00  0.00    +0.000 C 
ATOM     16  C   UNL     1      40.367   8.411  12.087  0.00  0.00    +0.000 C 
ENDBRANCH  13  14
ENDBRANCH  10  11
ENDBRANCH   4   5
ENDBRANCH   1   2
BRANCH   1  17
ATOM     17  S   UNL     1      35.850   1.623  14.557  0.00  0.00    +0.000 S 
BRANCH  17  19
ATOM     18  N   UNL     1      37.316  -0.576  15.623  0.00  0.00    +0.000 N 
ATOM     19  C   UNL     1      36.420   0.400  15.703  0.00  0.00    +0.000 A 
ATOM     20  N   UNL     1      35.995   0.423  17.014  0.00  0.00    +0.000 NA
ATOM     21  C   UNL     1      36.627  -0.518  17.713  0.00  0.00    +0.000 A 
ATOM     22  C   UNL     1      36.513  -0.849  19.067  0.00  0.00    +0.000 A 
ATOM     23  C   UNL     1      37.330  -1.912  19.533  0.00  0.00    +0.000 A 
ATOM     24  C   UNL     1      38.164  -2.544  18.665  0.00  0.00    +0.000 A 
ATOM     25  C   UNL     1      38.243  -2.190  17.349  0.00  0.00    +0.000 A 
ATOM     26  C   UNL     1      37.462  -1.155  16.850  0.00  0.00    +0.000 A 
BRANCH  18  27
ATOM     27  C   UNL     1      37.969  -1.061  14.449  0.00  0.00    +0.000 C 
BRANCH  27  29
ATOM     28  C   UNL     1      39.381   0.363  12.879  0.00  0.00    +0.000 C 
ATOM     29  C   UNL     1      39.254  -0.365  14.154  0.00  0.00    +0.000 C 
ATOM     30  C   UNL     1      40.472  -1.128  14.565  0.00  0.00    +0.000 C 
ENDBRANCH  27  29
ENDBRANCH  18  27
ENDBRANCH  17  19
ENDBRANCH   1  17
TORSDOF 8
ENDMDL
MODEL 8
REMARK VINA RESULT:      -6.7      2.778      3.923
REMARK  Name = 
REMARK  8 active torsions:
REMARK  status: ('A' for Active; 'I' for Inactive)
REMARK    1  A    between atoms: C_2  and  C_4
REMARK    2  A    between atoms: C_4  and  N_5
REMARK    3  A    between atoms: C_6  and  S_7
REMARK    4  A    between atoms: S_7  and  C_8
REMARK    5  A    between atoms: C_8  and  C_9
REMARK    6  A    between atoms: N_11  and  C_12
REMARK    7  A    between atoms: C_17  and  C_18
REMARK    8  A    between atoms: N_20  and  C_21
REMARK                            x       y       z     vdW  Elec       q    Type
REMARK                         _______ _______ _______ _____ _____    ______ ____
ROOT
ATOM      1  C   UNL     1      36.214   1.671  14.870  0.00  0.00    +0.000 C 
ENDROOT
BRANCH   1   2
ATOM      2  C   UNL     1      37.169   0.627  14.485  0.00  0.00    +0.000 C 
ATOM      3  O   UNL     1      37.011  -0.241  13.600  0.00  0.00    +0.000 OA
ATOM      4  N   UNL     1      38.434   0.561  15.176  0.00  0.00    +0.000 NA
BRANCH   4   5
ATOM      5  C   UNL     1      39.436  -0.363  14.919  0.00  0.00    +0.000 A 
ATOM      6  C   UNL     1      40.496  -0.060  14.103  0.00  0.00    +0.000 A 
ATOM      7  C   UNL     1      41.460  -0.990  13.890  0.00  0.00    +0.000 A 
ATOM      8  C   UNL     1      41.431  -2.243  14.461  0.00  0.00    +0.000 A 
ATOM      9  C   UNL     1      40.356  -2.560  15.295  0.00  0.00    +0.000 A 
ATOM     10  C   UNL     1      39.386  -1.606  15.499  0.00  0.00    +0.000 A 
BRANCH  10  11
ATOM     11  C   UNL     1      38.279  -1.960  16.367  0.00  0.00    +0.000 C 
ATOM     12  O   UNL     1      37.371  -2.703  15.914  0.00  0.00    +0.000 OA
ATOM     13  N   UNL     1      38.181  -1.503  17.702  0.00  0.00    +0.000 NA
BRANCH  13  14
ATOM     14  C   UNL     1      37.031  -1.918  18.485  0.00  0.00    +0.000 C 
ATOM     15  C   UNL     1      37.122  -1.886  19.977  0.00  0.00    +0.000 C 
ATOM     16  C   UNL     1      36.328  -0.829  19.191  0.00  0.00    +0.000 C 
ENDBRANCH  13  14
ENDBRANCH  10  11
ENDBRANCH   4   5
ENDBRANCH   1   2
BRANCH   1  17
ATOM     17  S   UNL     1      36.774   3.315  15.057  0.00  0.00    +0.000 S 
BRANCH  17  19
ATOM     18  N   UNL     1      36.637   4.849  12.659  0.00  0.00    +0.000 N 
ATOM     19  C   UNL     1      36.230   4.520  13.879  0.00  0.00    +0.000 A 
ATOM     20  N   UNL     1      35.096   5.264  14.119  0.00  0.00    +0.000 NA
ATOM     21  C   UNL     1      34.821   6.026  13.062  0.00  0.00    +0.000 A 
ATOM     22  C   UNL     1      33.770   6.928  12.864  0.00  0.00    +0.000 A 
ATOM     23  C   UNL     1      33.736   7.600  11.614  0.00  0.00    +0.000 A 
ATOM     24  C   UNL     1      34.700   7.343  10.690  0.00  0.00    +0.000 A 
ATOM     25  C   UNL     1      35.710   6.455  10.925  0.00  0.00    +0.000 A 
ATOM     26  C   UNL     1      35.782   5.775  12.134  0.00  0.00    +0.000 A 
BRANCH  18  27
ATOM     27  C   UNL     1      37.828   4.423  11.996  0.00  0.00    +0.000 C 
BRANCH  27  29
ATOM     28  C   UNL     1      38.716   2.070  11.601  0.00  0.00    +0.000 C 
ATOM     29  C   UNL     1      37.695   3.097  11.330  0.00  0.00    +0.000 C 
ATOM     30  C   UNL     1      37.240   3.169   9.908  0.00  0.00    +0.000 C 
ENDBRANCH  27  29
ENDBRANCH  18  27
ENDBRANCH  17  19
ENDBRANCH   1  17
TORSDOF 8
ENDMDL
MODEL 9
REMARK VINA RESULT:      -6.6      3.383      7.795
REMARK  Name = 
REMARK  8 active torsions:
REMARK  status: ('A' for Active; 'I' for Inactive)
REMARK    1  A    between atoms: C_2  and  C_4
REMARK    2  A    between atoms: C_4  and  N_5
REMARK    3  A    between atoms: C_6  and  S_7
REMARK    4  A    between atoms: S_7  and  C_8
REMARK    5  A    between atoms: C_8  and  C_9
REMARK    6  A    between atoms: N_11  and  C_12
REMARK    7  A    between atoms: C_17  and  C_18
REMARK    8  A    between atoms: N_20  and  C_21
REMARK                            x       y       z     vdW  Elec       q    Type
REMARK                         _______ _______ _______ _____ _____    ______ ____
ROOT
ATOM      1  C   UNL     1      39.304   0.113  13.378  0.00  0.00    +0.000 C 
ENDROOT
BRANCH   1   2
ATOM      2  C   UNL     1      38.484  -0.306  14.518  0.00  0.00    +0.000 C 
ATOM      3  O   UNL     1      38.890  -0.602  15.662  0.00  0.00    +0.000 OA
ATOM      4  N   UNL     1      37.055  -0.402  14.342  0.00  0.00    +0.000 NA
BRANCH   4   5
ATOM      5  C   UNL     1      36.153  -0.778  15.326  0.00  0.00    +0.000 A 
ATOM      6  C   UNL     1      35.826  -2.095  15.533  0.00  0.00    +0.000 A 
ATOM      7  C   UNL     1      34.950  -2.417  16.516  0.00  0.00    +0.000 A 
ATOM      8  C   UNL     1      34.362  -1.477  17.333  0.00  0.00    +0.000 A 
ATOM      9  C   UNL     1      34.690  -0.134  17.132  0.00  0.00    +0.000 A 
ATOM     10  C   UNL     1      35.580   0.176  16.130  0.00  0.00    +0.000 A 
BRANCH  10  11
ATOM     11  C   UNL     1      35.903   1.577  15.939  0.00  0.00    +0.000 C 
ATOM     12  O   UNL     1      35.269   2.229  15.069  0.00  0.00    +0.000 OA
ATOM     13  N   UNL     1      36.900   2.239  16.691  0.00  0.00    +0.000 NA
BRANCH  13  14
ATOM     14  C   UNL     1      37.143   3.644  16.420  0.00  0.00    +0.000 C 
ATOM     15  C   UNL     1      38.168   4.371  17.232  0.00  0.00    +0.000 C 
ATOM     16  C   UNL     1      38.438   3.944  15.778  0.00  0.00    +0.000 C 
ENDBRANCH  13  14
ENDBRANCH  10  11
ENDBRANCH   4   5
ENDBRANCH   1   2
BRANCH   1  17
ATOM     17  S   UNL     1      39.185  -0.764  11.871  0.00  0.00    +0.000 S 
BRANCH  17  19
ATOM     18  N   UNL     1      41.840  -1.785  11.713  0.00  0.00    +0.000 N 
ATOM     19  C   UNL     1      40.555  -1.774  11.383  0.00  0.00    +0.000 A 
ATOM     20  N   UNL     1      40.356  -2.872  10.575  0.00  0.00    +0.000 NA
ATOM     21  C   UNL     1      41.500  -3.537  10.424  0.00  0.00    +0.000 A 
ATOM     22  C   UNL     1      41.763  -4.703   9.698  0.00  0.00    +0.000 A 
ATOM     23  C   UNL     1      43.098  -5.184   9.728  0.00  0.00    +0.000 A 
ATOM     24  C   UNL     1      44.037  -4.507  10.442  0.00  0.00    +0.000 A 
ATOM     25  C   UNL     1      43.737  -3.370  11.136  0.00  0.00    +0.000 A 
ATOM     26  C   UNL     1      42.444  -2.865  11.135  0.00  0.00    +0.000 A 
BRANCH  18  27
ATOM     27  C   UNL     1      42.555  -0.796  12.454  0.00  0.00    +0.000 C 
BRANCH  27  29
ATOM     28  C   UNL     1      41.993  -1.969  14.642  0.00  0.00    +0.000 C 
ATOM     29  C   UNL     1      42.975  -1.256  13.808  0.00  0.00    +0.000 C 
ATOM     30  C   UNL     1      43.836  -0.282  14.547  0.00  0.00    +0.000 C 
ENDBRANCH  27  29
ENDBRANCH  18  27
ENDBRANCH  17  19
ENDBRANCH   1  17
TORSDOF 8
ENDMDL
MODEL 10
REMARK VINA RESULT:      -6.6      2.349      4.121
REMARK  Name = 
REMARK  8 active torsions:
REMARK  status: ('A' for Active; 'I' for Inactive)
REMARK    1  A    between atoms: C_2  and  C_4
REMARK    2  A    between atoms: C_4  and  N_5
REMARK    3  A    between atoms: C_6  and  S_7
REMARK    4  A    between atoms: S_7  and  C_8
REMARK    5  A    between atoms: C_8  and  C_9
REMARK    6  A    between atoms: N_11  and  C_12
REMARK    7  A    between atoms: C_17  and  C_18
REMARK    8  A    between atoms: N_20  and  C_21
REMARK                            x       y       z     vdW  Elec       q    Type
REMARK                         _______ _______ _______ _____ _____    ______ ____
ROOT
ATOM      1  C   UNL     1      36.786   3.745  14.819  0.00  0.00    +0.000 C 
ENDROOT
BRANCH   1   2
ATOM      2  C   UNL     1      36.624   2.616  15.740  0.00  0.00    +0.000 C 
ATOM      3  O   UNL     1      36.936   2.586  16.949  0.00  0.00    +0.000 OA
ATOM      4  N   UNL     1      36.050   1.391  15.235  0.00  0.00    +0.000 NA
BRANCH   4   5
ATOM      5  C   UNL     1      35.830   0.245  15.985  0.00  0.00    +0.000 A 
ATOM      6  C   UNL     1      34.832   0.185  16.924  0.00  0.00    +0.000 A 
ATOM      7  C   UNL     1      34.645  -0.960  17.625  0.00  0.00    +0.000 A 
ATOM      8  C   UNL     1      35.415  -2.087  17.439  0.00  0.00    +0.000 A 
ATOM      9  C   UNL     1      36.433  -2.036  16.483  0.00  0.00    +0.000 A 
ATOM     10  C   UNL     1      36.610  -0.866  15.782  0.00  0.00    +0.000 A 
BRANCH  10  11
ATOM     11  C   UNL     1      37.674  -0.837  14.797  0.00  0.00    +0.000 C 
ATOM     12  O   UNL     1      37.405  -1.150  13.608  0.00  0.00    +0.000 OA
ATOM     13  N   UNL     1      39.001  -0.471  15.119  0.00  0.00    +0.000 NA
BRANCH  13  14
ATOM     14  C   UNL     1      39.991  -0.476  14.057  0.00  0.00    +0.000 C 
ATOM     15  C   UNL     1      41.315   0.176  14.299  0.00  0.00    +0.000 C 
ATOM     16  C   UNL     1      41.154  -1.354  14.287  0.00  0.00    +0.000 C 
ENDBRANCH  13  14
ENDBRANCH  10  11
ENDBRANCH   4   5
ENDBRANCH   1   2
BRANCH   1  17
ATOM     17  S   UNL     1      38.294   4.628  14.807  0.00  0.00    +0.000 S 
BRANCH  17  19
ATOM     18  N   UNL     1      38.375   6.991  16.398  0.00  0.00    +0.000 N 
ATOM     19  C   UNL     1      38.636   5.710  16.166  0.00  0.00    +0.000 A 
ATOM     20  N   UNL     1      39.195   5.217  17.324  0.00  0.00    +0.000 NA
ATOM     21  C   UNL     1      39.267   6.181  18.240  0.00  0.00    +0.000 A 
ATOM     22  C   UNL     1      39.755   6.131  19.550  0.00  0.00    +0.000 A 
ATOM     23  C   UNL     1      39.696   7.335  20.298  0.00  0.00    +0.000 A 
ATOM     24  C   UNL     1      39.180   8.454  19.723  0.00  0.00    +0.000 A 
ATOM     25  C   UNL     1      38.715   8.460  18.440  0.00  0.00    +0.000 A 
ATOM     26  C   UNL     1      38.753   7.304  17.672  0.00  0.00    +0.000 A 
BRANCH  18  27
ATOM     27  C   UNL     1      37.885   7.959  15.469  0.00  0.00    +0.000 C 
BRANCH  27  29
ATOM     28  C   UNL     1      35.708   7.603  14.198  0.00  0.00    +0.000 C 
ATOM     29  C   UNL     1      36.397   8.039  15.424  0.00  0.00    +0.000 C 
ATOM     30  C   UNL     1      35.829   9.267  16.060  0.00  0.00    +0.000 C 
ENDBRANCH  27  29
ENDBRANCH  18  27
ENDBRANCH  17  19
ENDBRANCH   1  17
TORSDOF 8
ENDMDL
