MODEL 1
REMARK VINA RESULT:      -6.8      0.000      0.000
REMARK  Name = 
REMARK  3 active torsions:
REMARK  status: ('A' for Active; 'I' for Inactive)
REMARK    1  A    between atoms: C_4  and  N_5
REMARK    2  A    between atoms: N_5  and  N_6
REMARK    3  A    between atoms: C_7  and  C_9
REMARK                            x       y       z     vdW  Elec       q    Type
REMARK                         _______ _______ _______ _____ _____    ______ ____
ROOT
ATOM      1  N   UNL     1      17.861  10.132  36.705  0.00  0.00    +0.000 NA
ATOM      2  C   UNL     1      17.485   9.677  35.428  0.00  0.00    +0.000 C 
ATOM      3  O   UNL     1      17.842   8.530  35.076  0.00  0.00    +0.000 OA
ENDROOT
BRANCH   2   4
ATOM      4  C   UNL     1      16.682  10.510  34.508  0.00  0.00    +0.000 A 
ATOM      5  C   UNL     1      16.830  10.408  33.129  0.00  0.00    +0.000 A 
ATOM      6  C   UNL     1      16.076  11.182  32.262  0.00  0.00    +0.000 A 
ATOM      7  C   UNL     1      15.140  12.092  32.739  0.00  0.00    +0.000 A 
ATOM      8 CL   UNL     1      14.166  13.080  31.644  0.00  0.00    +0.000 Cl
ATOM      9  C   UNL     1      15.000  12.186  34.104  0.00  0.00    +0.000 A 
ATOM     10  C   UNL     1      15.754  11.412  34.978  0.00  0.00    +0.000 A 
ENDBRANCH   2   4
BRANCH   1  11
ATOM     11  N   UNL     1      18.552   9.524  37.653  0.00  0.00    +0.000 NA
BRANCH  11  15
ATOM     12  C   UNL     1      18.368   6.035  40.589  0.00  0.00    +0.000 C 
ATOM     13  C   UNL     1      18.495   7.641  41.045  0.00  0.00    +0.000 C 
ATOM     14  C   UNL     1      18.841   8.151  39.591  0.00  0.00    +0.000 C 
ATOM     15  C   UNL     1      18.213   9.082  38.978  0.00  0.00    +0.000 C 
ATOM     16  C   UNL     1      17.049   9.837  39.514  0.00  0.00    +0.000 C 
ATOM     17  C   UNL     1      16.757   9.408  40.893  0.00  0.00    +0.000 C 
ATOM     18  C   UNL     1      16.863   7.875  40.906  0.00  0.00    +0.000 C 
ENDBRANCH  11  15
ENDBRANCH   1  11
TORSDOF 3
ENDMDL
MODEL 2
REMARK VINA RESULT:      -6.6      0.871      1.731
REMARK  Name = 
REMARK  3 active torsions:
REMARK  status: ('A' for Active; 'I' for Inactive)
REMARK    1  A    between atoms: C_4  and  N_5
REMARK    2  A    between atoms: N_5  and  N_6
REMARK    3  A    between atoms: C_7  and  C_9
REMARK                            x       y       z     vdW  Elec       q    Type
REMARK                         _______ _______ _______ _____ _____    ______ ____
ROOT
ATOM      1  N   UNL     1      17.377  10.815  37.208  0.00  0.00    +0.000 NA
ATOM      2  C   UNL     1      17.589  10.284  35.922  0.00  0.00    +0.000 C 
ATOM      3  O   UNL     1      18.447   9.383  35.785  0.00  0.00    +0.000 OA
ENDROOT
BRANCH   2   4
ATOM      4  C   UNL     1      16.827  10.756  34.747  0.00  0.00    +0.000 A 
ATOM      5  C   UNL     1      17.133  10.313  33.465  0.00  0.00    +0.000 A 
ATOM      6  C   UNL     1      16.418  10.747  32.360  0.00  0.00    +0.000 A 
ATOM      7  C   UNL     1      15.365  11.644  32.493  0.00  0.00    +0.000 A 
ATOM      8 CL   UNL     1      14.439  12.200  31.094  0.00  0.00    +0.000 Cl
ATOM      9  C   UNL     1      15.069  12.077  33.765  0.00  0.00    +0.000 A 
ATOM     10  C   UNL     1      15.783  11.644  34.876  0.00  0.00    +0.000 A 
ENDBRANCH   2   4
BRANCH   1  11
ATOM     11  N   UNL     1      17.945  10.505  38.358  0.00  0.00    +0.000 NA
BRANCH  11  15
ATOM     12  C   UNL     1      16.335   9.556  42.522  0.00  0.00    +0.000 C 
ATOM     13  C   UNL     1      16.363   8.463  41.253  0.00  0.00    +0.000 C 
ATOM     14  C   UNL     1      16.691   9.555  40.161  0.00  0.00    +0.000 C 
ATOM     15  C   UNL     1      17.672   9.493  39.342  0.00  0.00    +0.000 C 
ATOM     16  C   UNL     1      18.675   8.397  39.277  0.00  0.00    +0.000 C 
ATOM     17  C   UNL     1      18.341   7.344  40.252  0.00  0.00    +0.000 C 
ATOM     18  C   UNL     1      17.941   8.063  41.551  0.00  0.00    +0.000 C 
ENDBRANCH  11  15
ENDBRANCH   1  11
TORSDOF 3
ENDMDL
MODEL 3
REMARK VINA RESULT:      -6.5      2.685      3.501
REMARK  Name = 
REMARK  3 active torsions:
REMARK  status: ('A' for Active; 'I' for Inactive)
REMARK    1  A    between atoms: C_4  and  N_5
REMARK    2  A    between atoms: N_5  and  N_6
REMARK    3  A    between atoms: C_7  and  C_9
REMARK                            x       y       z     vdW  Elec       q    Type
REMARK                         _______ _______ _______ _____ _____    ______ ____
ROOT
ATOM      1  N   UNL     1      17.295  11.207  36.235  0.00  0.00    +0.000 NA
ATOM      2  C   UNL     1      16.912  10.481  35.092  0.00  0.00    +0.000 C 
ATOM      3  O   UNL     1      17.164   9.256  35.054  0.00  0.00    +0.000 OA
ENDROOT
BRANCH   2   4
ATOM      4  C   UNL     1      16.224  11.124  33.954  0.00  0.00    +0.000 A 
ATOM      5  C   UNL     1      16.555  10.810  32.640  0.00  0.00    +0.000 A 
ATOM      6  C   UNL     1      15.908  11.405  31.569  0.00  0.00    +0.000 A 
ATOM      7  C   UNL     1      14.900  12.341  31.768  0.00  0.00    +0.000 A 
ATOM      8 CL   UNL     1      14.061  13.102  30.411  0.00  0.00    +0.000 Cl
ATOM      9  C   UNL     1      14.578  12.646  33.070  0.00  0.00    +0.000 A 
ATOM     10  C   UNL     1      15.224  12.051  34.148  0.00  0.00    +0.000 A 
ENDBRANCH   2   4
BRANCH   1  11
ATOM     11  N   UNL     1      17.894  10.798  37.339  0.00  0.00    +0.000 NA
BRANCH  11  15
ATOM     12  C   UNL     1      21.291  13.354  38.999  0.00  0.00    +0.000 C 
ATOM     13  C   UNL     1      21.165  11.699  39.222  0.00  0.00    +0.000 C 
ATOM     14  C   UNL     1      19.673  11.623  38.711  0.00  0.00    +0.000 C 
ATOM     15  C   UNL     1      19.260  10.844  37.783  0.00  0.00    +0.000 C 
ATOM     16  C   UNL     1      20.105   9.885  37.021  0.00  0.00    +0.000 C 
ATOM     17  C   UNL     1      21.486   9.908  37.533  0.00  0.00    +0.000 C 
ATOM     18  C   UNL     1      21.849  11.386  37.749  0.00  0.00    +0.000 C 
ENDBRANCH  11  15
ENDBRANCH   1  11
TORSDOF 3
ENDMDL
MODEL 4
REMARK VINA RESULT:      -6.4     29.874     31.730
REMARK  Name = 
REMARK  3 active torsions:
REMARK  status: ('A' for Active; 'I' for Inactive)
REMARK    1  A    between atoms: C_4  and  N_5
REMARK    2  A    between atoms: N_5  and  N_6
REMARK    3  A    between atoms: C_7  and  C_9
REMARK                            x       y       z     vdW  Elec       q    Type
REMARK                         _______ _______ _______ _____ _____    ______ ____
ROOT
ATOM      1  N   UNL     1      31.040  21.771  10.606  0.00  0.00    +0.000 NA
ATOM      2  C   UNL     1      31.609  20.588  11.114  0.00  0.00    +0.000 C 
ATOM      3  O   UNL     1      30.868  19.786  11.725  0.00  0.00    +0.000 OA
ENDROOT
BRANCH   2   4
ATOM      4  C   UNL     1      33.043  20.275  10.939  0.00  0.00    +0.000 A 
ATOM      5  C   UNL     1      33.566  19.971   9.688  0.00  0.00    +0.000 A 
ATOM      6  C   UNL     1      34.912  19.683   9.518  0.00  0.00    +0.000 A 
ATOM      7  C   UNL     1      35.790  19.689  10.594  0.00  0.00    +0.000 A 
ATOM      8 CL   UNL     1      37.509  19.332  10.391  0.00  0.00    +0.000 Cl
ATOM      9  C   UNL     1      35.263  19.991  11.829  0.00  0.00    +0.000 A 
ATOM     10  C   UNL     1      33.915  20.281  12.005  0.00  0.00    +0.000 A 
ENDBRANCH   2   4
BRANCH   1  11
ATOM     11  N   UNL     1      29.791  22.199  10.652  0.00  0.00    +0.000 NA
BRANCH  11  15
ATOM     12  C   UNL     1      25.790  24.014  11.885  0.00  0.00    +0.000 C 
ATOM     13  C   UNL     1      26.705  23.007  12.861  0.00  0.00    +0.000 C 
ATOM     14  C   UNL     1      27.666  22.551  11.694  0.00  0.00    +0.000 C 
ATOM     15  C   UNL     1      28.943  22.622  11.732  0.00  0.00    +0.000 C 
ATOM     16  C   UNL     1      29.744  23.152  12.868  0.00  0.00    +0.000 C 
ATOM     17  C   UNL     1      28.858  23.524  13.985  0.00  0.00    +0.000 C 
ATOM     18  C   UNL     1      27.660  24.261  13.365  0.00  0.00    +0.000 C 
ENDBRANCH  11  15
ENDBRANCH   1  11
TORSDOF 3
ENDMDL
MODEL 5
REMARK VINA RESULT:      -6.4      2.905      3.626
REMARK  Name = 
REMARK  3 active torsions:
REMARK  status: ('A' for Active; 'I' for Inactive)
REMARK    1  A    between atoms: C_4  and  N_5
REMARK    2  A    between atoms: N_5  and  N_6
REMARK    3  A    between atoms: C_7  and  C_9
REMARK                            x       y       z     vdW  Elec       q    Type
REMARK                         _______ _______ _______ _____ _____    ______ ____
ROOT
ATOM      1  N   UNL     1      18.477   9.916  35.926  0.00  0.00    +0.000 NA
ATOM      2  C   UNL     1      17.307  10.695  35.856  0.00  0.00    +0.000 C 
ATOM      3  O   UNL     1      16.836  11.159  36.918  0.00  0.00    +0.000 OA
ENDROOT
BRANCH   2   4
ATOM      4  C   UNL     1      16.634  10.978  34.571  0.00  0.00    +0.000 A 
ATOM      5  C   UNL     1      17.041  10.360  33.393  0.00  0.00    +0.000 A 
ATOM      6  C   UNL     1      16.409  10.616  32.187  0.00  0.00    +0.000 A 
ATOM      7  C   UNL     1      15.343  11.503  32.108  0.00  0.00    +0.000 A 
ATOM      8 CL   UNL     1      14.522  11.834  30.578  0.00  0.00    +0.000 Cl
ATOM      9  C   UNL     1      14.947  12.110  33.277  0.00  0.00    +0.000 A 
ATOM     10  C   UNL     1      15.577  11.856  34.490  0.00  0.00    +0.000 A 
ENDBRANCH   2   4
BRANCH   1  11
ATOM     11  N   UNL     1      19.211   9.581  36.971  0.00  0.00    +0.000 NA
BRANCH  11  15
ATOM     12  C   UNL     1      23.695   8.951  36.402  0.00  0.00    +0.000 C 
ATOM     13  C   UNL     1      23.014  10.353  37.015  0.00  0.00    +0.000 C 
ATOM     14  C   UNL     1      21.543   9.965  36.592  0.00  0.00    +0.000 C 
ATOM     15  C   UNL     1      20.540   9.940  37.387  0.00  0.00    +0.000 C 
ATOM     16  C   UNL     1      20.581  10.258  38.839  0.00  0.00    +0.000 C 
ATOM     17  C   UNL     1      21.938  10.678  39.229  0.00  0.00    +0.000 C 
ATOM     18  C   UNL     1      22.911   9.711  38.536  0.00  0.00    +0.000 C 
ENDBRANCH  11  15
ENDBRANCH   1  11
TORSDOF 3
ENDMDL
MODEL 6
REMARK VINA RESULT:      -6.3     17.892     19.151
REMARK  Name = 
REMARK  3 active torsions:
REMARK  status: ('A' for Active; 'I' for Inactive)
REMARK    1  A    between atoms: C_4  and  N_5
REMARK    2  A    between atoms: N_5  and  N_6
REMARK    3  A    between atoms: C_7  and  C_9
REMARK                            x       y       z     vdW  Elec       q    Type
REMARK                         _______ _______ _______ _____ _____    ______ ____
ROOT
ATOM      1  N   UNL     1      34.058   3.306  33.956  0.00  0.00    +0.000 NA
ATOM      2  C   UNL     1      33.596   4.618  34.167  0.00  0.00    +0.000 C 
ATOM      3  O   UNL     1      32.460   4.924  33.741  0.00  0.00    +0.000 OA
ENDROOT
BRANCH   2   4
ATOM      4  C   UNL     1      34.410   5.628  34.876  0.00  0.00    +0.000 A 
ATOM      5  C   UNL     1      35.784   5.473  35.020  0.00  0.00    +0.000 A 
ATOM      6  C   UNL     1      36.553   6.420  35.678  0.00  0.00    +0.000 A 
ATOM      7  C   UNL     1      35.978   7.563  36.219  0.00  0.00    +0.000 A 
ATOM      8 CL   UNL     1      36.948   8.783  37.053  0.00  0.00    +0.000 Cl
ATOM      9  C   UNL     1      34.618   7.708  36.071  0.00  0.00    +0.000 A 
ATOM     10  C   UNL     1      33.843   6.762  35.412  0.00  0.00    +0.000 A 
ENDBRANCH   2   4
BRANCH   1  11
ATOM     11  N   UNL     1      33.466   2.282  33.367  0.00  0.00    +0.000 NA
BRANCH  11  15
ATOM     12  C   UNL     1      32.885  -0.804  36.678  0.00  0.00    +0.000 C 
ATOM     13  C   UNL     1      32.475  -1.058  35.074  0.00  0.00    +0.000 C 
ATOM     14  C   UNL     1      32.624   0.461  34.671  0.00  0.00    +0.000 C 
ATOM     15  C   UNL     1      33.351   0.891  33.710  0.00  0.00    +0.000 C 
ATOM     16  C   UNL     1      34.186   0.047  32.814  0.00  0.00    +0.000 C 
ATOM     17  C   UNL     1      34.007  -1.377  33.146  0.00  0.00    +0.000 C 
ATOM     18  C   UNL     1      34.027  -1.475  34.680  0.00  0.00    +0.000 C 
ENDBRANCH  11  15
ENDBRANCH   1  11
TORSDOF 3
ENDMDL
MODEL 7
REMARK VINA RESULT:      -6.3     20.222     22.007
REMARK  Name = 
REMARK  3 active torsions:
REMARK  status: ('A' for Active; 'I' for Inactive)
REMARK    1  A    between atoms: C_4  and  N_5
REMARK    2  A    between atoms: N_5  and  N_6
REMARK    3  A    between atoms: C_7  and  C_9
REMARK                            x       y       z     vdW  Elec       q    Type
REMARK                         _______ _______ _______ _____ _____    ______ ____
ROOT
ATOM      1  N   UNL     1      33.503  -2.824  33.116  0.00  0.00    +0.000 NA
ATOM      2  C   UNL     1      33.985  -1.958  34.115  0.00  0.00    +0.000 C 
ATOM      3  O   UNL     1      34.524  -2.458  35.127  0.00  0.00    +0.000 OA
ENDROOT
BRANCH   2   4
ATOM      4  C   UNL     1      33.875  -0.489  33.992  0.00  0.00    +0.000 A 
ATOM      5  C   UNL     1      33.589   0.306  35.097  0.00  0.00    +0.000 A 
ATOM      6  C   UNL     1      33.491   1.685  34.989  0.00  0.00    +0.000 A 
ATOM      7  C   UNL     1      33.675   2.325  33.770  0.00  0.00    +0.000 A 
ATOM      8 CL   UNL     1      33.561   4.083  33.619  0.00  0.00    +0.000 Cl
ATOM      9  C   UNL     1      33.958   1.531  32.683  0.00  0.00    +0.000 A 
ATOM     10  C   UNL     1      34.058   0.149  32.786  0.00  0.00    +0.000 A 
ENDBRANCH   2   4
BRANCH   1  11
ATOM     11  N   UNL     1      33.533  -4.143  33.051  0.00  0.00    +0.000 NA
BRANCH  11  15
ATOM     12  C   UNL     1      32.908  -6.405  29.137  0.00  0.00    +0.000 C 
ATOM     13  C   UNL     1      34.409  -5.997  29.757  0.00  0.00    +0.000 C 
ATOM     14  C   UNL     1      33.826  -5.004  30.838  0.00  0.00    +0.000 C 
ATOM     15  C   UNL     1      34.080  -5.062  32.091  0.00  0.00    +0.000 C 
ATOM     16  C   UNL     1      34.955  -6.069  32.749  0.00  0.00    +0.000 C 
ATOM     17  C   UNL     1      35.550  -6.962  31.740  0.00  0.00    +0.000 C 
ATOM     18  C   UNL     1      34.426  -7.318  30.753  0.00  0.00    +0.000 C 
ENDBRANCH  11  15
ENDBRANCH   1  11
TORSDOF 3
ENDMDL
MODEL 8
REMARK VINA RESULT:      -6.2     28.643     31.238
REMARK  Name = 
REMARK  3 active torsions:
REMARK  status: ('A' for Active; 'I' for Inactive)
REMARK    1  A    between atoms: C_4  and  N_5
REMARK    2  A    between atoms: N_5  and  N_6
REMARK    3  A    between atoms: C_7  and  C_9
REMARK                            x       y       z     vdW  Elec       q    Type
REMARK                         _______ _______ _______ _____ _____    ______ ____
ROOT
ATOM      1  N   UNL     1      35.859  18.389  13.267  0.00  0.00    +0.000 NA
ATOM      2  C   UNL     1      36.430  18.383  14.553  0.00  0.00    +0.000 C 
ATOM      3  O   UNL     1      37.024  19.411  14.946  0.00  0.00    +0.000 OA
ENDROOT
BRANCH   2   4
ATOM      4  C   UNL     1      36.339  17.204  15.440  0.00  0.00    +0.000 A 
ATOM      5  C   UNL     1      37.143  17.089  16.569  0.00  0.00    +0.000 A 
ATOM      6  C   UNL     1      37.057  15.990  17.409  0.00  0.00    +0.000 A 
ATOM      7  C   UNL     1      36.161  14.958  17.153  0.00  0.00    +0.000 A 
ATOM      8 CL   UNL     1      36.036  13.554  18.219  0.00  0.00    +0.000 Cl
ATOM      9  C   UNL     1      35.370  15.080  16.034  0.00  0.00    +0.000 A 
ATOM     10  C   UNL     1      35.452  16.181  15.190  0.00  0.00    +0.000 A 
ENDBRANCH   2   4
BRANCH   1  11
ATOM     11  N   UNL     1      35.828  19.347  12.357  0.00  0.00    +0.000 NA
BRANCH  11  15
ATOM     12  C   UNL     1      31.353  20.236  12.262  0.00  0.00    +0.000 C 
ATOM     13  C   UNL     1      32.526  21.250  11.629  0.00  0.00    +0.000 C 
ATOM     14  C   UNL     1      33.726  20.489  12.318  0.00  0.00    +0.000 C 
ATOM     15  C   UNL     1      34.751  20.036  11.701  0.00  0.00    +0.000 C 
ATOM     16  C   UNL     1      34.991  20.136  10.237  0.00  0.00    +0.000 C 
ATOM     17  C   UNL     1      33.905  20.896   9.594  0.00  0.00    +0.000 C 
ATOM     18  C   UNL     1      32.592  20.393  10.215  0.00  0.00    +0.000 C 
ENDBRANCH  11  15
ENDBRANCH   1  11
TORSDOF 3
ENDMDL
MODEL 9
REMARK VINA RESULT:      -6.2     22.675     25.642
REMARK  Name = 
REMARK  3 active torsions:
REMARK  status: ('A' for Active; 'I' for Inactive)
REMARK    1  A    between atoms: C_4  and  N_5
REMARK    2  A    between atoms: N_5  and  N_6
REMARK    3  A    between atoms: C_7  and  C_9
REMARK                            x       y       z     vdW  Elec       q    Type
REMARK                         _______ _______ _______ _____ _____    ______ ____
ROOT
ATOM      1  N   UNL     1      29.875  24.642  21.726  0.00  0.00    +0.000 NA
ATOM      2  C   UNL     1      29.097  23.785  22.527  0.00  0.00    +0.000 C 
ATOM      3  O   UNL     1      28.002  23.382  22.077  0.00  0.00    +0.000 OA
ENDROOT
BRANCH   2   4
ATOM      4  C   UNL     1      29.543  23.353  23.868  0.00  0.00    +0.000 A 
ATOM      5  C   UNL     1      30.887  23.380  24.225  0.00  0.00    +0.000 A 
ATOM      6  C   UNL     1      31.309  22.983  25.484  0.00  0.00    +0.000 A 
ATOM      7  C   UNL     1      30.402  22.541  26.440  0.00  0.00    +0.000 A 
ATOM      8 CL   UNL     1      30.926  22.039  28.051  0.00  0.00    +0.000 Cl
ATOM      9  C   UNL     1      29.075  22.518  26.079  0.00  0.00    +0.000 A 
ATOM     10  C   UNL     1      28.647  22.916  24.818  0.00  0.00    +0.000 A 
ENDBRANCH   2   4
BRANCH   1  11
ATOM     11  N   UNL     1      29.645  25.109  20.513  0.00  0.00    +0.000 NA
BRANCH  11  15
ATOM     12  C   UNL     1      31.746  28.288  18.001  0.00  0.00    +0.000 C 
ATOM     13  C   UNL     1      30.088  28.210  18.222  0.00  0.00    +0.000 C 
ATOM     14  C   UNL     1      30.119  26.759  18.846  0.00  0.00    +0.000 C 
ATOM     15  C   UNL     1      29.600  26.440  19.971  0.00  0.00    +0.000 C 
ATOM     16  C   UNL     1      28.889  27.369  20.889  0.00  0.00    +0.000 C 
ATOM     17  C   UNL     1      28.804  28.711  20.287  0.00  0.00    +0.000 C 
ATOM     18  C   UNL     1      30.182  29.003  19.671  0.00  0.00    +0.000 C 
ENDBRANCH  11  15
ENDBRANCH   1  11
TORSDOF 3
ENDMDL
MODEL 10
REMARK VINA RESULT:      -6.2      1.542      2.295
REMARK  Name = 
REMARK  3 active torsions:
REMARK  status: ('A' for Active; 'I' for Inactive)
REMARK    1  A    between atoms: C_4  and  N_5
REMARK    2  A    between atoms: N_5  and  N_6
REMARK    3  A    between atoms: C_7  and  C_9
REMARK                            x       y       z     vdW  Elec       q    Type
REMARK                         _______ _______ _______ _____ _____    ______ ____
ROOT
ATOM      1  N   UNL     1      17.246  10.053  38.621  0.00  0.00    +0.000 NA
ATOM      2  C   UNL     1      18.042  10.009  37.461  0.00  0.00    +0.000 C 
ATOM      3  O   UNL     1      19.241   9.669  37.574  0.00  0.00    +0.000 OA
ENDROOT
BRANCH   2   4
ATOM      4  C   UNL     1      17.499  10.348  36.129  0.00  0.00    +0.000 A 
ATOM      5  C   UNL     1      16.446  11.245  35.987  0.00  0.00    +0.000 A 
ATOM      6  C   UNL     1      15.937  11.571  34.740  0.00  0.00    +0.000 A 
ATOM      7  C   UNL     1      16.461  11.012  33.581  0.00  0.00    +0.000 A 
ATOM      8 CL   UNL     1      15.827  11.425  31.983  0.00  0.00    +0.000 Cl
ATOM      9  C   UNL     1      17.502  10.125  33.730  0.00  0.00    +0.000 A 
ATOM     10  C   UNL     1      18.016   9.796  34.979  0.00  0.00    +0.000 A 
ENDBRANCH   2   4
BRANCH   1  11
ATOM     11  N   UNL     1      17.556   9.769  39.873  0.00  0.00    +0.000 NA
BRANCH  11  15
ATOM     12  C   UNL     1      19.153   5.500  40.088  0.00  0.00    +0.000 C 
ATOM     13  C   UNL     1      18.711   6.406  41.425  0.00  0.00    +0.000 C 
ATOM     14  C   UNL     1      18.624   7.765  40.625  0.00  0.00    +0.000 C 
ATOM     15  C   UNL     1      17.605   8.538  40.612  0.00  0.00    +0.000 C 
ATOM     16  C   UNL     1      16.327   8.295  41.334  0.00  0.00    +0.000 C 
ATOM     17  C   UNL     1      16.422   7.059  42.131  0.00  0.00    +0.000 C 
ATOM     18  C   UNL     1      17.114   6.015  41.240  0.00  0.00    +0.000 C 
ENDBRANCH  11  15
ENDBRANCH   1  11
TORSDOF 3
ENDMDL
