MODEL 1
REMARK VINA RESULT:      -8.7      0.000      0.000
REMARK  Name = 
REMARK  6 active torsions:
REMARK  status: ('A' for Active; 'I' for Inactive)
REMARK    1  A    between atoms: C_7  and  C_8
REMARK    2  A    between atoms: C_8  and  N_9
REMARK    3  A    between atoms: C_11  and  S_12
REMARK    4  A    between atoms: S_12  and  C_13
REMARK    5  A    between atoms: C_13  and  C_14
REMARK    6  A    between atoms: N_16  and  C_17
REMARK                            x       y       z     vdW  Elec       q    Type
REMARK                         _______ _______ _______ _____ _____    ______ ____
ROOT
ATOM      1  N   UNL     1      36.980  -0.444  14.467  0.00  0.00    +0.000 N 
ATOM      2  C   UNL     1      37.086   0.847  14.721  0.00  0.00    +0.000 A 
ATOM      3  C   UNL     1      36.265   1.137  15.780  0.00  0.00    +0.000 A 
ATOM      4  C   UNL     1      35.654  -0.054  16.154  0.00  0.00    +0.000 A 
ATOM      5  C   UNL     1      34.747  -0.393  17.130  0.00  0.00    +0.000 A 
ATOM      6  C   UNL     1      34.319  -1.689  17.257  0.00  0.00    +0.000 A 
ATOM      7  C   UNL     1      34.790  -2.677  16.410  0.00  0.00    +0.000 A 
ATOM      8  C   UNL     1      35.692  -2.347  15.436  0.00  0.00    +0.000 A 
ATOM      9  C   UNL     1      36.114  -1.046  15.317  0.00  0.00    +0.000 A 
ENDROOT
BRANCH   1  10
ATOM     10  C   UNL     1      37.671  -1.178  13.404  0.00  0.00    +0.000 C 
BRANCH  10  17
ATOM     11  C   UNL     1      39.875   0.341  12.280  0.00  0.00    +0.000 C 
ATOM     12  C   UNL     1      40.131  -0.732  13.293  0.00  0.00    +0.000 A 
ATOM     13  C   UNL     1      41.459  -0.985  13.665  0.00  0.00    +0.000 A 
ATOM     14  C   UNL     1      41.694  -1.970  14.595  0.00  0.00    +0.000 A 
ATOM     15  C   UNL     1      40.663  -2.683  15.144  0.00  0.00    +0.000 A 
ATOM     16  C   UNL     1      39.375  -2.410  14.757  0.00  0.00    +0.000 A 
ATOM     17  C   UNL     1      39.082  -1.442  13.835  0.00  0.00    +0.000 A 
ENDBRANCH  10  17
ENDBRANCH   1  10
BRANCH   3  18
ATOM     18  S   UNL     1      36.025   2.721  16.530  0.00  0.00    +0.000 S 
BRANCH  18  19
ATOM     19  C   UNL     1      37.234   3.960  16.016  0.00  0.00    +0.000 C 
BRANCH  19  20
ATOM     20  C   UNL     1      38.097   4.384  17.136  0.00  0.00    +0.000 C 
ATOM     21  O   UNL     1      38.134   3.715  18.182  0.00  0.00    +0.000 OA
ATOM     22  N   UNL     1      38.873   5.546  17.018  0.00  0.00    +0.000 NA
BRANCH  22  23
ATOM     23  C   UNL     1      39.712   6.018  18.038  0.00  0.00    +0.000 A 
ATOM     24  C   UNL     1      39.336   6.374  19.308  0.00  0.00    +0.000 A 
ATOM     25  C   UNL     1      40.283   6.831  20.199  0.00  0.00    +0.000 A 
ATOM     26  C   UNL     1      41.608   6.940  19.834  0.00  0.00    +0.000 A 
ATOM     27  C   UNL     1      42.008   6.589  18.567  0.00  0.00    +0.000 A 
ATOM     28  C   UNL     1      41.054   6.137  17.698  0.00  0.00    +0.000 A 
ATOM     29  O   UNL     1      43.353   6.724  18.270  0.00  0.00    +0.000 OA
ATOM     30  C   UNL     1      44.169   7.665  18.998  0.00  0.00    +0.000 C 
ATOM     31  C   UNL     1      43.915   7.601  20.471  0.00  0.00    +0.000 C 
ATOM     32  O   UNL     1      42.566   7.405  20.743  0.00  0.00    +0.000 OA
ENDBRANCH  22  23
ENDBRANCH  19  20
ENDBRANCH  18  19
ENDBRANCH   3  18
TORSDOF 6
ENDMDL
MODEL 2
REMARK VINA RESULT:      -8.7      2.579      4.064
REMARK  Name = 
REMARK  6 active torsions:
REMARK  status: ('A' for Active; 'I' for Inactive)
REMARK    1  A    between atoms: C_7  and  C_8
REMARK    2  A    between atoms: C_8  and  N_9
REMARK    3  A    between atoms: C_11  and  S_12
REMARK    4  A    between atoms: S_12  and  C_13
REMARK    5  A    between atoms: C_13  and  C_14
REMARK    6  A    between atoms: N_16  and  C_17
REMARK                            x       y       z     vdW  Elec       q    Type
REMARK                         _______ _______ _______ _____ _____    ______ ____
ROOT
ATOM      1  N   UNL     1      37.252  -1.514  15.699  0.00  0.00    +0.000 N 
ATOM      2  C   UNL     1      37.119  -0.527  14.833  0.00  0.00    +0.000 A 
ATOM      3  C   UNL     1      36.584   0.546  15.497  0.00  0.00    +0.000 A 
ATOM      4  C   UNL     1      36.400   0.154  16.817  0.00  0.00    +0.000 A 
ATOM      5  C   UNL     1      35.910   0.782  17.938  0.00  0.00    +0.000 A 
ATOM      6  C   UNL     1      35.853   0.115  19.134  0.00  0.00    +0.000 A 
ATOM      7  C   UNL     1      36.285  -1.196  19.238  0.00  0.00    +0.000 A 
ATOM      8  C   UNL     1      36.774  -1.826  18.127  0.00  0.00    +0.000 A 
ATOM      9  C   UNL     1      36.827  -1.150  16.933  0.00  0.00    +0.000 A 
ENDROOT
BRANCH   1  10
ATOM     10  C   UNL     1      37.770  -2.854  15.414  0.00  0.00    +0.000 C 
BRANCH  10  17
ATOM     11  C   UNL     1      37.829  -5.250  17.053  0.00  0.00    +0.000 C 
ATOM     12  C   UNL     1      36.658  -4.968  16.162  0.00  0.00    +0.000 A 
ATOM     13  C   UNL     1      35.609  -5.898  16.136  0.00  0.00    +0.000 A 
ATOM     14  C   UNL     1      34.535  -5.639  15.318  0.00  0.00    +0.000 A 
ATOM     15  C   UNL     1      34.488  -4.505  14.552  0.00  0.00    +0.000 A 
ATOM     16  C   UNL     1      35.532  -3.616  14.601  0.00  0.00    +0.000 A 
ATOM     17  C   UNL     1      36.628  -3.823  15.396  0.00  0.00    +0.000 A 
ENDBRANCH  10  17
ENDBRANCH   1  10
BRANCH   3  18
ATOM     18  S   UNL     1      36.198   2.130  14.809  0.00  0.00    +0.000 S 
BRANCH  18  19
ATOM     19  C   UNL     1      37.598   3.272  14.783  0.00  0.00    +0.000 C 
BRANCH  19  20
ATOM     20  C   UNL     1      37.738   3.999  16.060  0.00  0.00    +0.000 C 
ATOM     21  O   UNL     1      37.015   3.706  17.027  0.00  0.00    +0.000 OA
ATOM     22  N   UNL     1      38.687   5.024  16.178  0.00  0.00    +0.000 NA
BRANCH  22  23
ATOM     23  C   UNL     1      38.877   5.766  17.354  0.00  0.00    +0.000 A 
ATOM     24  C   UNL     1      39.616   5.392  18.447  0.00  0.00    +0.000 A 
ATOM     25  C   UNL     1      39.699   6.233  19.536  0.00  0.00    +0.000 A 
ATOM     26  C   UNL     1      39.049   7.449  19.546  0.00  0.00    +0.000 A 
ATOM     27  C   UNL     1      38.303   7.844  18.462  0.00  0.00    +0.000 A 
ATOM     28  C   UNL     1      38.233   6.997  17.391  0.00  0.00    +0.000 A 
ATOM     29  O   UNL     1      37.677   9.077  18.542  0.00  0.00    +0.000 OA
ATOM     30  C   UNL     1      37.354   9.647  19.826  0.00  0.00    +0.000 C 
ATOM     31  C   UNL     1      38.488   9.520  20.796  0.00  0.00    +0.000 C 
ATOM     32  O   UNL     1      39.137   8.300  20.655  0.00  0.00    +0.000 OA
ENDBRANCH  22  23
ENDBRANCH  19  20
ENDBRANCH  18  19
ENDBRANCH   3  18
TORSDOF 6
ENDMDL
MODEL 3
REMARK VINA RESULT:      -8.6      1.673      3.906
REMARK  Name = 
REMARK  6 active torsions:
REMARK  status: ('A' for Active; 'I' for Inactive)
REMARK    1  A    between atoms: C_7  and  C_8
REMARK    2  A    between atoms: C_8  and  N_9
REMARK    3  A    between atoms: C_11  and  S_12
REMARK    4  A    between atoms: S_12  and  C_13
REMARK    5  A    between atoms: C_13  and  C_14
REMARK    6  A    between atoms: N_16  and  C_17
REMARK                            x       y       z     vdW  Elec       q    Type
REMARK                         _______ _______ _______ _____ _____    ______ ____
ROOT
ATOM      1  N   UNL     1      37.842  -0.058  14.992  0.00  0.00    +0.000 N 
ATOM      2  C   UNL     1      37.546   1.223  14.868  0.00  0.00    +0.000 A 
ATOM      3  C   UNL     1      38.681   1.881  14.468  0.00  0.00    +0.000 A 
ATOM      4  C   UNL     1      39.683   0.924  14.357  0.00  0.00    +0.000 A 
ATOM      5  C   UNL     1      41.011   0.973  14.002  0.00  0.00    +0.000 A 
ATOM      6  C   UNL     1      41.765  -0.172  13.984  0.00  0.00    +0.000 A 
ATOM      7  C   UNL     1      41.207  -1.393  14.320  0.00  0.00    +0.000 A 
ATOM      8  C   UNL     1      39.887  -1.449  14.674  0.00  0.00    +0.000 A 
ATOM      9  C   UNL     1      39.141  -0.297  14.689  0.00  0.00    +0.000 A 
ENDROOT
BRANCH   1  10
ATOM     10  C   UNL     1      36.928  -1.122  15.415  0.00  0.00    +0.000 C 
BRANCH  10  17
ATOM     11  C   UNL     1      34.866   0.125  17.034  0.00  0.00    +0.000 C 
ATOM     12  C   UNL     1      35.992  -0.622  17.681  0.00  0.00    +0.000 A 
ATOM     13  C   UNL     1      36.024  -0.685  19.082  0.00  0.00    +0.000 A 
ATOM     14  C   UNL     1      37.056  -1.371  19.675  0.00  0.00    +0.000 A 
ATOM     15  C   UNL     1      38.027  -1.976  18.923  0.00  0.00    +0.000 A 
ATOM     16  C   UNL     1      37.966  -1.894  17.554  0.00  0.00    +0.000 A 
ATOM     17  C   UNL     1      36.961  -1.224  16.909  0.00  0.00    +0.000 A 
ENDBRANCH  10  17
ENDBRANCH   1  10
BRANCH   3  18
ATOM     18  S   UNL     1      38.844   3.614  14.154  0.00  0.00    +0.000 S 
BRANCH  18  19
ATOM     19  C   UNL     1      37.923   4.653  15.309  0.00  0.00    +0.000 C 
BRANCH  19  20
ATOM     20  C   UNL     1      38.649   4.836  16.582  0.00  0.00    +0.000 C 
ATOM     21  O   UNL     1      38.511   4.013  17.502  0.00  0.00    +0.000 OA
ATOM     22  N   UNL     1      39.493   5.942  16.750  0.00  0.00    +0.000 NA
BRANCH  22  23
ATOM     23  C   UNL     1      40.211   6.190  17.930  0.00  0.00    +0.000 A 
ATOM     24  C   UNL     1      39.695   6.289  19.196  0.00  0.00    +0.000 A 
ATOM     25  C   UNL     1      40.535   6.547  20.259  0.00  0.00    +0.000 A 
ATOM     26  C   UNL     1      41.891   6.710  20.070  0.00  0.00    +0.000 A 
ATOM     27  C   UNL     1      42.430   6.615  18.810  0.00  0.00    +0.000 A 
ATOM     28  C   UNL     1      41.581   6.358  17.768  0.00  0.00    +0.000 A 
ATOM     29  O   UNL     1      43.798   6.790  18.694  0.00  0.00    +0.000 OA
ATOM     30  C   UNL     1      44.520   7.555  19.680  0.00  0.00    +0.000 C 
ATOM     31  C   UNL     1      44.107   7.201  21.075  0.00  0.00    +0.000 C 
ATOM     32  O   UNL     1      42.739   6.971  21.153  0.00  0.00    +0.000 OA
ENDBRANCH  22  23
ENDBRANCH  19  20
ENDBRANCH  18  19
ENDBRANCH   3  18
TORSDOF 6
ENDMDL
MODEL 4
REMARK VINA RESULT:      -8.5      2.316      4.737
REMARK  Name = 
REMARK  6 active torsions:
REMARK  status: ('A' for Active; 'I' for Inactive)
REMARK    1  A    between atoms: C_7  and  C_8
REMARK    2  A    between atoms: C_8  and  N_9
REMARK    3  A    between atoms: C_11  and  S_12
REMARK    4  A    between atoms: S_12  and  C_13
REMARK    5  A    between atoms: C_13  and  C_14
REMARK    6  A    between atoms: N_16  and  C_17
REMARK                            x       y       z     vdW  Elec       q    Type
REMARK                         _______ _______ _______ _____ _____    ______ ____
ROOT
ATOM      1  N   UNL     1      38.301  -0.654  14.990  0.00  0.00    +0.000 N 
ATOM      2  C   UNL     1      38.078   0.619  14.722  0.00  0.00    +0.000 A 
ATOM      3  C   UNL     1      39.259   1.176  14.306  0.00  0.00    +0.000 A 
ATOM      4  C   UNL     1      40.213   0.166  14.336  0.00  0.00    +0.000 A 
ATOM      5  C   UNL     1      41.554   0.113  14.035  0.00  0.00    +0.000 A 
ATOM      6  C   UNL     1      42.246  -1.063  14.167  0.00  0.00    +0.000 A 
ATOM      7  C   UNL     1      41.613  -2.214  14.604  0.00  0.00    +0.000 A 
ATOM      8  C   UNL     1      40.280  -2.168  14.905  0.00  0.00    +0.000 A 
ATOM      9  C   UNL     1      39.596  -0.986  14.770  0.00  0.00    +0.000 A 
ENDROOT
BRANCH   1  10
ATOM     10  C   UNL     1      37.317  -1.622  15.482  0.00  0.00    +0.000 C 
BRANCH  10  17
ATOM     11  C   UNL     1      38.500  -2.587  17.952  0.00  0.00    +0.000 C 
ATOM     12  C   UNL     1      37.351  -1.626  17.984  0.00  0.00    +0.000 A 
ATOM     13  C   UNL     1      36.862  -1.223  19.235  0.00  0.00    +0.000 A 
ATOM     14  C   UNL     1      35.809  -0.340  19.265  0.00  0.00    +0.000 A 
ATOM     15  C   UNL     1      35.252   0.134  18.108  0.00  0.00    +0.000 A 
ATOM     16  C   UNL     1      35.755  -0.281  16.900  0.00  0.00    +0.000 A 
ATOM     17  C   UNL     1      36.802  -1.159  16.810  0.00  0.00    +0.000 A 
ENDBRANCH  10  17
ENDBRANCH   1  10
BRANCH   3  18
ATOM     18  S   UNL     1      39.525   2.856  13.822  0.00  0.00    +0.000 S 
BRANCH  18  19
ATOM     19  C   UNL     1      38.101   3.930  14.107  0.00  0.00    +0.000 C 
BRANCH  19  20
ATOM     20  C   UNL     1      38.092   4.477  15.479  0.00  0.00    +0.000 C 
ATOM     21  O   UNL     1      37.253   4.078  16.304  0.00  0.00    +0.000 OA
ATOM     22  N   UNL     1      39.030   5.451  15.847  0.00  0.00    +0.000 NA
BRANCH  22  23
ATOM     23  C   UNL     1      39.083   6.025  17.126  0.00  0.00    +0.000 A 
ATOM     24  C   UNL     1      39.564   5.437  18.268  0.00  0.00    +0.000 A 
ATOM     25  C   UNL     1      39.540   6.132  19.458  0.00  0.00    +0.000 A 
ATOM     26  C   UNL     1      39.037   7.415  19.521  0.00  0.00    +0.000 A 
ATOM     27  C   UNL     1      38.551   8.024  18.390  0.00  0.00    +0.000 A 
ATOM     28  C   UNL     1      38.584   7.318  17.219  0.00  0.00    +0.000 A 
ATOM     29  O   UNL     1      38.061   9.312  18.528  0.00  0.00    +0.000 OA
ATOM     30  C   UNL     1      37.573   9.772  19.804  0.00  0.00    +0.000 C 
ATOM     31  C   UNL     1      38.490   9.389  20.924  0.00  0.00    +0.000 C 
ATOM     32  O   UNL     1      39.015   8.117  20.733  0.00  0.00    +0.000 OA
ENDBRANCH  22  23
ENDBRANCH  19  20
ENDBRANCH  18  19
ENDBRANCH   3  18
TORSDOF 6
ENDMDL
MODEL 5
REMARK VINA RESULT:      -8.5      1.745      4.185
REMARK  Name = 
REMARK  6 active torsions:
REMARK  status: ('A' for Active; 'I' for Inactive)
REMARK    1  A    between atoms: C_7  and  C_8
REMARK    2  A    between atoms: C_8  and  N_9
REMARK    3  A    between atoms: C_11  and  S_12
REMARK    4  A    between atoms: S_12  and  C_13
REMARK    5  A    between atoms: C_13  and  C_14
REMARK    6  A    between atoms: N_16  and  C_17
REMARK                            x       y       z     vdW  Elec       q    Type
REMARK                         _______ _______ _______ _____ _____    ______ ____
ROOT
ATOM      1  N   UNL     1      36.722  -1.459  16.392  0.00  0.00    +0.000 N 
ATOM      2  C   UNL     1      36.045  -0.376  16.058  0.00  0.00    +0.000 A 
ATOM      3  C   UNL     1      36.851   0.396  15.262  0.00  0.00    +0.000 A 
ATOM      4  C   UNL     1      38.057  -0.282  15.132  0.00  0.00    +0.000 A 
ATOM      5  C   UNL     1      39.232  -0.017  14.468  0.00  0.00    +0.000 A 
ATOM      6  C   UNL     1      40.276  -0.903  14.528  0.00  0.00    +0.000 A 
ATOM      7  C   UNL     1      40.168  -2.077  15.254  0.00  0.00    +0.000 A 
ATOM      8  C   UNL     1      39.003  -2.348  15.916  0.00  0.00    +0.000 A 
ATOM      9  C   UNL     1      37.964  -1.453  15.850  0.00  0.00    +0.000 A 
ENDROOT
BRANCH   1  10
ATOM     10  C   UNL     1      36.247  -2.548  17.249  0.00  0.00    +0.000 C 
BRANCH  10  17
ATOM     11  C   UNL     1      37.354  -5.186  16.752  0.00  0.00    +0.000 C 
ATOM     12  C   UNL     1      36.037  -4.790  16.157  0.00  0.00    +0.000 A 
ATOM     13  C   UNL     1      35.371  -5.722  15.349  0.00  0.00    +0.000 A 
ATOM     14  C   UNL     1      34.163  -5.359  14.804  0.00  0.00    +0.000 A 
ATOM     15  C   UNL     1      33.623  -4.124  15.043  0.00  0.00    +0.000 A 
ATOM     16  C   UNL     1      34.302  -3.235  15.839  0.00  0.00    +0.000 A 
ATOM     17  C   UNL     1      35.509  -3.542  16.407  0.00  0.00    +0.000 A 
ENDBRANCH  10  17
ENDBRANCH   1  10
BRANCH   3  18
ATOM     18  S   UNL     1      36.440   1.956  14.536  0.00  0.00    +0.000 S 
BRANCH  18  19
ATOM     19  C   UNL     1      36.408   3.322  15.718  0.00  0.00    +0.000 C 
BRANCH  19  20
ATOM     20  C   UNL     1      37.768   3.765  16.083  0.00  0.00    +0.000 C 
ATOM     21  O   UNL     1      38.733   2.995  15.944  0.00  0.00    +0.000 OA
ATOM     22  N   UNL     1      37.968   5.057  16.590  0.00  0.00    +0.000 NA
BRANCH  22  23
ATOM     23  C   UNL     1      39.227   5.550  16.966  0.00  0.00    +0.000 A 
ATOM     24  C   UNL     1      40.247   5.915  16.126  0.00  0.00    +0.000 A 
ATOM     25  C   UNL     1      41.434   6.377  16.652  0.00  0.00    +0.000 A 
ATOM     26  C   UNL     1      41.616   6.476  18.016  0.00  0.00    +0.000 A 
ATOM     27  C   UNL     1      40.608   6.116  18.876  0.00  0.00    +0.000 A 
ATOM     28  C   UNL     1      39.436   5.662  18.335  0.00  0.00    +0.000 A 
ATOM     29  O   UNL     1      40.860   6.242  20.232  0.00  0.00    +0.000 OA
ATOM     30  C   UNL     1      42.214   6.205  20.726  0.00  0.00    +0.000 C 
ATOM     31  C   UNL     1      43.136   7.041  19.896  0.00  0.00    +0.000 C 
ATOM     32  O   UNL     1      42.824   6.946  18.545  0.00  0.00    +0.000 OA
ENDBRANCH  22  23
ENDBRANCH  19  20
ENDBRANCH  18  19
ENDBRANCH   3  18
TORSDOF 6
ENDMDL
MODEL 6
REMARK VINA RESULT:      -8.5      1.801      2.357
REMARK  Name = 
REMARK  6 active torsions:
REMARK  status: ('A' for Active; 'I' for Inactive)
REMARK    1  A    between atoms: C_7  and  C_8
REMARK    2  A    between atoms: C_8  and  N_9
REMARK    3  A    between atoms: C_11  and  S_12
REMARK    4  A    between atoms: S_12  and  C_13
REMARK    5  A    between atoms: C_13  and  C_14
REMARK    6  A    between atoms: N_16  and  C_17
REMARK                            x       y       z     vdW  Elec       q    Type
REMARK                         _______ _______ _______ _____ _____    ______ ____
ROOT
ATOM      1  N   UNL     1      37.005  -0.697  14.533  0.00  0.00    +0.000 N 
ATOM      2  C   UNL     1      37.354   0.575  14.582  0.00  0.00    +0.000 A 
ATOM      3  C   UNL     1      36.670   1.160  15.616  0.00  0.00    +0.000 A 
ATOM      4  C   UNL     1      35.885   0.169  16.192  0.00  0.00    +0.000 A 
ATOM      5  C   UNL     1      35.000   0.146  17.245  0.00  0.00    +0.000 A 
ATOM      6  C   UNL     1      34.361  -1.017  17.586  0.00  0.00    +0.000 A 
ATOM      7  C   UNL     1      34.592  -2.186  16.882  0.00  0.00    +0.000 A 
ATOM      8  C   UNL     1      35.470  -2.171  15.834  0.00  0.00    +0.000 A 
ATOM      9  C   UNL     1      36.105  -1.001  15.500  0.00  0.00    +0.000 A 
ENDROOT
BRANCH   1  10
ATOM     10  C   UNL     1      37.482  -1.691  13.569  0.00  0.00    +0.000 C 
BRANCH  10  17
ATOM     11  C   UNL     1      39.415  -0.839  11.576  0.00  0.00    +0.000 C 
ATOM     12  C   UNL     1      39.868  -1.518  12.832  0.00  0.00    +0.000 A 
ATOM     13  C   UNL     1      41.242  -1.739  13.005  0.00  0.00    +0.000 A 
ATOM     14  C   UNL     1      41.658  -2.361  14.157  0.00  0.00    +0.000 A 
ATOM     15  C   UNL     1      40.758  -2.754  15.112  0.00  0.00    +0.000 A 
ATOM     16  C   UNL     1      39.421  -2.523  14.911  0.00  0.00    +0.000 A 
ATOM     17  C   UNL     1      38.949  -1.908  13.782  0.00  0.00    +0.000 A 
ENDBRANCH  10  17
ENDBRANCH   1  10
BRANCH   3  18
ATOM     18  S   UNL     1      36.764   2.852  16.124  0.00  0.00    +0.000 S 
BRANCH  18  19
ATOM     19  C   UNL     1      38.021   3.806  15.246  0.00  0.00    +0.000 C 
BRANCH  19  20
ATOM     20  C   UNL     1      38.658   4.812  16.120  0.00  0.00    +0.000 C 
ATOM     21  O   UNL     1      39.657   5.436  15.727  0.00  0.00    +0.000 OA
ATOM     22  N   UNL     1      38.132   5.060  17.396  0.00  0.00    +0.000 NA
BRANCH  22  23
ATOM     23  C   UNL     1      38.683   5.993  18.287  0.00  0.00    +0.000 A 
ATOM     24  C   UNL     1      39.717   5.779  19.161  0.00  0.00    +0.000 A 
ATOM     25  C   UNL     1      40.140   6.801  19.984  0.00  0.00    +0.000 A 
ATOM     26  C   UNL     1      39.539   8.041  19.944  0.00  0.00    +0.000 A 
ATOM     27  C   UNL     1      38.501   8.279  19.076  0.00  0.00    +0.000 A 
ATOM     28  C   UNL     1      38.095   7.253  18.267  0.00  0.00    +0.000 A 
ATOM     29  O   UNL     1      37.944   9.546  19.091  0.00  0.00    +0.000 OA
ATOM     30  C   UNL     1      38.037  10.368  20.271  0.00  0.00    +0.000 C 
ATOM     31  C   UNL     1      39.412  10.344  20.863  0.00  0.00    +0.000 C 
ATOM     32  O   UNL     1      39.973   9.075  20.782  0.00  0.00    +0.000 OA
ENDBRANCH  22  23
ENDBRANCH  19  20
ENDBRANCH  18  19
ENDBRANCH   3  18
TORSDOF 6
ENDMDL
MODEL 7
REMARK VINA RESULT:      -8.4      1.465      2.387
REMARK  Name = 
REMARK  6 active torsions:
REMARK  status: ('A' for Active; 'I' for Inactive)
REMARK    1  A    between atoms: C_7  and  C_8
REMARK    2  A    between atoms: C_8  and  N_9
REMARK    3  A    between atoms: C_11  and  S_12
REMARK    4  A    between atoms: S_12  and  C_13
REMARK    5  A    between atoms: C_13  and  C_14
REMARK    6  A    between atoms: N_16  and  C_17
REMARK                            x       y       z     vdW  Elec       q    Type
REMARK                         _______ _______ _______ _____ _____    ______ ____
ROOT
ATOM      1  N   UNL     1      37.156  -0.546  14.291  0.00  0.00    +0.000 N 
ATOM      2  C   UNL     1      37.797   0.498  13.799  0.00  0.00    +0.000 A 
ATOM      3  C   UNL     1      37.367   1.612  14.472  0.00  0.00    +0.000 A 
ATOM      4  C   UNL     1      36.429   1.184  15.403  0.00  0.00    +0.000 A 
ATOM      5  C   UNL     1      35.664   1.825  16.349  0.00  0.00    +0.000 A 
ATOM      6  C   UNL     1      34.803   1.112  17.143  0.00  0.00    +0.000 A 
ATOM      7  C   UNL     1      34.688  -0.261  17.008  0.00  0.00    +0.000 A 
ATOM      8  C   UNL     1      35.445  -0.905  16.069  0.00  0.00    +0.000 A 
ATOM      9  C   UNL     1      36.304  -0.182  15.280  0.00  0.00    +0.000 A 
ENDROOT
BRANCH   1  10
ATOM     10  C   UNL     1      37.297  -1.936  13.852  0.00  0.00    +0.000 C 
BRANCH  10  17
ATOM     11  C   UNL     1      35.814  -4.292  14.675  0.00  0.00    +0.000 C 
ATOM     12  C   UNL     1      37.051  -3.877  15.412  0.00  0.00    +0.000 A 
ATOM     13  C   UNL     1      37.456  -4.650  16.510  0.00  0.00    +0.000 A 
ATOM     14  C   UNL     1      38.591  -4.270  17.185  0.00  0.00    +0.000 A 
ATOM     15  C   UNL     1      39.308  -3.169  16.797  0.00  0.00    +0.000 A 
ATOM     16  C   UNL     1      38.883  -2.436  15.718  0.00  0.00    +0.000 A 
ATOM     17  C   UNL     1      37.760  -2.767  15.009  0.00  0.00    +0.000 A 
ENDBRANCH  10  17
ENDBRANCH   1  10
BRANCH   3  18
ATOM     18  S   UNL     1      37.902   3.278  14.211  0.00  0.00    +0.000 S 
BRANCH  18  19
ATOM     19  C   UNL     1      37.199   4.460  15.382  0.00  0.00    +0.000 C 
BRANCH  19  20
ATOM     20  C   UNL     1      38.082   4.673  16.545  0.00  0.00    +0.000 C 
ATOM     21  O   UNL     1      38.321   3.737  17.326  0.00  0.00    +0.000 OA
ATOM     22  N   UNL     1      38.650   5.935  16.768  0.00  0.00    +0.000 NA
BRANCH  22  23
ATOM     23  C   UNL     1      39.493   6.220  17.853  0.00  0.00    +0.000 A 
ATOM     24  C   UNL     1      39.108   6.474  19.144  0.00  0.00    +0.000 A 
ATOM     25  C   UNL     1      40.062   6.747  20.101  0.00  0.00    +0.000 A 
ATOM     26  C   UNL     1      41.403   6.770  19.782  0.00  0.00    +0.000 A 
ATOM     27  C   UNL     1      41.812   6.517  18.495  0.00  0.00    +0.000 A 
ATOM     28  C   UNL     1      40.851   6.248  17.560  0.00  0.00    +0.000 A 
ATOM     29  O   UNL     1      43.174   6.558  18.246  0.00  0.00    +0.000 OA
ATOM     30  C   UNL     1      44.045   7.338  19.090  0.00  0.00    +0.000 C 
ATOM     31  C   UNL     1      43.737   7.145  20.542  0.00  0.00    +0.000 C 
ATOM     32  O   UNL     1      42.368   7.047  20.758  0.00  0.00    +0.000 OA
ENDBRANCH  22  23
ENDBRANCH  19  20
ENDBRANCH  18  19
ENDBRANCH   3  18
TORSDOF 6
ENDMDL
MODEL 8
REMARK VINA RESULT:      -8.3     25.719     28.275
REMARK  Name = 
REMARK  6 active torsions:
REMARK  status: ('A' for Active; 'I' for Inactive)
REMARK    1  A    between atoms: C_7  and  C_8
REMARK    2  A    between atoms: C_8  and  N_9
REMARK    3  A    between atoms: C_11  and  S_12
REMARK    4  A    between atoms: S_12  and  C_13
REMARK    5  A    between atoms: C_13  and  C_14
REMARK    6  A    between atoms: N_16  and  C_17
REMARK                            x       y       z     vdW  Elec       q    Type
REMARK                         _______ _______ _______ _____ _____    ______ ____
ROOT
ATOM      1  N   UNL     1      26.624  16.512  36.730  0.00  0.00    +0.000 N 
ATOM      2  C   UNL     1      27.938  16.411  36.808  0.00  0.00    +0.000 A 
ATOM      3  C   UNL     1      28.235  15.590  37.866  0.00  0.00    +0.000 A 
ATOM      4  C   UNL     1      27.025  15.199  38.424  0.00  0.00    +0.000 A 
ATOM      5  C   UNL     1      26.682  14.394  39.486  0.00  0.00    +0.000 A 
ATOM      6  C   UNL     1      25.364  14.191  39.802  0.00  0.00    +0.000 A 
ATOM      7  C   UNL     1      24.357  14.788  39.063  0.00  0.00    +0.000 A 
ATOM      8  C   UNL     1      24.691  15.590  38.007  0.00  0.00    +0.000 A 
ATOM      9  C   UNL     1      26.014  15.787  37.698  0.00  0.00    +0.000 A 
ENDROOT
BRANCH   1  10
ATOM     10  C   UNL     1      25.872  17.306  35.755  0.00  0.00    +0.000 C 
BRANCH  10  17
ATOM     11  C   UNL     1      24.581  18.435  33.413  0.00  0.00    +0.000 C 
ATOM     12  C   UNL     1      24.975  16.990  33.440  0.00  0.00    +0.000 A 
ATOM     13  C   UNL     1      24.690  16.206  32.313  0.00  0.00    +0.000 A 
ATOM     14  C   UNL     1      25.053  14.881  32.338  0.00  0.00    +0.000 A 
ATOM     15  C   UNL     1      25.676  14.340  33.430  0.00  0.00    +0.000 A 
ATOM     16  C   UNL     1      25.940  15.135  34.517  0.00  0.00    +0.000 A 
ATOM     17  C   UNL     1      25.601  16.461  34.548  0.00  0.00    +0.000 A 
ENDBRANCH  10  17
ENDBRANCH   1  10
BRANCH   3  18
ATOM     18  S   UNL     1      29.848  15.117  38.417  0.00  0.00    +0.000 S 
BRANCH  18  19
ATOM     19  C   UNL     1      30.061  15.209  40.208  0.00  0.00    +0.000 C 
BRANCH  19  20
ATOM     20  C   UNL     1      29.874  13.893  40.852  0.00  0.00    +0.000 C 
ATOM     21  O   UNL     1      29.915  13.793  42.090  0.00  0.00    +0.000 OA
ATOM     22  N   UNL     1      29.650  12.756  40.063  0.00  0.00    +0.000 NA
BRANCH  22  23
ATOM     23  C   UNL     1      29.470  11.471  40.597  0.00  0.00    +0.000 A 
ATOM     24  C   UNL     1      30.451  10.555  40.874  0.00  0.00    +0.000 A 
ATOM     25  C   UNL     1      30.110   9.324  41.393  0.00  0.00    +0.000 A 
ATOM     26  C   UNL     1      28.794   8.995  41.638  0.00  0.00    +0.000 A 
ATOM     27  C   UNL     1      27.794   9.898  41.368  0.00  0.00    +0.000 A 
ATOM     28  C   UNL     1      28.152  11.114  40.855  0.00  0.00    +0.000 A 
ATOM     29  O   UNL     1      26.495   9.501  41.638  0.00  0.00    +0.000 OA
ATOM     30  C   UNL     1      26.152   8.100  41.658  0.00  0.00    +0.000 C 
ATOM     31  C   UNL     1      27.163   7.287  42.404  0.00  0.00    +0.000 C 
ATOM     32  O   UNL     1      28.454   7.743  42.164  0.00  0.00    +0.000 OA
ENDBRANCH  22  23
ENDBRANCH  19  20
ENDBRANCH  18  19
ENDBRANCH   3  18
TORSDOF 6
ENDMDL
MODEL 9
REMARK VINA RESULT:      -8.2      2.360      4.214
REMARK  Name = 
REMARK  6 active torsions:
REMARK  status: ('A' for Active; 'I' for Inactive)
REMARK    1  A    between atoms: C_7  and  C_8
REMARK    2  A    between atoms: C_8  and  N_9
REMARK    3  A    between atoms: C_11  and  S_12
REMARK    4  A    between atoms: S_12  and  C_13
REMARK    5  A    between atoms: C_13  and  C_14
REMARK    6  A    between atoms: N_16  and  C_17
REMARK                            x       y       z     vdW  Elec       q    Type
REMARK                         _______ _______ _______ _____ _____    ______ ____
ROOT
ATOM      1  N   UNL     1      36.789  -0.199  15.314  0.00  0.00    +0.000 N 
ATOM      2  C   UNL     1      37.499  -0.112  14.205  0.00  0.00    +0.000 A 
ATOM      3  C   UNL     1      37.187   1.077  13.597  0.00  0.00    +0.000 A 
ATOM      4  C   UNL     1      36.247   1.707  14.403  0.00  0.00    +0.000 A 
ATOM      5  C   UNL     1      35.571   2.902  14.321  0.00  0.00    +0.000 A 
ATOM      6  C   UNL     1      34.679   3.260  15.299  0.00  0.00    +0.000 A 
ATOM      7  C   UNL     1      34.444   2.431  16.383  0.00  0.00    +0.000 A 
ATOM      8  C   UNL     1      35.113   1.241  16.470  0.00  0.00    +0.000 A 
ATOM      9  C   UNL     1      36.003   0.892  15.485  0.00  0.00    +0.000 A 
ENDROOT
BRANCH   1  10
ATOM     10  C   UNL     1      36.797  -1.314  16.264  0.00  0.00    +0.000 C 
BRANCH  10  17
ATOM     11  C   UNL     1      34.118  -1.837  17.253  0.00  0.00    +0.000 C 
ATOM     12  C   UNL     1      34.712  -2.696  16.179  0.00  0.00    +0.000 A 
ATOM     13  C   UNL     1      33.944  -3.759  15.683  0.00  0.00    +0.000 A 
ATOM     14  C   UNL     1      34.489  -4.546  14.697  0.00  0.00    +0.000 A 
ATOM     15  C   UNL     1      35.745  -4.301  14.212  0.00  0.00    +0.000 A 
ATOM     16  C   UNL     1      36.470  -3.253  14.720  0.00  0.00    +0.000 A 
ATOM     17  C   UNL     1      35.978  -2.436  15.702  0.00  0.00    +0.000 A 
ENDBRANCH  10  17
ENDBRANCH   1  10
BRANCH   3  18
ATOM     18  S   UNL     1      37.852   1.695  12.079  0.00  0.00    +0.000 S 
BRANCH  18  19
ATOM     19  C   UNL     1      39.144   2.937  12.303  0.00  0.00    +0.000 C 
BRANCH  19  20
ATOM     20  C   UNL     1      39.383   3.231  13.730  0.00  0.00    +0.000 C 
ATOM     21  O   UNL     1      40.110   2.485  14.407  0.00  0.00    +0.000 OA
ATOM     22  N   UNL     1      38.786   4.353  14.320  0.00  0.00    +0.000 NA
BRANCH  22  23
ATOM     23  C   UNL     1      38.957   4.697  15.670  0.00  0.00    +0.000 A 
ATOM     24  C   UNL     1      38.191   4.275  16.725  0.00  0.00    +0.000 A 
ATOM     25  C   UNL     1      38.483   4.711  18.000  0.00  0.00    +0.000 A 
ATOM     26  C   UNL     1      39.537   5.568  18.234  0.00  0.00    +0.000 A 
ATOM     27  C   UNL     1      40.320   6.003  17.192  0.00  0.00    +0.000 A 
ATOM     28  C   UNL     1      40.014   5.559  15.934  0.00  0.00    +0.000 A 
ATOM     29  O   UNL     1      41.361   6.862  17.499  0.00  0.00    +0.000 OA
ATOM     30  C   UNL     1      41.302   7.680  18.685  0.00  0.00    +0.000 C 
ATOM     31  C   UNL     1      40.833   6.905  19.876  0.00  0.00    +0.000 C 
ATOM     32  O   UNL     1      39.830   6.007  19.531  0.00  0.00    +0.000 OA
ENDBRANCH  22  23
ENDBRANCH  19  20
ENDBRANCH  18  19
ENDBRANCH   3  18
TORSDOF 6
ENDMDL
MODEL 10
REMARK VINA RESULT:      -8.2      1.559      2.391
REMARK  Name = 
REMARK  6 active torsions:
REMARK  status: ('A' for Active; 'I' for Inactive)
REMARK    1  A    between atoms: C_7  and  C_8
REMARK    2  A    between atoms: C_8  and  N_9
REMARK    3  A    between atoms: C_11  and  S_12
REMARK    4  A    between atoms: S_12  and  C_13
REMARK    5  A    between atoms: C_13  and  C_14
REMARK    6  A    between atoms: N_16  and  C_17
REMARK                            x       y       z     vdW  Elec       q    Type
REMARK                         _______ _______ _______ _____ _____    ______ ____
ROOT
ATOM      1  N   UNL     1      37.674  -1.197  14.022  0.00  0.00    +0.000 N 
ATOM      2  C   UNL     1      37.446  -0.066  14.666  0.00  0.00    +0.000 A 
ATOM      3  C   UNL     1      36.472  -0.302  15.601  0.00  0.00    +0.000 A 
ATOM      4  C   UNL     1      36.122  -1.642  15.489  0.00  0.00    +0.000 A 
ATOM      5  C   UNL     1      35.221  -2.449  16.144  0.00  0.00    +0.000 A 
ATOM      6  C   UNL     1      35.099  -3.771  15.800  0.00  0.00    +0.000 A 
ATOM      7  C   UNL     1      35.876  -4.316  14.792  0.00  0.00    +0.000 A 
ATOM      8  C   UNL     1      36.773  -3.519  14.137  0.00  0.00    +0.000 A 
ATOM      9  C   UNL     1      36.888  -2.197  14.488  0.00  0.00    +0.000 A 
ENDROOT
BRANCH   1  10
ATOM     10  C   UNL     1      38.627  -1.395  12.928  0.00  0.00    +0.000 C 
BRANCH  10  17
ATOM     11  C   UNL     1      40.208   0.939  12.235  0.00  0.00    +0.000 C 
ATOM     12  C   UNL     1      40.776  -0.128  13.120  0.00  0.00    +0.000 A 
ATOM     13  C   UNL     1      42.089   0.031  13.587  0.00  0.00    +0.000 A 
ATOM     14  C   UNL     1      42.609  -0.947  14.400  0.00  0.00    +0.000 A 
ATOM     15  C   UNL     1      41.869  -2.045  14.746  0.00  0.00    +0.000 A 
ATOM     16  C   UNL     1      40.587  -2.169  14.272  0.00  0.00    +0.000 A 
ATOM     17  C   UNL     1      40.018  -1.227  13.458  0.00  0.00    +0.000 A 
ENDBRANCH  10  17
ENDBRANCH   1  10
BRANCH   3  18
ATOM     18  S   UNL     1      35.789   0.870  16.736  0.00  0.00    +0.000 S 
BRANCH  18  19
ATOM     19  C   UNL     1      35.232   2.400  15.955  0.00  0.00    +0.000 C 
BRANCH  19  20
ATOM     20  C   UNL     1      36.272   3.447  15.994  0.00  0.00    +0.000 C 
ATOM     21  O   UNL     1      36.201   4.425  15.230  0.00  0.00    +0.000 OA
ATOM     22  N   UNL     1      37.341   3.335  16.894  0.00  0.00    +0.000 NA
BRANCH  22  23
ATOM     23  C   UNL     1      38.371   4.283  16.987  0.00  0.00    +0.000 A 
ATOM     24  C   UNL     1      39.154   4.745  15.961  0.00  0.00    +0.000 A 
ATOM     25  C   UNL     1      40.137   5.677  16.216  0.00  0.00    +0.000 A 
ATOM     26  C   UNL     1      40.350   6.155  17.492  0.00  0.00    +0.000 A 
ATOM     27  C   UNL     1      39.577   5.707  18.536  0.00  0.00    +0.000 A 
ATOM     28  C   UNL     1      38.606   4.783  18.262  0.00  0.00    +0.000 A 
ATOM     29  O   UNL     1      39.846   6.229  19.790  0.00  0.00    +0.000 OA
ATOM     30  C   UNL     1      41.155   6.750  20.095  0.00  0.00    +0.000 C 
ATOM     31  C   UNL     1      41.684   7.614  18.993  0.00  0.00    +0.000 C 
ATOM     32  O   UNL     1      41.350   7.101  17.746  0.00  0.00    +0.000 OA
ENDBRANCH  22  23
ENDBRANCH  19  20
ENDBRANCH  18  19
ENDBRANCH   3  18
TORSDOF 6
ENDMDL
