MODEL 1
REMARK VINA RESULT:      -7.4      0.000      0.000
REMARK  Name = 
REMARK  0 active torsions:
REMARK  status: ('A' for Active; 'I' for Inactive)
REMARK                            x       y       z     vdW  Elec       q    Type
REMARK                         _______ _______ _______ _____ _____    ______ ____
ROOT
ATOM      1  N   UNL     1      17.301  -7.773  27.538  0.00  0.00    +0.000 NA
ATOM      2  C   UNL     1      18.227  -6.897  26.910  0.00  0.00    +0.000 A 
ATOM      3  N   UNL     1      17.984  -5.588  26.829  0.00  0.00    +0.000 NA
ATOM      4  C   UNL     1      18.882  -4.795  26.229  0.00  0.00    +0.000 A 
ATOM      5  N   UNL     1      20.020  -5.312  25.712  0.00  0.00    +0.000 NA
ATOM      6  C   UNL     1      20.267  -6.627  25.790  0.00  0.00    +0.000 A 
ATOM      7  C   UNL     1      19.383  -7.488  26.394  0.00  0.00    +0.000 A 
ATOM      8  C   UNL     1      19.612  -8.935  26.503  0.00  0.00    +0.000 C 
ATOM      9  C   UNL     1      18.415  -9.655  25.842  0.00  0.00    +0.000 C 
ATOM     10  C   UNL     1      18.760 -11.135  25.916  0.00  0.00    +0.000 C 
ATOM     11  C   UNL     1      18.672 -11.533  27.366  0.00  0.00    +0.000 C 
ATOM     12  C   UNL     1      19.549 -10.724  28.266  0.00  0.00    +0.000 C 
ATOM     13  C   UNL     1      19.539  -9.261  27.991  0.00  0.00    +0.000 C 
ATOM     14  C   UNL     1      20.872  -9.447  25.920  0.00  0.00    +0.000 C 
ATOM     15  C   UNL     1      21.771  -8.489  25.293  0.00  0.00    +0.000 A 
ATOM     16  C   UNL     1      22.980  -8.901  24.720  0.00  0.00    +0.000 A 
ATOM     17  C   UNL     1      23.843  -8.040  24.128  0.00  0.00    +0.000 A 
ATOM     18  C   UNL     1      23.563  -6.695  24.062  0.00  0.00    +0.000 A 
ATOM     19  C   UNL     1      22.392  -6.275  24.612  0.00  0.00    +0.000 A 
ATOM     20  C   UNL     1      21.511  -7.152  25.217  0.00  0.00    +0.000 A 
ENDROOT
TORSDOF 0
ENDMDL
MODEL 2
REMARK VINA RESULT:      -7.1     21.575     22.953
REMARK  Name = 
REMARK  0 active torsions:
REMARK  status: ('A' for Active; 'I' for Inactive)
REMARK                            x       y       z     vdW  Elec       q    Type
REMARK                         _______ _______ _______ _____ _____    ______ ____
ROOT
ATOM      1  N   UNL     1      19.598   8.431  40.865  0.00  0.00    +0.000 NA
ATOM      2  C   UNL     1      19.259   9.107  39.662  0.00  0.00    +0.000 A 
ATOM      3  N   UNL     1      20.177   9.330  38.720  0.00  0.00    +0.000 NA
ATOM      4  C   UNL     1      19.818   9.972  37.600  0.00  0.00    +0.000 A 
ATOM      5  N   UNL     1      18.543  10.388  37.424  0.00  0.00    +0.000 NA
ATOM      6  C   UNL     1      17.618  10.166  38.369  0.00  0.00    +0.000 A 
ATOM      7  C   UNL     1      17.928   9.513  39.537  0.00  0.00    +0.000 A 
ATOM      8  C   UNL     1      16.948   9.248  40.599  0.00  0.00    +0.000 C 
ATOM      9  C   UNL     1      17.482   9.880  41.904  0.00  0.00    +0.000 C 
ATOM     10  C   UNL     1      16.385   9.642  42.931  0.00  0.00    +0.000 C 
ATOM     11  C   UNL     1      16.368   8.163  43.219  0.00  0.00    +0.000 C 
ATOM     12  C   UNL     1      16.170   7.316  42.004  0.00  0.00    +0.000 C 
ATOM     13  C   UNL     1      16.963   7.738  40.816  0.00  0.00    +0.000 C 
ATOM     14  C   UNL     1      15.569   9.725  40.354  0.00  0.00    +0.000 C 
ATOM     15  C   UNL     1      15.297  10.410  39.099  0.00  0.00    +0.000 A 
ATOM     16  C   UNL     1      14.017  10.889  38.800  0.00  0.00    +0.000 A 
ATOM     17  C   UNL     1      13.725  11.531  37.642  0.00  0.00    +0.000 A 
ATOM     18  C   UNL     1      14.695  11.745  36.691  0.00  0.00    +0.000 A 
ATOM     19  C   UNL     1      15.946  11.287  36.963  0.00  0.00    +0.000 A 
ATOM     20  C   UNL     1      16.245  10.632  38.143  0.00  0.00    +0.000 A 
ENDROOT
TORSDOF 0
ENDMDL
MODEL 3
REMARK VINA RESULT:      -6.9     31.915     33.207
REMARK  Name = 
REMARK  0 active torsions:
REMARK  status: ('A' for Active; 'I' for Inactive)
REMARK                            x       y       z     vdW  Elec       q    Type
REMARK                         _______ _______ _______ _____ _____    ______ ____
ROOT
ATOM      1  N   UNL     1      28.776  23.559  22.412  0.00  0.00    +0.000 NA
ATOM      2  C   UNL     1      27.674  23.484  23.306  0.00  0.00    +0.000 A 
ATOM      3  N   UNL     1      26.438  23.273  22.853  0.00  0.00    +0.000 NA
ATOM      4  C   UNL     1      25.425  23.210  23.728  0.00  0.00    +0.000 A 
ATOM      5  N   UNL     1      25.651  23.357  25.054  0.00  0.00    +0.000 NA
ATOM      6  C   UNL     1      26.892  23.571  25.513  0.00  0.00    +0.000 A 
ATOM      7  C   UNL     1      27.968  23.645  24.663  0.00  0.00    +0.000 A 
ATOM      8  C   UNL     1      29.345  23.877  25.121  0.00  0.00    +0.000 C 
ATOM      9  C   UNL     1      29.878  25.137  24.401  0.00  0.00    +0.000 C 
ATOM     10  C   UNL     1      31.264  25.363  24.983  0.00  0.00    +0.000 C 
ATOM     11  C   UNL     1      32.141  24.250  24.472  0.00  0.00    +0.000 C 
ATOM     12  C   UNL     1      31.630  22.883  24.797  0.00  0.00    +0.000 C 
ATOM     13  C   UNL     1      30.166  22.704  24.595  0.00  0.00    +0.000 C 
ATOM     14  C   UNL     1      29.535  24.032  26.580  0.00  0.00    +0.000 C 
ATOM     15  C   UNL     1      28.359  23.944  27.433  0.00  0.00    +0.000 A 
ATOM     16  C   UNL     1      28.463  24.081  28.822  0.00  0.00    +0.000 A 
ATOM     17  C   UNL     1      27.391  24.005  29.649  0.00  0.00    +0.000 A 
ATOM     18  C   UNL     1      26.129  23.785  29.149  0.00  0.00    +0.000 A 
ATOM     19  C   UNL     1      26.008  23.650  27.802  0.00  0.00    +0.000 A 
ATOM     20  C   UNL     1      27.099  23.727  26.957  0.00  0.00    +0.000 A 
ENDROOT
TORSDOF 0
ENDMDL
MODEL 4
REMARK VINA RESULT:      -6.7      2.162      4.263
REMARK  Name = 
REMARK  0 active torsions:
REMARK  status: ('A' for Active; 'I' for Inactive)
REMARK                            x       y       z     vdW  Elec       q    Type
REMARK                         _______ _______ _______ _____ _____    ______ ____
ROOT
ATOM      1  N   UNL     1      23.410 -10.516  24.983  0.00  0.00    +0.000 NA
ATOM      2  C   UNL     1      23.002  -9.159  24.869  0.00  0.00    +0.000 A 
ATOM      3  N   UNL     1      23.734  -8.279  24.185  0.00  0.00    +0.000 NA
ATOM      4  C   UNL     1      23.315  -7.009  24.101  0.00  0.00    +0.000 A 
ATOM      5  N   UNL     1      22.166  -6.622  24.702  0.00  0.00    +0.000 NA
ATOM      6  C   UNL     1      21.429  -7.503  25.392  0.00  0.00    +0.000 A 
ATOM      7  C   UNL     1      21.808  -8.818  25.511  0.00  0.00    +0.000 A 
ATOM      8  C   UNL     1      21.032  -9.819  26.256  0.00  0.00    +0.000 C 
ATOM      9  C   UNL     1      21.956 -10.427  27.336  0.00  0.00    +0.000 C 
ATOM     10  C   UNL     1      21.068 -11.384  28.116  0.00  0.00    +0.000 C 
ATOM     11  C   UNL     1      20.761 -12.541  27.202  0.00  0.00    +0.000 C 
ATOM     12  C   UNL     1      20.123 -12.136  25.912  0.00  0.00    +0.000 C 
ATOM     13  C   UNL     1      20.733 -10.941  25.267  0.00  0.00    +0.000 C 
ATOM     14  C   UNL     1      19.785  -9.342  26.894  0.00  0.00    +0.000 C 
ATOM     15  C   UNL     1      19.432  -7.938  26.735  0.00  0.00    +0.000 A 
ATOM     16  C   UNL     1      18.268  -7.417  27.310  0.00  0.00    +0.000 A 
ATOM     17  C   UNL     1      17.906  -6.117  27.184  0.00  0.00    +0.000 A 
ATOM     18  C   UNL     1      18.683  -5.234  26.470  0.00  0.00    +0.000 A 
ATOM     19  C   UNL     1      19.819  -5.722  25.904  0.00  0.00    +0.000 A 
ATOM     20  C   UNL     1      20.190  -7.048  26.031  0.00  0.00    +0.000 A 
ENDROOT
TORSDOF 0
ENDMDL
MODEL 5
REMARK VINA RESULT:      -6.7     19.585     21.572
REMARK  Name = 
REMARK  0 active torsions:
REMARK  status: ('A' for Active; 'I' for Inactive)
REMARK                            x       y       z     vdW  Elec       q    Type
REMARK                         _______ _______ _______ _____ _____    ______ ____
ROOT
ATOM      1  N   UNL     1      35.198   5.267  38.883  0.00  0.00    +0.000 NA
ATOM      2  C   UNL     1      34.766   3.959  38.530  0.00  0.00    +0.000 A 
ATOM      3  N   UNL     1      34.578   3.025  39.464  0.00  0.00    +0.000 NA
ATOM      4  C   UNL     1      34.172   1.804  39.092  0.00  0.00    +0.000 A 
ATOM      5  N   UNL     1      33.955   1.519  37.787  0.00  0.00    +0.000 NA
ATOM      6  C   UNL     1      34.144   2.454  36.846  0.00  0.00    +0.000 A 
ATOM      7  C   UNL     1      34.559   3.723  37.168  0.00  0.00    +0.000 A 
ATOM      8  C   UNL     1      34.779   4.780  36.171  0.00  0.00    +0.000 C 
ATOM      9  C   UNL     1      36.236   5.273  36.318  0.00  0.00    +0.000 C 
ATOM     10  C   UNL     1      36.415   6.297  35.207  0.00  0.00    +0.000 C 
ATOM     11  C   UNL     1      35.583   7.496  35.577  0.00  0.00    +0.000 C 
ATOM     12  C   UNL     1      34.139   7.181  35.799  0.00  0.00    +0.000 C 
ATOM     13  C   UNL     1      33.888   5.945  36.591  0.00  0.00    +0.000 C 
ATOM     14  C   UNL     1      34.527   4.414  34.760  0.00  0.00    +0.000 C 
ATOM     15  C   UNL     1      34.088   3.055  34.476  0.00  0.00    +0.000 A 
ATOM     16  C   UNL     1      33.831   2.638  33.165  0.00  0.00    +0.000 A 
ATOM     17  C   UNL     1      33.420   1.383  32.862  0.00  0.00    +0.000 A 
ATOM     18  C   UNL     1      33.236   0.443  33.849  0.00  0.00    +0.000 A 
ATOM     19  C   UNL     1      33.481   0.829  35.129  0.00  0.00    +0.000 A 
ATOM     20  C   UNL     1      33.899   2.109  35.441  0.00  0.00    +0.000 A 
ENDROOT
TORSDOF 0
ENDMDL
MODEL 6
REMARK VINA RESULT:      -6.7     13.786     15.440
REMARK  Name = 
REMARK  0 active torsions:
REMARK  status: ('A' for Active; 'I' for Inactive)
REMARK                            x       y       z     vdW  Elec       q    Type
REMARK                         _______ _______ _______ _____ _____    ______ ____
ROOT
ATOM      1  N   UNL     1      32.243  -8.119  32.493  0.00  0.00    +0.000 NA
ATOM      2  C   UNL     1      31.844  -7.210  33.509  0.00  0.00    +0.000 A 
ATOM      3  N   UNL     1      31.016  -7.592  34.483  0.00  0.00    +0.000 NA
ATOM      4  C   UNL     1      30.662  -6.705  35.423  0.00  0.00    +0.000 A 
ATOM      5  N   UNL     1      31.137  -5.439  35.387  0.00  0.00    +0.000 NA
ATOM      6  C   UNL     1      31.968  -5.050  34.410  0.00  0.00    +0.000 A 
ATOM      7  C   UNL     1      32.365  -5.916  33.420  0.00  0.00    +0.000 A 
ATOM      8  C   UNL     1      33.274  -5.536  32.330  0.00  0.00    +0.000 C 
ATOM      9  C   UNL     1      32.552  -5.814  30.992  0.00  0.00    +0.000 C 
ATOM     10  C   UNL     1      33.512  -5.320  29.920  0.00  0.00    +0.000 C 
ATOM     11  C   UNL     1      34.682  -6.268  29.910  0.00  0.00    +0.000 C 
ATOM     12  C   UNL     1      35.364  -6.397  31.234  0.00  0.00    +0.000 C 
ATOM     13  C   UNL     1      34.443  -6.513  32.398  0.00  0.00    +0.000 C 
ATOM     14  C   UNL     1      33.762  -4.139  32.340  0.00  0.00    +0.000 C 
ATOM     15  C   UNL     1      33.309  -3.265  33.413  0.00  0.00    +0.000 A 
ATOM     16  C   UNL     1      33.730  -1.933  33.485  0.00  0.00    +0.000 A 
ATOM     17  C   UNL     1      33.330  -1.090  34.468  0.00  0.00    +0.000 A 
ATOM     18  C   UNL     1      32.475  -1.516  35.458  0.00  0.00    +0.000 A 
ATOM     19  C   UNL     1      32.055  -2.808  35.405  0.00  0.00    +0.000 A 
ATOM     20  C   UNL     1      32.462  -3.669  34.403  0.00  0.00    +0.000 A 
ENDROOT
TORSDOF 0
ENDMDL
MODEL 7
REMARK VINA RESULT:      -6.6      2.395      4.275
REMARK  Name = 
REMARK  0 active torsions:
REMARK  status: ('A' for Active; 'I' for Inactive)
REMARK                            x       y       z     vdW  Elec       q    Type
REMARK                         _______ _______ _______ _____ _____    ______ ____
ROOT
ATOM      1  N   UNL     1      19.944 -12.150  27.763  0.00  0.00    +0.000 NA
ATOM      2  C   UNL     1      20.501 -11.052  27.053  0.00  0.00    +0.000 A 
ATOM      3  N   UNL     1      21.617 -11.195  26.337  0.00  0.00    +0.000 NA
ATOM      4  C   UNL     1      22.111 -10.135  25.682  0.00  0.00    +0.000 A 
ATOM      5  N   UNL     1      21.488  -8.936  25.745  0.00  0.00    +0.000 NA
ATOM      6  C   UNL     1      20.367  -8.788  26.465  0.00  0.00    +0.000 A 
ATOM      7  C   UNL     1      19.815  -9.839  27.157  0.00  0.00    +0.000 A 
ATOM      8  C   UNL     1      18.589  -9.724  27.958  0.00  0.00    +0.000 C 
ATOM      9  C   UNL     1      18.922 -10.167  29.400  0.00  0.00    +0.000 C 
ATOM     10  C   UNL     1      17.639  -9.942  30.185  0.00  0.00    +0.000 C 
ATOM     11  C   UNL     1      16.646 -10.969  29.706  0.00  0.00    +0.000 C 
ATOM     12  C   UNL     1      16.399 -10.926  28.232  0.00  0.00    +0.000 C 
ATOM     13  C   UNL     1      17.624 -10.767  27.402  0.00  0.00    +0.000 C 
ATOM     14  C   UNL     1      17.949  -8.390  27.992  0.00  0.00    +0.000 C 
ATOM     15  C   UNL     1      18.577  -7.313  27.241  0.00  0.00    +0.000 A 
ATOM     16  C   UNL     1      18.028  -6.026  27.228  0.00  0.00    +0.000 A 
ATOM     17  C   UNL     1      18.584  -4.999  26.540  0.00  0.00    +0.000 A 
ATOM     18  C   UNL     1      19.736  -5.179  25.810  0.00  0.00    +0.000 A 
ATOM     19  C   UNL     1      20.284  -6.423  25.811  0.00  0.00    +0.000 A 
ATOM     20  C   UNL     1      19.719  -7.473  26.511  0.00  0.00    +0.000 A 
ENDROOT
TORSDOF 0
ENDMDL
MODEL 8
REMARK VINA RESULT:      -6.6     14.053     16.859
REMARK  Name = 
REMARK  0 active torsions:
REMARK  status: ('A' for Active; 'I' for Inactive)
REMARK                            x       y       z     vdW  Elec       q    Type
REMARK                         _______ _______ _______ _____ _____    ______ ____
ROOT
ATOM      1  N   UNL     1      23.783   3.005  14.230  0.00  0.00    +0.000 NA
ATOM      2  C   UNL     1      24.625   4.146  14.326  0.00  0.00    +0.000 A 
ATOM      3  N   UNL     1      24.838   4.931  13.269  0.00  0.00    +0.000 NA
ATOM      4  C   UNL     1      25.639   5.997  13.399  0.00  0.00    +0.000 A 
ATOM      5  N   UNL     1      26.225   6.276  14.586  0.00  0.00    +0.000 NA
ATOM      6  C   UNL     1      26.015   5.489  15.651  0.00  0.00    +0.000 A 
ATOM      7  C   UNL     1      25.203   4.384  15.576  0.00  0.00    +0.000 A 
ATOM      8  C   UNL     1      24.943   3.494  16.716  0.00  0.00    +0.000 C 
ATOM      9  C   UNL     1      25.356   2.062  16.303  0.00  0.00    +0.000 C 
ATOM     10  C   UNL     1      25.141   1.218  17.550  0.00  0.00    +0.000 C 
ATOM     11  C   UNL     1      23.653   1.124  17.764  0.00  0.00    +0.000 C 
ATOM     12  C   UNL     1      22.976   2.451  17.882  0.00  0.00    +0.000 C 
ATOM     13  C   UNL     1      23.428   3.468  16.892  0.00  0.00    +0.000 C 
ATOM     14  C   UNL     1      25.610   3.845  17.989  0.00  0.00    +0.000 C 
ATOM     15  C   UNL     1      26.458   5.028  18.011  0.00  0.00    +0.000 A 
ATOM     16  C   UNL     1      27.120   5.421  19.180  0.00  0.00    +0.000 A 
ATOM     17  C   UNL     1      27.917   6.515  19.239  0.00  0.00    +0.000 A 
ATOM     18  C   UNL     1      28.115   7.304  18.129  0.00  0.00    +0.000 A 
ATOM     19  C   UNL     1      27.481   6.938  16.984  0.00  0.00    +0.000 A 
ATOM     20  C   UNL     1      26.667   5.823  16.922  0.00  0.00    +0.000 A 
ENDROOT
TORSDOF 0
ENDMDL
MODEL 9
REMARK VINA RESULT:      -6.6     31.711     32.582
REMARK  Name = 
REMARK  0 active torsions:
REMARK  status: ('A' for Active; 'I' for Inactive)
REMARK                            x       y       z     vdW  Elec       q    Type
REMARK                         _______ _______ _______ _____ _____    ______ ____
ROOT
ATOM      1  N   UNL     1      29.678  22.739  31.448  0.00  0.00    +0.000 NA
ATOM      2  C   UNL     1      30.411  22.465  30.262  0.00  0.00    +0.000 A 
ATOM      3  N   UNL     1      31.653  21.982  30.320  0.00  0.00    +0.000 NA
ATOM      4  C   UNL     1      32.312  21.737  29.180  0.00  0.00    +0.000 A 
ATOM      5  N   UNL     1      31.726  21.974  27.983  0.00  0.00    +0.000 NA
ATOM      6  C   UNL     1      30.479  22.460  27.920  0.00  0.00    +0.000 A 
ATOM      7  C   UNL     1      29.756  22.730  29.056  0.00  0.00    +0.000 A 
ATOM      8  C   UNL     1      28.387  23.262  29.036  0.00  0.00    +0.000 C 
ATOM      9  C   UNL     1      28.379  24.580  29.843  0.00  0.00    +0.000 C 
ATOM     10  C   UNL     1      26.960  25.113  29.707  0.00  0.00    +0.000 C 
ATOM     11  C   UNL     1      26.069  24.193  30.498  0.00  0.00    +0.000 C 
ATOM     12  C   UNL     1      26.155  22.762  30.077  0.00  0.00    +0.000 C 
ATOM     13  C   UNL     1      27.539  22.271  29.827  0.00  0.00    +0.000 C 
ATOM     14  C   UNL     1      27.795  23.504  27.701  0.00  0.00    +0.000 C 
ATOM     15  C   UNL     1      28.607  23.199  26.531  0.00  0.00    +0.000 A 
ATOM     16  C   UNL     1      28.113  23.402  25.237  0.00  0.00    +0.000 A 
ATOM     17  C   UNL     1      28.838  23.130  24.125  0.00  0.00    +0.000 A 
ATOM     18  C   UNL     1      30.117  22.633  24.220  0.00  0.00    +0.000 A 
ATOM     19  C   UNL     1      30.614  22.430  25.469  0.00  0.00    +0.000 A 
ATOM     20  C   UNL     1      29.876  22.706  26.605  0.00  0.00    +0.000 A 
ENDROOT
TORSDOF 0
ENDMDL
MODEL 10
REMARK VINA RESULT:      -6.6     31.557     32.805
REMARK  Name = 
REMARK  0 active torsions:
REMARK  status: ('A' for Active; 'I' for Inactive)
REMARK                            x       y       z     vdW  Elec       q    Type
REMARK                         _______ _______ _______ _____ _____    ______ ____
ROOT
ATOM      1  N   UNL     1      30.205  22.595  31.589  0.00  0.00    +0.000 NA
ATOM      2  C   UNL     1      29.324  22.556  30.474  0.00  0.00    +0.000 A 
ATOM      3  N   UNL     1      28.011  22.393  30.644  0.00  0.00    +0.000 NA
ATOM      4  C   UNL     1      27.214  22.361  29.568  0.00  0.00    +0.000 A 
ATOM      5  N   UNL     1      27.731  22.492  28.325  0.00  0.00    +0.000 NA
ATOM      6  C   UNL     1      29.050  22.655  28.149  0.00  0.00    +0.000 A 
ATOM      7  C   UNL     1      29.915  22.696  29.215  0.00  0.00    +0.000 A 
ATOM      8  C   UNL     1      31.367  22.873  29.072  0.00  0.00    +0.000 C 
ATOM      9  C   UNL     1      32.060  21.672  29.755  0.00  0.00    +0.000 C 
ATOM     10  C   UNL     1      33.544  21.878  29.494  0.00  0.00    +0.000 C 
ATOM     11  C   UNL     1      33.974  23.065  30.315  0.00  0.00    +0.000 C 
ATOM     12  C   UNL     1      33.193  24.308  30.030  0.00  0.00    +0.000 C 
ATOM     13  C   UNL     1      31.724  24.102  29.901  0.00  0.00    +0.000 C 
ATOM     14  C   UNL     1      31.878  23.010  27.690  0.00  0.00    +0.000 C 
ATOM     15  C   UNL     1      30.916  22.960  26.599  0.00  0.00    +0.000 A 
ATOM     16  C   UNL     1      31.327  23.083  25.267  0.00  0.00    +0.000 A 
ATOM     17  C   UNL     1      30.462  23.041  24.225  0.00  0.00    +0.000 A 
ATOM     18  C   UNL     1      29.113  22.872  24.435  0.00  0.00    +0.000 A 
ATOM     19  C   UNL     1      28.694  22.750  25.722  0.00  0.00    +0.000 A 
ATOM     20  C   UNL     1      29.575  22.793  26.787  0.00  0.00    +0.000 A 
ENDROOT
TORSDOF 0
ENDMDL
