MODEL 1
REMARK VINA RESULT:      -7.9      0.000      0.000
REMARK  Name = 
REMARK  3 active torsions:
REMARK  status: ('A' for Active; 'I' for Inactive)
REMARK    1  A    between atoms: C_2  and  C_3
REMARK    2  A    between atoms: C_3  and  C_4
REMARK    3  A    between atoms: N_11  and  C_12
REMARK                            x       y       z     vdW  Elec       q    Type
REMARK                         _______ _______ _______ _____ _____    ______ ____
ROOT
ATOM      1  O   UNL     1      17.337  12.640  35.994  0.00  0.00    +0.000 OA
ATOM      2  C   UNL     1      17.181  11.434  36.315  0.00  0.00    +0.000 C 
ATOM      3  N   UNL     1      16.511  10.603  35.380  0.00  0.00    +0.000 NA
ENDROOT
BRANCH   3   4
ATOM      4  C   UNL     1      16.045  11.124  34.145  0.00  0.00    +0.000 A 
ATOM      5  C   UNL     1      16.521  10.587  32.973  0.00  0.00    +0.000 A 
ATOM      6  C   UNL     1      16.110  11.046  31.730  0.00  0.00    +0.000 A 
ATOM      7  C   UNL     1      15.194  12.073  31.657  0.00  0.00    +0.000 A 
ATOM      8  C   UNL     1      14.711  12.616  32.820  0.00  0.00    +0.000 A 
ATOM      9  C   UNL     1      15.135  12.143  34.052  0.00  0.00    +0.000 A 
ATOM     10  C   UNL     1      13.747  13.698  32.520  0.00  0.00    +0.000 C 
ATOM     11  C   UNL     1      13.862  13.935  31.037  0.00  0.00    +0.000 C 
ATOM     12  C   UNL     1      14.597  12.740  30.475  0.00  0.00    +0.000 C 
ENDBRANCH   3   4
BRANCH   2  13
ATOM     13  C   UNL     1      17.681  10.904  37.625  0.00  0.00    +0.000 C 
BRANCH  13  14
ATOM     14  C   UNL     1      19.168  10.902  37.654  0.00  0.00    +0.000 A 
ATOM     15  C   UNL     1      19.879  11.880  38.320  0.00  0.00    +0.000 A 
ATOM     16  C   UNL     1      21.258  11.901  38.362  0.00  0.00    +0.000 A 
ATOM     17  C   UNL     1      21.993  10.924  37.725  0.00  0.00    +0.000 A 
ATOM     18  O   UNL     1      23.387  10.938  37.763  0.00  0.00    +0.000 OA
ATOM     19  C   UNL     1      21.295   9.939  37.056  0.00  0.00    +0.000 A 
ATOM     20  C   UNL     1      19.915   9.928  37.021  0.00  0.00    +0.000 A 
ENDBRANCH  13  14
ENDBRANCH   2  13
TORSDOF 3
ENDMDL
MODEL 2
REMARK VINA RESULT:      -7.8      0.799      1.679
REMARK  Name = 
REMARK  3 active torsions:
REMARK  status: ('A' for Active; 'I' for Inactive)
REMARK    1  A    between atoms: C_2  and  C_3
REMARK    2  A    between atoms: C_3  and  C_4
REMARK    3  A    between atoms: N_11  and  C_12
REMARK                            x       y       z     vdW  Elec       q    Type
REMARK                         _______ _______ _______ _____ _____    ______ ____
ROOT
ATOM      1  O   UNL     1      17.505  12.684  36.514  0.00  0.00    +0.000 OA
ATOM      2  C   UNL     1      17.059  11.551  36.832  0.00  0.00    +0.000 C 
ATOM      3  N   UNL     1      15.924  11.086  36.120  0.00  0.00    +0.000 NA
ENDROOT
BRANCH   3   4
ATOM      4  C   UNL     1      15.330  11.874  35.100  0.00  0.00    +0.000 A 
ATOM      5  C   UNL     1      14.476  12.891  35.454  0.00  0.00    +0.000 A 
ATOM      6  C   UNL     1      13.860  13.700  34.510  0.00  0.00    +0.000 A 
ATOM      7  C   UNL     1      14.106  13.486  33.172  0.00  0.00    +0.000 A 
ATOM      8  C   UNL     1      14.956  12.475  32.806  0.00  0.00    +0.000 A 
ATOM      9  C   UNL     1      15.562  11.677  33.765  0.00  0.00    +0.000 A 
ATOM     10  C   UNL     1      15.080  12.416  31.332  0.00  0.00    +0.000 C 
ATOM     11  C   UNL     1      14.022  13.351  30.806  0.00  0.00    +0.000 C 
ATOM     12  C   UNL     1      13.586  14.196  31.979  0.00  0.00    +0.000 C 
ENDBRANCH   3   4
BRANCH   2  13
ATOM     13  C   UNL     1      17.702  10.735  37.913  0.00  0.00    +0.000 C 
BRANCH  13  14
ATOM     14  C   UNL     1      19.182  10.752  37.769  0.00  0.00    +0.000 A 
ATOM     15  C   UNL     1      19.961  11.691  38.416  0.00  0.00    +0.000 A 
ATOM     16  C   UNL     1      21.334  11.728  38.299  0.00  0.00    +0.000 A 
ATOM     17  C   UNL     1      21.996  10.807  37.515  0.00  0.00    +0.000 A 
ATOM     18  O   UNL     1      23.385  10.838  37.393  0.00  0.00    +0.000 OA
ATOM     19  C   UNL     1      21.230   9.861  36.864  0.00  0.00    +0.000 A 
ATOM     20  C   UNL     1      19.856   9.834  36.988  0.00  0.00    +0.000 A 
ENDBRANCH  13  14
ENDBRANCH   2  13
TORSDOF 3
ENDMDL
MODEL 3
REMARK VINA RESULT:      -7.3      3.083      4.215
REMARK  Name = 
REMARK  3 active torsions:
REMARK  status: ('A' for Active; 'I' for Inactive)
REMARK    1  A    between atoms: C_2  and  C_3
REMARK    2  A    between atoms: C_3  and  C_4
REMARK    3  A    between atoms: N_11  and  C_12
REMARK                            x       y       z     vdW  Elec       q    Type
REMARK                         _______ _______ _______ _____ _____    ______ ____
ROOT
ATOM      1  O   UNL     1      18.754  11.322  37.180  0.00  0.00    +0.000 OA
ATOM      2  C   UNL     1      18.502  10.109  37.402  0.00  0.00    +0.000 C 
ATOM      3  N   UNL     1      17.501   9.505  36.598  0.00  0.00    +0.000 NA
ENDROOT
BRANCH   3   4
ATOM      4  C   UNL     1      16.825  10.247  35.595  0.00  0.00    +0.000 A 
ATOM      5  C   UNL     1      15.957  11.243  35.974  0.00  0.00    +0.000 A 
ATOM      6  C   UNL     1      15.262  12.008  35.048  0.00  0.00    +0.000 A 
ATOM      7  C   UNL     1      15.441  11.770  33.703  0.00  0.00    +0.000 A 
ATOM      8  C   UNL     1      16.305  10.779  33.313  0.00  0.00    +0.000 A 
ATOM      9  C   UNL     1      16.990  10.026  34.254  0.00  0.00    +0.000 A 
ATOM     10  C   UNL     1      16.350  10.690  31.836  0.00  0.00    +0.000 C 
ATOM     11  C   UNL     1      15.232  11.574  31.349  0.00  0.00    +0.000 C 
ATOM     12  C   UNL     1      14.831  12.433  32.525  0.00  0.00    +0.000 C 
ENDBRANCH   3   4
BRANCH   2  13
ATOM     13  C   UNL     1      19.229   9.343  38.466  0.00  0.00    +0.000 C 
BRANCH  13  14
ATOM     14  C   UNL     1      18.278   8.858  39.502  0.00  0.00    +0.000 A 
ATOM     15  C   UNL     1      17.276   9.667  39.999  0.00  0.00    +0.000 A 
ATOM     16  C   UNL     1      16.382   9.241  40.959  0.00  0.00    +0.000 A 
ATOM     17  C   UNL     1      16.457   7.961  41.468  0.00  0.00    +0.000 A 
ATOM     18  O   UNL     1      15.555   7.523  42.438  0.00  0.00    +0.000 OA
ATOM     19  C   UNL     1      17.453   7.141  40.979  0.00  0.00    +0.000 A 
ATOM     20  C   UNL     1      18.342   7.578  40.018  0.00  0.00    +0.000 A 
ENDBRANCH  13  14
ENDBRANCH   2  13
TORSDOF 3
ENDMDL
MODEL 4
REMARK VINA RESULT:      -7.1     27.543     29.299
REMARK  Name = 
REMARK  3 active torsions:
REMARK  status: ('A' for Active; 'I' for Inactive)
REMARK    1  A    between atoms: C_2  and  C_3
REMARK    2  A    between atoms: C_3  and  C_4
REMARK    3  A    between atoms: N_11  and  C_12
REMARK                            x       y       z     vdW  Elec       q    Type
REMARK                         _______ _______ _______ _____ _____    ______ ____
ROOT
ATOM      1  O   UNL     1      31.543  19.780  11.665  0.00  0.00    +0.000 OA
ATOM      2  C   UNL     1      32.094  20.517  10.808  0.00  0.00    +0.000 C 
ATOM      3  N   UNL     1      31.521  21.797  10.599  0.00  0.00    +0.000 NA
ENDROOT
BRANCH   3   4
ATOM      4  C   UNL     1      30.378  22.213  11.331  0.00  0.00    +0.000 A 
ATOM      5  C   UNL     1      30.553  22.853  12.533  0.00  0.00    +0.000 A 
ATOM      6  C   UNL     1      29.482  23.287  13.302  0.00  0.00    +0.000 A 
ATOM      7  C   UNL     1      28.197  23.073  12.853  0.00  0.00    +0.000 A 
ATOM      8  C   UNL     1      28.010  22.436  11.654  0.00  0.00    +0.000 A 
ATOM      9  C   UNL     1      29.094  22.010  10.901  0.00  0.00    +0.000 A 
ATOM     10  C   UNL     1      26.565  22.308  11.361  0.00  0.00    +0.000 C 
ATOM     11  C   UNL     1      25.863  22.722  12.628  0.00  0.00    +0.000 C 
ATOM     12  C   UNL     1      26.898  23.431  13.470  0.00  0.00    +0.000 C 
ENDBRANCH   3   4
BRANCH   2  13
ATOM     13  C   UNL     1      33.301  20.058  10.045  0.00  0.00    +0.000 C 
BRANCH  13  14
ATOM     14  C   UNL     1      34.546  20.417  10.774  0.00  0.00    +0.000 A 
ATOM     15  C   UNL     1      34.937  19.743  11.914  0.00  0.00    +0.000 A 
ATOM     16  C   UNL     1      36.087  20.057  12.608  0.00  0.00    +0.000 A 
ATOM     17  C   UNL     1      36.908  21.079  12.179  0.00  0.00    +0.000 A 
ATOM     18  O   UNL     1      38.073  21.401  12.875  0.00  0.00    +0.000 OA
ATOM     19  C   UNL     1      36.530  21.760  11.040  0.00  0.00    +0.000 A 
ATOM     20  C   UNL     1      35.377  21.438  10.353  0.00  0.00    +0.000 A 
ENDBRANCH  13  14
ENDBRANCH   2  13
TORSDOF 3
ENDMDL
MODEL 5
REMARK VINA RESULT:      -7.1     28.242     30.616
REMARK  Name = 
REMARK  3 active torsions:
REMARK  status: ('A' for Active; 'I' for Inactive)
REMARK    1  A    between atoms: C_2  and  C_3
REMARK    2  A    between atoms: C_3  and  C_4
REMARK    3  A    between atoms: N_11  and  C_12
REMARK                            x       y       z     vdW  Elec       q    Type
REMARK                         _______ _______ _______ _____ _____    ______ ____
ROOT
ATOM      1  O   UNL     1      31.638  22.719   8.884  0.00  0.00    +0.000 OA
ATOM      2  C   UNL     1      31.832  21.480   8.987  0.00  0.00    +0.000 C 
ATOM      3  N   UNL     1      31.194  20.819  10.067  0.00  0.00    +0.000 NA
ENDROOT
BRANCH   3   4
ATOM      4  C   UNL     1      30.378  21.535  10.981  0.00  0.00    +0.000 A 
ATOM      5  C   UNL     1      30.949  22.056  12.117  0.00  0.00    +0.000 A 
ATOM      6  C   UNL     1      30.212  22.767  13.054  0.00  0.00    +0.000 A 
ATOM      7  C   UNL     1      28.864  22.963  12.848  0.00  0.00    +0.000 A 
ATOM      8  C   UNL     1      28.284  22.448  11.717  0.00  0.00    +0.000 A 
ATOM      9  C   UNL     1      29.038  21.741  10.793  0.00  0.00    +0.000 A 
ATOM     10  C   UNL     1      26.839  22.770  11.689  0.00  0.00    +0.000 C 
ATOM     11  C   UNL     1      26.531  23.336  13.051  0.00  0.00    +0.000 C 
ATOM     12  C   UNL     1      27.863  23.675  13.678  0.00  0.00    +0.000 C 
ENDBRANCH   3   4
BRANCH   2  13
ATOM     13  C   UNL     1      32.698  20.743   8.010  0.00  0.00    +0.000 C 
BRANCH  13  14
ATOM     14  C   UNL     1      31.877  19.831   7.169  0.00  0.00    +0.000 A 
ATOM     15  C   UNL     1      30.521  20.028   7.001  0.00  0.00    +0.000 A 
ATOM     16  C   UNL     1      29.738  19.198   6.227  0.00  0.00    +0.000 A 
ATOM     17  C   UNL     1      30.293  18.115   5.578  0.00  0.00    +0.000 A 
ATOM     18  O   UNL     1      29.507  17.272   4.792  0.00  0.00    +0.000 OA
ATOM     19  C   UNL     1      31.648  17.907   5.736  0.00  0.00    +0.000 A 
ATOM     20  C   UNL     1      32.422  18.745   6.513  0.00  0.00    +0.000 A 
ENDBRANCH  13  14
ENDBRANCH   2  13
TORSDOF 3
ENDMDL
MODEL 6
REMARK VINA RESULT:      -7.0      2.240      7.777
REMARK  Name = 
REMARK  3 active torsions:
REMARK  status: ('A' for Active; 'I' for Inactive)
REMARK    1  A    between atoms: C_2  and  C_3
REMARK    2  A    between atoms: C_3  and  C_4
REMARK    3  A    between atoms: N_11  and  C_12
REMARK                            x       y       z     vdW  Elec       q    Type
REMARK                         _______ _______ _______ _____ _____    ______ ____
ROOT
ATOM      1  O   UNL     1      18.841  11.888  37.774  0.00  0.00    +0.000 OA
ATOM      2  C   UNL     1      18.215  10.799  37.702  0.00  0.00    +0.000 C 
ATOM      3  N   UNL     1      18.992   9.613  37.690  0.00  0.00    +0.000 NA
ENDROOT
BRANCH   3   4
ATOM      4  C   UNL     1      20.409   9.668  37.756  0.00  0.00    +0.000 A 
ATOM      5  C   UNL     1      21.023   9.572  38.981  0.00  0.00    +0.000 A 
ATOM      6  C   UNL     1      22.403   9.619  39.120  0.00  0.00    +0.000 A 
ATOM      7  C   UNL     1      23.192   9.765  38.000  0.00  0.00    +0.000 A 
ATOM      8  C   UNL     1      22.589   9.861  36.772  0.00  0.00    +0.000 A 
ATOM      9  C   UNL     1      21.209   9.813  36.654  0.00  0.00    +0.000 A 
ATOM     10  C   UNL     1      23.610  10.013  35.710  0.00  0.00    +0.000 C 
ATOM     11  C   UNL     1      24.909  10.244  36.436  0.00  0.00    +0.000 C 
ATOM     12  C   UNL     1      24.667   9.842  37.872  0.00  0.00    +0.000 C 
ENDBRANCH   3   4
BRANCH   2  13
ATOM     13  C   UNL     1      16.717  10.763  37.634  0.00  0.00    +0.000 C 
BRANCH  13  14
ATOM     14  C   UNL     1      16.248  11.137  36.273  0.00  0.00    +0.000 A 
ATOM     15  C   UNL     1      15.256  12.078  36.084  0.00  0.00    +0.000 A 
ATOM     16  C   UNL     1      14.803  12.442  34.833  0.00  0.00    +0.000 A 
ATOM     17  C   UNL     1      15.337  11.866  33.699  0.00  0.00    +0.000 A 
ATOM     18  O   UNL     1      14.885  12.230  32.431  0.00  0.00    +0.000 OA
ATOM     19  C   UNL     1      16.331  10.925  33.874  0.00  0.00    +0.000 A 
ATOM     20  C   UNL     1      16.776  10.568  35.130  0.00  0.00    +0.000 A 
ENDBRANCH  13  14
ENDBRANCH   2  13
TORSDOF 3
ENDMDL
MODEL 7
REMARK VINA RESULT:      -6.8     27.828     29.335
REMARK  Name = 
REMARK  3 active torsions:
REMARK  status: ('A' for Active; 'I' for Inactive)
REMARK    1  A    between atoms: C_2  and  C_3
REMARK    2  A    between atoms: C_3  and  C_4
REMARK    3  A    between atoms: N_11  and  C_12
REMARK                            x       y       z     vdW  Elec       q    Type
REMARK                         _______ _______ _______ _____ _____    ______ ____
ROOT
ATOM      1  O   UNL     1      33.769  21.776  10.538  0.00  0.00    +0.000 OA
ATOM      2  C   UNL     1      33.821  20.569  10.888  0.00  0.00    +0.000 C 
ATOM      3  N   UNL     1      32.624  19.994  11.387  0.00  0.00    +0.000 NA
ENDROOT
BRANCH   3   4
ATOM      4  C   UNL     1      31.432  20.759  11.482  0.00  0.00    +0.000 A 
ATOM      5  C   UNL     1      30.498  20.664  10.480  0.00  0.00    +0.000 A 
ATOM      6  C   UNL     1      29.311  21.382  10.507  0.00  0.00    +0.000 A 
ATOM      7  C   UNL     1      29.051  22.220  11.569  0.00  0.00    +0.000 A 
ATOM      8  C   UNL     1      29.976  22.321  12.576  0.00  0.00    +0.000 A 
ATOM      9  C   UNL     1      31.156  21.596  12.530  0.00  0.00    +0.000 A 
ATOM     10  C   UNL     1      29.504  23.267  13.613  0.00  0.00    +0.000 C 
ATOM     11  C   UNL     1      28.287  23.931  13.022  0.00  0.00    +0.000 C 
ATOM     12  C   UNL     1      27.878  23.085  11.840  0.00  0.00    +0.000 C 
ENDBRANCH   3   4
BRANCH   2  13
ATOM     13  C   UNL     1      35.091  19.779  10.779  0.00  0.00    +0.000 C 
BRANCH  13  14
ATOM     14  C   UNL     1      35.969  20.039  11.950  0.00  0.00    +0.000 A 
ATOM     15  C   UNL     1      37.021  20.930  11.882  0.00  0.00    +0.000 A 
ATOM     16  C   UNL     1      37.850  21.188  12.954  0.00  0.00    +0.000 A 
ATOM     17  C   UNL     1      37.654  20.551  14.161  0.00  0.00    +0.000 A 
ATOM     18  O   UNL     1      38.487  20.808  15.250  0.00  0.00    +0.000 OA
ATOM     19  C   UNL     1      36.605  19.658  14.244  0.00  0.00    +0.000 A 
ATOM     20  C   UNL     1      35.782  19.407  13.165  0.00  0.00    +0.000 A 
ENDBRANCH  13  14
ENDBRANCH   2  13
TORSDOF 3
ENDMDL
MODEL 8
REMARK VINA RESULT:      -6.7     28.243     30.159
REMARK  Name = 
REMARK  3 active torsions:
REMARK  status: ('A' for Active; 'I' for Inactive)
REMARK    1  A    between atoms: C_2  and  C_3
REMARK    2  A    between atoms: C_3  and  C_4
REMARK    3  A    between atoms: N_11  and  C_12
REMARK                            x       y       z     vdW  Elec       q    Type
REMARK                         _______ _______ _______ _____ _____    ______ ____
ROOT
ATOM      1  O   UNL     1      31.825  19.971  11.895  0.00  0.00    +0.000 OA
ATOM      2  C   UNL     1      32.226  20.594  10.879  0.00  0.00    +0.000 C 
ATOM      3  N   UNL     1      31.505  21.761  10.516  0.00  0.00    +0.000 NA
ENDROOT
BRANCH   3   4
ATOM      4  C   UNL     1      30.385  22.191  11.275  0.00  0.00    +0.000 A 
ATOM      5  C   UNL     1      30.597  22.825  12.475  0.00  0.00    +0.000 A 
ATOM      6  C   UNL     1      29.550  23.272  13.268  0.00  0.00    +0.000 A 
ATOM      7  C   UNL     1      28.252  23.079  12.848  0.00  0.00    +0.000 A 
ATOM      8  C   UNL     1      28.029  22.447  11.651  0.00  0.00    +0.000 A 
ATOM      9  C   UNL     1      29.088  22.008  10.874  0.00  0.00    +0.000 A 
ATOM     10  C   UNL     1      26.575  22.342  11.390  0.00  0.00    +0.000 C 
ATOM     11  C   UNL     1      25.908  22.763  12.674  0.00  0.00    +0.000 C 
ATOM     12  C   UNL     1      26.971  23.454  13.495  0.00  0.00    +0.000 C 
ENDBRANCH   3   4
BRANCH   2  13
ATOM     13  C   UNL     1      33.412  20.123  10.092  0.00  0.00    +0.000 C 
BRANCH  13  14
ATOM     14  C   UNL     1      34.314  21.261   9.773  0.00  0.00    +0.000 A 
ATOM     15  C   UNL     1      34.988  21.949  10.762  0.00  0.00    +0.000 A 
ATOM     16  C   UNL     1      35.829  23.008  10.493  0.00  0.00    +0.000 A 
ATOM     17  C   UNL     1      36.033  23.429   9.196  0.00  0.00    +0.000 A 
ATOM     18  O   UNL     1      36.883  24.499   8.916  0.00  0.00    +0.000 OA
ATOM     19  C   UNL     1      35.366  22.750   8.196  0.00  0.00    +0.000 A 
ATOM     20  C   UNL     1      34.526  21.692   8.477  0.00  0.00    +0.000 A 
ENDBRANCH  13  14
ENDBRANCH   2  13
TORSDOF 3
ENDMDL
MODEL 9
REMARK VINA RESULT:      -6.5      2.845      8.165
REMARK  Name = 
REMARK  3 active torsions:
REMARK  status: ('A' for Active; 'I' for Inactive)
REMARK    1  A    between atoms: C_2  and  C_3
REMARK    2  A    between atoms: C_3  and  C_4
REMARK    3  A    between atoms: N_11  and  C_12
REMARK                            x       y       z     vdW  Elec       q    Type
REMARK                         _______ _______ _______ _____ _____    ______ ____
ROOT
ATOM      1  O   UNL     1      20.259   9.150  39.027  0.00  0.00    +0.000 OA
ATOM      2  C   UNL     1      19.678   9.949  38.247  0.00  0.00    +0.000 C 
ATOM      3  N   UNL     1      20.495  10.656  37.328  0.00  0.00    +0.000 NA
ENDROOT
BRANCH   3   4
ATOM      4  C   UNL     1      21.900  10.460  37.300  0.00  0.00    +0.000 A 
ATOM      5  C   UNL     1      22.423   9.496  36.473  0.00  0.00    +0.000 A 
ATOM      6  C   UNL     1      23.786   9.250  36.396  0.00  0.00    +0.000 A 
ATOM      7  C   UNL     1      24.653   9.991  37.169  0.00  0.00    +0.000 A 
ATOM      8  C   UNL     1      24.142  10.957  37.998  0.00  0.00    +0.000 A 
ATOM      9  C   UNL     1      22.777  11.187  38.061  0.00  0.00    +0.000 A 
ATOM     10  C   UNL     1      25.235  11.631  38.734  0.00  0.00    +0.000 C 
ATOM     11  C   UNL     1      26.469  10.813  38.453  0.00  0.00    +0.000 C 
ATOM     12  C   UNL     1      26.130   9.932  37.273  0.00  0.00    +0.000 C 
ENDBRANCH   3   4
BRANCH   2  13
ATOM     13  C   UNL     1      18.191  10.141  38.293  0.00  0.00    +0.000 C 
BRANCH  13  14
ATOM     14  C   UNL     1      17.653  10.369  36.926  0.00  0.00    +0.000 A 
ATOM     15  C   UNL     1      17.094  11.578  36.561  0.00  0.00    +0.000 A 
ATOM     16  C   UNL     1      16.588  11.815  35.301  0.00  0.00    +0.000 A 
ATOM     17  C   UNL     1      16.621  10.831  34.336  0.00  0.00    +0.000 A 
ATOM     18  O   UNL     1      16.112  11.063  33.058  0.00  0.00    +0.000 OA
ATOM     19  C   UNL     1      17.178   9.617  34.686  0.00  0.00    +0.000 A 
ATOM     20  C   UNL     1      17.682   9.391  35.950  0.00  0.00    +0.000 A 
ENDBRANCH  13  14
ENDBRANCH   2  13
TORSDOF 3
ENDMDL
MODEL 10
REMARK VINA RESULT:      -6.5     17.343     18.220
REMARK  Name = 
REMARK  3 active torsions:
REMARK  status: ('A' for Active; 'I' for Inactive)
REMARK    1  A    between atoms: C_2  and  C_3
REMARK    2  A    between atoms: C_3  and  C_4
REMARK    3  A    between atoms: N_11  and  C_12
REMARK                            x       y       z     vdW  Elec       q    Type
REMARK                         _______ _______ _______ _____ _____    ______ ____
ROOT
ATOM      1  O   UNL     1      31.080  24.347  27.301  0.00  0.00    +0.000 OA
ATOM      2  C   UNL     1      31.432  23.154  27.491  0.00  0.00    +0.000 C 
ATOM      3  N   UNL     1      30.754  22.158  26.742  0.00  0.00    +0.000 NA
ENDROOT
BRANCH   3   4
ATOM      4  C   UNL     1      29.728  22.507  25.825  0.00  0.00    +0.000 A 
ATOM      5  C   UNL     1      30.061  22.757  24.516  0.00  0.00    +0.000 A 
ATOM      6  C   UNL     1      29.111  23.103  23.566  0.00  0.00    +0.000 A 
ATOM      7  C   UNL     1      27.788  23.202  23.937  0.00  0.00    +0.000 A 
ATOM      8  C   UNL     1      27.444  22.954  25.241  0.00  0.00    +0.000 A 
ATOM      9  C   UNL     1      28.408  22.609  26.175  0.00  0.00    +0.000 A 
ATOM     10  C   UNL     1      25.984  23.114  25.426  0.00  0.00    +0.000 C 
ATOM     11  C   UNL     1      25.485  23.727  24.143  0.00  0.00    +0.000 C 
ATOM     12  C   UNL     1      26.592  23.548  23.132  0.00  0.00    +0.000 C 
ENDBRANCH   3   4
BRANCH   2  13
ATOM     13  C   UNL     1      32.519  22.807  28.464  0.00  0.00    +0.000 C 
BRANCH  13  14
ATOM     14  C   UNL     1      31.937  22.377  29.764  0.00  0.00    +0.000 A 
ATOM     15  C   UNL     1      30.724  22.862  30.209  0.00  0.00    +0.000 A 
ATOM     16  C   UNL     1      30.164  22.479  31.409  0.00  0.00    +0.000 A 
ATOM     17  C   UNL     1      30.809  21.576  32.228  0.00  0.00    +0.000 A 
ATOM     18  O   UNL     1      30.248  21.183  33.443  0.00  0.00    +0.000 OA
ATOM     19  C   UNL     1      32.023  21.082  31.795  0.00  0.00    +0.000 A 
ATOM     20  C   UNL     1      32.574  21.472  30.591  0.00  0.00    +0.000 A 
ENDBRANCH  13  14
ENDBRANCH   2  13
TORSDOF 3
ENDMDL
