MODEL 1
REMARK VINA RESULT:      -7.0      0.000      0.000
REMARK  Name = 
REMARK  3 active torsions:
REMARK  status: ('A' for Active; 'I' for Inactive)
REMARK    1  A    between atoms: C_6  and  N_7
REMARK    2  A    between atoms: C_8  and  C_10
REMARK    3  A    between atoms: C_16  and  N_17
REMARK                            x       y       z     vdW  Elec       q    Type
REMARK                         _______ _______ _______ _____ _____    ______ ____
ROOT
ATOM      1  N   UNL     1      29.598  21.323  10.745  0.00  0.00    +0.000 NA
ATOM      2  C   UNL     1      30.488  21.832   9.748  0.00  0.00    +0.000 C 
ATOM      3  O   UNL     1      30.414  23.069   9.483  0.00  0.00    +0.000 OA
ENDROOT
BRANCH   1   9
ATOM      4  C   UNL     1      28.584  24.437  14.432  0.00  0.00    +0.000 C 
ATOM      5  C   UNL     1      28.146  23.627  13.226  0.00  0.00    +0.000 A 
ATOM      6  C   UNL     1      26.825  23.662  12.794  0.00  0.00    +0.000 A 
ATOM      7  C   UNL     1      26.406  22.927  11.697  0.00  0.00    +0.000 A 
ATOM      8  C   UNL     1      27.313  22.153  11.024  0.00  0.00    +0.000 A 
ATOM      9  C   UNL     1      28.644  22.112  11.453  0.00  0.00    +0.000 A 
ATOM     10  C   UNL     1      29.024  22.840  12.528  0.00  0.00    +0.000 A 
ATOM     11  C   UNL     1      30.460  22.774  12.998  0.00  0.00    +0.000 C 
ENDBRANCH   1   9
BRANCH   2  12
ATOM     12  C   UNL     1      31.443  20.983   9.054  0.00  0.00    +0.000 A 
ATOM     13  C   UNL     1      31.144  20.408   7.800  0.00  0.00    +0.000 A 
ATOM     14  C   UNL     1      31.998  19.573   7.137  0.00  0.00    +0.000 A 
ATOM     15  C   UNL     1      33.225  19.272   7.722  0.00  0.00    +0.000 A 
ATOM     16  F   UNL     1      34.049  18.454   7.047  0.00  0.00    +0.000 F 
ATOM     17  C   UNL     1      33.531  19.835   8.959  0.00  0.00    +0.000 A 
ATOM     18  C   UNL     1      32.680  20.673   9.628  0.00  0.00    +0.000 A 
BRANCH  18  19
ATOM     19  N   UNL     1      33.006  21.299  10.890  0.00  0.00    +0.000 N 
ATOM     20  O   UNL     1      32.903  20.643  11.941  0.00  0.00    +0.000 OA
ATOM     21  O   UNL     1      33.420  22.597  10.924  0.00  0.00    +0.000 OA
ENDBRANCH  18  19
ENDBRANCH   2  12
TORSDOF 3
ENDMDL
MODEL 2
REMARK VINA RESULT:      -6.9     28.971     31.043
REMARK  Name = 
REMARK  3 active torsions:
REMARK  status: ('A' for Active; 'I' for Inactive)
REMARK    1  A    between atoms: C_6  and  N_7
REMARK    2  A    between atoms: C_8  and  C_10
REMARK    3  A    between atoms: C_16  and  N_17
REMARK                            x       y       z     vdW  Elec       q    Type
REMARK                         _______ _______ _______ _____ _____    ______ ____
ROOT
ATOM      1  N   UNL     1      17.524  11.015  36.014  0.00  0.00    +0.000 NA
ATOM      2  C   UNL     1      16.897  10.241  34.988  0.00  0.00    +0.000 C 
ATOM      3  O   UNL     1      16.901   8.981  35.129  0.00  0.00    +0.000 OA
ENDROOT
BRANCH   1   9
ATOM      4  C   UNL     1      17.159   9.513  40.697  0.00  0.00    +0.000 C 
ATOM      5  C   UNL     1      17.975   9.726  39.435  0.00  0.00    +0.000 A 
ATOM      6  C   UNL     1      19.319   9.371  39.396  0.00  0.00    +0.000 A 
ATOM      7  C   UNL     1      20.080   9.560  38.253  0.00  0.00    +0.000 A 
ATOM      8  C   UNL     1      19.495  10.105  37.142  0.00  0.00    +0.000 A 
ATOM      9  C   UNL     1      18.144  10.465  37.175  0.00  0.00    +0.000 A 
ATOM     10  C   UNL     1      17.425  10.269  38.304  0.00  0.00    +0.000 A 
ATOM     11  C   UNL     1      15.970  10.679  38.338  0.00  0.00    +0.000 C 
ENDBRANCH   1   9
BRANCH   2  12
ATOM     12  C   UNL     1      16.278  10.851  33.822  0.00  0.00    +0.000 A 
ATOM     13  C   UNL     1      16.652  10.483  32.511  0.00  0.00    +0.000 A 
ATOM     14  C   UNL     1      16.124  11.064  31.393  0.00  0.00    +0.000 A 
ATOM     15  C   UNL     1      15.170  12.067  31.548  0.00  0.00    +0.000 A 
ATOM     16  F   UNL     1      14.663  12.616  30.433  0.00  0.00    +0.000 F 
ATOM     17  C   UNL     1      14.795  12.437  32.837  0.00  0.00    +0.000 A 
ATOM     18  C   UNL     1      15.319  11.859  33.962  0.00  0.00    +0.000 A 
BRANCH  18  19
ATOM     19  N   UNL     1      14.902  12.203  35.303  0.00  0.00    +0.000 N 
ATOM     20  O   UNL     1      13.981  11.562  35.838  0.00  0.00    +0.000 OA
ATOM     21  O   UNL     1      15.513  13.223  35.970  0.00  0.00    +0.000 OA
ENDBRANCH  18  19
ENDBRANCH   2  12
TORSDOF 3
ENDMDL
MODEL 3
REMARK VINA RESULT:      -6.4     15.171     17.881
REMARK  Name = 
REMARK  3 active torsions:
REMARK  status: ('A' for Active; 'I' for Inactive)
REMARK    1  A    between atoms: C_6  and  N_7
REMARK    2  A    between atoms: C_8  and  C_10
REMARK    3  A    between atoms: C_16  and  N_17
REMARK                            x       y       z     vdW  Elec       q    Type
REMARK                         _______ _______ _______ _____ _____    ______ ____
ROOT
ATOM      1  N   UNL     1      29.105  22.219  26.850  0.00  0.00    +0.000 NA
ATOM      2  C   UNL     1      29.747  23.088  27.788  0.00  0.00    +0.000 C 
ATOM      3  O   UNL     1      29.530  24.331  27.667  0.00  0.00    +0.000 OA
ENDROOT
BRANCH   1   9
ATOM      4  C   UNL     1      28.534  23.697  22.180  0.00  0.00    +0.000 C 
ATOM      5  C   UNL     1      27.954  23.362  23.543  0.00  0.00    +0.000 A 
ATOM      6  C   UNL     1      26.587  23.462  23.773  0.00  0.00    +0.000 A 
ATOM      7  C   UNL     1      26.041  23.163  25.010  0.00  0.00    +0.000 A 
ATOM      8  C   UNL     1      26.866  22.759  26.026  0.00  0.00    +0.000 A 
ATOM      9  C   UNL     1      28.243  22.658  25.802  0.00  0.00    +0.000 A 
ATOM     10  C   UNL     1      28.748  22.957  24.583  0.00  0.00    +0.000 A 
ATOM     11  C   UNL     1      30.240  22.863  24.356  0.00  0.00    +0.000 C 
ENDBRANCH   1   9
BRANCH   2  12
ATOM     12  C   UNL     1      30.618  22.589  28.839  0.00  0.00    +0.000 A 
ATOM     13  C   UNL     1      31.937  22.166  28.565  0.00  0.00    +0.000 A 
ATOM     14  C   UNL     1      32.770  21.653  29.518  0.00  0.00    +0.000 A 
ATOM     15  C   UNL     1      32.303  21.541  30.825  0.00  0.00    +0.000 A 
ATOM     16  F   UNL     1      33.144  21.039  31.743  0.00  0.00    +0.000 F 
ATOM     17  C   UNL     1      31.003  21.955  31.105  0.00  0.00    +0.000 A 
ATOM     18  C   UNL     1      30.163  22.471  30.155  0.00  0.00    +0.000 A 
BRANCH  18  19
ATOM     19  N   UNL     1      28.829  22.947  30.446  0.00  0.00    +0.000 N 
ATOM     20  O   UNL     1      28.673  24.106  30.867  0.00  0.00    +0.000 OA
ATOM     21  O   UNL     1      27.754  22.130  30.261  0.00  0.00    +0.000 OA
ENDBRANCH  18  19
ENDBRANCH   2  12
TORSDOF 3
ENDMDL
MODEL 4
REMARK VINA RESULT:      -6.3     13.581     15.939
REMARK  Name = 
REMARK  3 active torsions:
REMARK  status: ('A' for Active; 'I' for Inactive)
REMARK    1  A    between atoms: C_6  and  N_7
REMARK    2  A    between atoms: C_8  and  C_10
REMARK    3  A    between atoms: C_16  and  N_17
REMARK                            x       y       z     vdW  Elec       q    Type
REMARK                         _______ _______ _______ _____ _____    ______ ____
ROOT
ATOM      1  N   UNL     1      26.022  25.290  25.801  0.00  0.00    +0.000 NA
ATOM      2  C   UNL     1      26.294  23.953  25.370  0.00  0.00    +0.000 C 
ATOM      3  O   UNL     1      25.303  23.173  25.247  0.00  0.00    +0.000 OA
ENDROOT
BRANCH   1   9
ATOM      4  C   UNL     1      22.626  26.548  29.148  0.00  0.00    +0.000 C 
ATOM      5  C   UNL     1      23.077  26.416  27.704  0.00  0.00    +0.000 A 
ATOM      6  C   UNL     1      22.237  26.801  26.665  0.00  0.00    +0.000 A 
ATOM      7  C   UNL     1      22.630  26.686  25.342  0.00  0.00    +0.000 A 
ATOM      8  C   UNL     1      23.871  26.184  25.053  0.00  0.00    +0.000 A 
ATOM      9  C   UNL     1      24.721  25.794  26.094  0.00  0.00    +0.000 A 
ATOM     10  C   UNL     1      24.310  25.918  27.377  0.00  0.00    +0.000 A 
ATOM     11  C   UNL     1      25.227  25.475  28.495  0.00  0.00    +0.000 C 
ENDBRANCH   1   9
BRANCH   2  12
ATOM     12  C   UNL     1      27.641  23.488  25.084  0.00  0.00    +0.000 A 
ATOM     13  C   UNL     1      28.460  22.933  26.092  0.00  0.00    +0.000 A 
ATOM     14  C   UNL     1      29.744  22.524  25.871  0.00  0.00    +0.000 A 
ATOM     15  C   UNL     1      30.277  22.657  24.591  0.00  0.00    +0.000 A 
ATOM     16  F   UNL     1      31.539  22.242  24.399  0.00  0.00    +0.000 F 
ATOM     17  C   UNL     1      29.478  23.203  23.589  0.00  0.00    +0.000 A 
ATOM     18  C   UNL     1      28.190  23.615  23.804  0.00  0.00    +0.000 A 
BRANCH  18  19
ATOM     19  N   UNL     1      27.337  24.139  22.761  0.00  0.00    +0.000 N 
ATOM     20  O   UNL     1      27.356  25.357  22.511  0.00  0.00    +0.000 OA
ATOM     21  O   UNL     1      26.517  23.305  22.061  0.00  0.00    +0.000 OA
ENDBRANCH  18  19
ENDBRANCH   2  12
TORSDOF 3
ENDMDL
MODEL 5
REMARK VINA RESULT:      -6.2     11.629     13.645
REMARK  Name = 
REMARK  3 active torsions:
REMARK  status: ('A' for Active; 'I' for Inactive)
REMARK    1  A    between atoms: C_6  and  N_7
REMARK    2  A    between atoms: C_8  and  C_10
REMARK    3  A    between atoms: C_16  and  N_17
REMARK                            x       y       z     vdW  Elec       q    Type
REMARK                         _______ _______ _______ _____ _____    ______ ____
ROOT
ATOM      1  N   UNL     1      29.182  26.143  22.263  0.00  0.00    +0.000 NA
ATOM      2  C   UNL     1      29.380  24.727  22.258  0.00  0.00    +0.000 C 
ATOM      3  O   UNL     1      29.368  24.146  21.132  0.00  0.00    +0.000 OA
ENDROOT
BRANCH   1   9
ATOM      4  C   UNL     1      26.446  29.420  19.793  0.00  0.00    +0.000 C 
ATOM      5  C   UNL     1      27.670  28.526  19.896  0.00  0.00    +0.000 A 
ATOM      6  C   UNL     1      28.604  28.487  18.867  0.00  0.00    +0.000 A 
ATOM      7  C   UNL     1      29.725  27.676  18.944  0.00  0.00    +0.000 A 
ATOM      8  C   UNL     1      29.915  26.900  20.056  0.00  0.00    +0.000 A 
ATOM      9  C   UNL     1      28.979  26.935  21.094  0.00  0.00    +0.000 A 
ATOM     10  C   UNL     1      27.893  27.735  20.992  0.00  0.00    +0.000 A 
ATOM     11  C   UNL     1      26.876  27.751  22.110  0.00  0.00    +0.000 C 
ENDBRANCH   1   9
BRANCH   2  12
ATOM     12  C   UNL     1      29.582  23.966  23.480  0.00  0.00    +0.000 A 
ATOM     13  C   UNL     1      30.877  23.679  23.964  0.00  0.00    +0.000 A 
ATOM     14  C   UNL     1      31.107  22.933  25.084  0.00  0.00    +0.000 A 
ATOM     15  C   UNL     1      30.016  22.429  25.788  0.00  0.00    +0.000 A 
ATOM     16  F   UNL     1      30.270  21.703  26.889  0.00  0.00    +0.000 F 
ATOM     17  C   UNL     1      28.735  22.707  25.319  0.00  0.00    +0.000 A 
ATOM     18  C   UNL     1      28.496  23.454  24.197  0.00  0.00    +0.000 A 
BRANCH  18  19
ATOM     19  N   UNL     1      27.170  23.787  23.728  0.00  0.00    +0.000 N 
ATOM     20  O   UNL     1      26.594  24.788  24.188  0.00  0.00    +0.000 OA
ATOM     21  O   UNL     1      26.558  23.008  22.793  0.00  0.00    +0.000 OA
ENDBRANCH  18  19
ENDBRANCH   2  12
TORSDOF 3
ENDMDL
MODEL 6
REMARK VINA RESULT:      -6.1     13.004     15.423
REMARK  Name = 
REMARK  3 active torsions:
REMARK  status: ('A' for Active; 'I' for Inactive)
REMARK    1  A    between atoms: C_6  and  N_7
REMARK    2  A    between atoms: C_8  and  C_10
REMARK    3  A    between atoms: C_16  and  N_17
REMARK                            x       y       z     vdW  Elec       q    Type
REMARK                         _______ _______ _______ _____ _____    ______ ____
ROOT
ATOM      1  N   UNL     1      30.741  24.753  25.395  0.00  0.00    +0.000 NA
ATOM      2  C   UNL     1      30.246  23.752  24.502  0.00  0.00    +0.000 C 
ATOM      3  O   UNL     1      31.095  22.961  23.992  0.00  0.00    +0.000 OA
ENDROOT
BRANCH   1   9
ATOM      4  C   UNL     1      34.464  23.768  28.476  0.00  0.00    +0.000 C 
ATOM      5  C   UNL     1      33.923  24.435  27.223  0.00  0.00    +0.000 A 
ATOM      6  C   UNL     1      34.760  25.186  26.406  0.00  0.00    +0.000 A 
ATOM      7  C   UNL     1      34.283  25.802  25.260  0.00  0.00    +0.000 A 
ATOM      8  C   UNL     1      32.961  25.667  24.928  0.00  0.00    +0.000 A 
ATOM      9  C   UNL     1      32.114  24.914  25.747  0.00  0.00    +0.000 A 
ATOM     10  C   UNL     1      32.607  24.323  26.859  0.00  0.00    +0.000 A 
ATOM     11  C   UNL     1      31.680  23.527  27.749  0.00  0.00    +0.000 C 
ENDBRANCH   1   9
BRANCH   2  12
ATOM     12  C   UNL     1      28.834  23.631  24.176  0.00  0.00    +0.000 A 
ATOM     13  C   UNL     1      27.926  22.998  25.053  0.00  0.00    +0.000 A 
ATOM     14  C   UNL     1      26.603  22.828  24.763  0.00  0.00    +0.000 A 
ATOM     15  C   UNL     1      26.119  23.301  23.546  0.00  0.00    +0.000 A 
ATOM     16  F   UNL     1      24.813  23.127  23.288  0.00  0.00    +0.000 F 
ATOM     17  C   UNL     1      27.006  23.927  22.674  0.00  0.00    +0.000 A 
ATOM     18  C   UNL     1      28.334  24.100  22.958  0.00  0.00    +0.000 A 
BRANCH  18  19
ATOM     19  N   UNL     1      29.254  24.790  22.080  0.00  0.00    +0.000 N 
ATOM     20  O   UNL     1      29.699  24.201  21.080  0.00  0.00    +0.000 OA
ATOM     21  O   UNL     1      29.629  26.072  22.351  0.00  0.00    +0.000 OA
ENDBRANCH  18  19
ENDBRANCH   2  12
TORSDOF 3
ENDMDL
MODEL 7
REMARK VINA RESULT:      -6.1     29.963     31.498
REMARK  Name = 
REMARK  3 active torsions:
REMARK  status: ('A' for Active; 'I' for Inactive)
REMARK    1  A    between atoms: C_6  and  N_7
REMARK    2  A    between atoms: C_8  and  C_10
REMARK    3  A    between atoms: C_16  and  N_17
REMARK                            x       y       z     vdW  Elec       q    Type
REMARK                         _______ _______ _______ _____ _____    ______ ____
ROOT
ATOM      1  N   UNL     1      18.730   9.949  37.016  0.00  0.00    +0.000 NA
ATOM      2  C   UNL     1      19.849  10.678  37.527  0.00  0.00    +0.000 C 
ATOM      3  O   UNL     1      19.653  11.889  37.845  0.00  0.00    +0.000 OA
ENDROOT
BRANCH   1   9
ATOM      4  C   UNL     1      15.172  11.565  34.007  0.00  0.00    +0.000 C 
ATOM      5  C   UNL     1      15.691  11.264  35.402  0.00  0.00    +0.000 A 
ATOM      6  C   UNL     1      14.893  11.495  36.517  0.00  0.00    +0.000 A 
ATOM      7  C   UNL     1      15.351  11.228  37.797  0.00  0.00    +0.000 A 
ATOM      8  C   UNL     1      16.613  10.725  37.966  0.00  0.00    +0.000 A 
ATOM      9  C   UNL     1      17.421  10.491  36.848  0.00  0.00    +0.000 A 
ATOM     10  C   UNL     1      16.948  10.761  35.610  0.00  0.00    +0.000 A 
ATOM     11  C   UNL     1      17.836  10.524  34.409  0.00  0.00    +0.000 C 
ENDBRANCH   1   9
BRANCH   2  12
ATOM     12  C   UNL     1      21.164  10.078  37.678  0.00  0.00    +0.000 A 
ATOM     13  C   UNL     1      22.049   9.955  36.584  0.00  0.00    +0.000 A 
ATOM     14  C   UNL     1      23.274   9.359  36.678  0.00  0.00    +0.000 A 
ATOM     15  C   UNL     1      23.677   8.848  37.910  0.00  0.00    +0.000 A 
ATOM     16  F   UNL     1      24.888   8.273  37.976  0.00  0.00    +0.000 F 
ATOM     17  C   UNL     1      22.811   8.965  38.995  0.00  0.00    +0.000 A 
ATOM     18  C   UNL     1      21.582   9.560  38.908  0.00  0.00    +0.000 A 
BRANCH  18  19
ATOM     19  N   UNL     1      20.696   9.728  40.038  0.00  0.00    +0.000 N 
ATOM     20  O   UNL     1      19.871   8.837  40.304  0.00  0.00    +0.000 OA
ATOM     21  O   UNL     1      20.764  10.855  40.801  0.00  0.00    +0.000 OA
ENDBRANCH  18  19
ENDBRANCH   2  12
TORSDOF 3
ENDMDL
MODEL 8
REMARK VINA RESULT:      -6.0     15.969     18.628
REMARK  Name = 
REMARK  3 active torsions:
REMARK  status: ('A' for Active; 'I' for Inactive)
REMARK    1  A    between atoms: C_6  and  N_7
REMARK    2  A    between atoms: C_8  and  C_10
REMARK    3  A    between atoms: C_16  and  N_17
REMARK                            x       y       z     vdW  Elec       q    Type
REMARK                         _______ _______ _______ _____ _____    ______ ____
ROOT
ATOM      1  N   UNL     1      30.533  21.950  27.472  0.00  0.00    +0.000 NA
ATOM      2  C   UNL     1      31.202  22.842  28.368  0.00  0.00    +0.000 C 
ATOM      3  O   UNL     1      31.193  24.074  28.071  0.00  0.00    +0.000 OA
ENDROOT
BRANCH   1   9
ATOM      4  C   UNL     1      26.324  23.096  25.171  0.00  0.00    +0.000 C 
ATOM      5  C   UNL     1      27.833  22.922  25.163  0.00  0.00    +0.000 A 
ATOM      6  C   UNL     1      28.566  23.173  24.009  0.00  0.00    +0.000 A 
ATOM      7  C   UNL     1      29.943  23.017  23.983  0.00  0.00    +0.000 A 
ATOM      8  C   UNL     1      30.592  22.610  25.117  0.00  0.00    +0.000 A 
ATOM      9  C   UNL     1      29.860  22.355  26.281  0.00  0.00    +0.000 A 
ATOM     10  C   UNL     1      28.517  22.515  26.278  0.00  0.00    +0.000 A 
ATOM     11  C   UNL     1      27.731  22.218  27.535  0.00  0.00    +0.000 C 
ENDBRANCH   1   9
BRANCH   2  12
ATOM     12  C   UNL     1      31.874  22.376  29.570  0.00  0.00    +0.000 A 
ATOM     13  C   UNL     1      33.186  21.856  29.527  0.00  0.00    +0.000 A 
ATOM     14  C   UNL     1      33.834  21.371  30.627  0.00  0.00    +0.000 A 
ATOM     15  C   UNL     1      33.174  21.389  31.853  0.00  0.00    +0.000 A 
ATOM     16  F   UNL     1      33.836  20.912  32.920  0.00  0.00    +0.000 F 
ATOM     17  C   UNL     1      31.880  21.901  31.906  0.00  0.00    +0.000 A 
ATOM     18  C   UNL     1      31.225  22.389  30.808  0.00  0.00    +0.000 A 
BRANCH  18  19
ATOM     19  N   UNL     1      29.899  22.965  30.861  0.00  0.00    +0.000 N 
ATOM     20  O   UNL     1      28.907  22.222  30.768  0.00  0.00    +0.000 OA
ATOM     21  O   UNL     1      29.743  24.311  31.007  0.00  0.00    +0.000 OA
ENDBRANCH  18  19
ENDBRANCH   2  12
TORSDOF 3
ENDMDL
MODEL 9
REMARK VINA RESULT:      -6.0     13.432     16.301
REMARK  Name = 
REMARK  3 active torsions:
REMARK  status: ('A' for Active; 'I' for Inactive)
REMARK    1  A    between atoms: C_6  and  N_7
REMARK    2  A    between atoms: C_8  and  C_10
REMARK    3  A    between atoms: C_16  and  N_17
REMARK                            x       y       z     vdW  Elec       q    Type
REMARK                         _______ _______ _______ _____ _____    ______ ____
ROOT
ATOM      1  N   UNL     1      28.473  22.591  26.815  0.00  0.00    +0.000 NA
ATOM      2  C   UNL     1      28.051  23.766  26.116  0.00  0.00    +0.000 C 
ATOM      3  O   UNL     1      28.172  24.873  26.721  0.00  0.00    +0.000 OA
ENDROOT
BRANCH   1   9
ATOM      4  C   UNL     1      32.429  22.637  29.760  0.00  0.00    +0.000 C 
ATOM      5  C   UNL     1      30.923  22.622  29.566  0.00  0.00    +0.000 A 
ATOM      6  C   UNL     1      30.070  22.623  30.663  0.00  0.00    +0.000 A 
ATOM      7  C   UNL     1      28.693  22.606  30.505  0.00  0.00    +0.000 A 
ATOM      8  C   UNL     1      28.165  22.590  29.242  0.00  0.00    +0.000 A 
ATOM      9  C   UNL     1      29.018  22.588  28.133  0.00  0.00    +0.000 A 
ATOM     10  C   UNL     1      30.358  22.604  28.318  0.00  0.00    +0.000 A 
ATOM     11  C   UNL     1      31.272  22.581  27.114  0.00  0.00    +0.000 C 
ENDBRANCH   1   9
BRANCH   2  12
ATOM     12  C   UNL     1      27.502  23.714  24.771  0.00  0.00    +0.000 A 
ATOM     13  C   UNL     1      26.140  23.419  24.542  0.00  0.00    +0.000 A 
ATOM     14  C   UNL     1      25.598  23.320  23.292  0.00  0.00    +0.000 A 
ATOM     15  C   UNL     1      26.422  23.522  22.188  0.00  0.00    +0.000 A 
ATOM     16  F   UNL     1      25.862  23.425  20.971  0.00  0.00    +0.000 F 
ATOM     17  C   UNL     1      27.766  23.814  22.404  0.00  0.00    +0.000 A 
ATOM     18  C   UNL     1      28.317  23.915  23.653  0.00  0.00    +0.000 A 
BRANCH  18  19
ATOM     19  N   UNL     1      29.700  24.264  23.889  0.00  0.00    +0.000 N 
ATOM     20  O   UNL     1      30.572  23.381  23.818  0.00  0.00    +0.000 OA
ATOM     21  O   UNL     1      30.041  25.549  24.188  0.00  0.00    +0.000 OA
ENDBRANCH  18  19
ENDBRANCH   2  12
TORSDOF 3
ENDMDL
MODEL 10
REMARK VINA RESULT:      -5.9     34.166     34.689
REMARK  Name = 
REMARK  3 active torsions:
REMARK  status: ('A' for Active; 'I' for Inactive)
REMARK    1  A    between atoms: C_6  and  N_7
REMARK    2  A    between atoms: C_8  and  C_10
REMARK    3  A    between atoms: C_16  and  N_17
REMARK                            x       y       z     vdW  Elec       q    Type
REMARK                         _______ _______ _______ _____ _____    ______ ____
ROOT
ATOM      1  N   UNL     1      21.455  -7.465  25.909  0.00  0.00    +0.000 NA
ATOM      2  C   UNL     1      21.889  -8.009  24.659  0.00  0.00    +0.000 C 
ATOM      3  O   UNL     1      20.992  -8.445  23.877  0.00  0.00    +0.000 OA
ENDROOT
BRANCH   1   9
ATOM      4  C   UNL     1      17.634  -9.445  28.318  0.00  0.00    +0.000 C 
ATOM      5  C   UNL     1      18.243  -8.324  27.495  0.00  0.00    +0.000 A 
ATOM      6  C   UNL     1      17.489  -7.206  27.158  0.00  0.00    +0.000 A 
ATOM      7  C   UNL     1      18.027  -6.174  26.406  0.00  0.00    +0.000 A 
ATOM      8  C   UNL     1      19.329  -6.259  25.989  0.00  0.00    +0.000 A 
ATOM      9  C   UNL     1      20.093  -7.381  26.324  0.00  0.00    +0.000 A 
ATOM     10  C   UNL     1      19.541  -8.373  27.059  0.00  0.00    +0.000 A 
ATOM     11  C   UNL     1      20.368  -9.592  27.399  0.00  0.00    +0.000 C 
ENDBRANCH   1   9
BRANCH   2  12
ATOM     12  C   UNL     1      23.292  -8.072  24.285  0.00  0.00    +0.000 A 
ATOM     13  C   UNL     1      23.952  -6.966  23.706  0.00  0.00    +0.000 A 
ATOM     14  C   UNL     1      25.256  -7.001  23.303  0.00  0.00    +0.000 A 
ATOM     15  C   UNL     1      25.975  -8.182  23.469  0.00  0.00    +0.000 A 
ATOM     16  F   UNL     1      27.257  -8.188  23.070  0.00  0.00    +0.000 F 
ATOM     17  C   UNL     1      25.334  -9.279  24.039  0.00  0.00    +0.000 A 
ATOM     18  C   UNL     1      24.027  -9.251  24.445  0.00  0.00    +0.000 A 
BRANCH  18  19
ATOM     19  N   UNL     1      23.366 -10.369  25.080  0.00  0.00    +0.000 N 
ATOM     20  O   UNL     1      23.446 -10.505  26.313  0.00  0.00    +0.000 OA
ATOM     21  O   UNL     1      22.665 -11.266  24.331  0.00  0.00    +0.000 OA
ENDBRANCH  18  19
ENDBRANCH   2  12
TORSDOF 3
ENDMDL
