MODEL 1
REMARK VINA RESULT:      -7.0      0.000      0.000
REMARK  Name = 
REMARK  2 active torsions:
REMARK  status: ('A' for Active; 'I' for Inactive)
REMARK    1  A    between atoms: C_5  and  N_6
REMARK    2  A    between atoms: C_7  and  C_9
REMARK                            x       y       z     vdW  Elec       q    Type
REMARK                         _______ _______ _______ _____ _____    ______ ____
ROOT
ATOM      1  N   UNL     1      16.259  10.351  35.099  0.00  0.00    +0.000 NA
ATOM      2  C   UNL     1      17.020  10.993  36.113  0.00  0.00    +0.000 C 
ATOM      3  O   UNL     1      17.323  12.220  35.941  0.00  0.00    +0.000 OA
ENDROOT
BRANCH   2   4
ATOM      4  C   UNL     1      17.458  10.316  37.315  0.00  0.00    +0.000 A 
ATOM      5  C   UNL     1      16.655  10.285  38.424  0.00  0.00    +0.000 A 
ATOM      6  C   UNL     1      17.013   9.656  39.601  0.00  0.00    +0.000 A 
ATOM      7  C   UNL     1      16.152   9.613  40.808  0.00  0.00    +0.000 C 
ATOM      8  C   UNL     1      18.238   9.041  39.639  0.00  0.00    +0.000 A 
ATOM      9  C   UNL     1      19.065   9.057  38.542  0.00  0.00    +0.000 A 
ATOM     10  C   UNL     1      18.682   9.695  37.371  0.00  0.00    +0.000 A 
ATOM     11  N   UNL     1      19.584   9.680  36.262  0.00  0.00    +0.000 NA
ENDBRANCH   2   4
BRANCH   1  16
ATOM     12  C   UNL     1      14.712  13.379  30.474  0.00  0.00    +0.000 C 
ATOM     13  C   UNL     1      15.127  12.584  31.665  0.00  0.00    +0.000 A 
ATOM     14  C   UNL     1      14.533  12.791  32.902  0.00  0.00    +0.000 A 
ATOM     15  C   UNL     1      14.891  12.073  34.024  0.00  0.00    +0.000 A 
ATOM     16  C   UNL     1      15.873  11.107  33.944  0.00  0.00    +0.000 A 
ATOM     17  C   UNL     1      16.466  10.894  32.726  0.00  0.00    +0.000 A 
ATOM     18  C   UNL     1      16.106  11.613  31.605  0.00  0.00    +0.000 A 
ENDBRANCH   1  16
TORSDOF 2
ENDMDL
MODEL 2
REMARK VINA RESULT:      -6.9      1.696      7.087
REMARK  Name = 
REMARK  2 active torsions:
REMARK  status: ('A' for Active; 'I' for Inactive)
REMARK    1  A    between atoms: C_5  and  N_6
REMARK    2  A    between atoms: C_7  and  C_9
REMARK                            x       y       z     vdW  Elec       q    Type
REMARK                         _______ _______ _______ _____ _____    ______ ____
ROOT
ATOM      1  N   UNL     1      16.016  11.757  35.102  0.00  0.00    +0.000 NA
ATOM      2  C   UNL     1      16.147  10.981  33.918  0.00  0.00    +0.000 C 
ATOM      3  O   UNL     1      16.692   9.833  34.019  0.00  0.00    +0.000 OA
ENDROOT
BRANCH   2   4
ATOM      4  C   UNL     1      15.691  11.440  32.623  0.00  0.00    +0.000 A 
ATOM      5  C   UNL     1      16.240  12.558  32.051  0.00  0.00    +0.000 A 
ATOM      6  C   UNL     1      15.850  13.047  30.820  0.00  0.00    +0.000 A 
ATOM      7  C   UNL     1      16.437  14.254  30.189  0.00  0.00    +0.000 C 
ATOM      8  C   UNL     1      14.861  12.366  30.156  0.00  0.00    +0.000 A 
ATOM      9  C   UNL     1      14.292  11.243  30.705  0.00  0.00    +0.000 A 
ATOM     10  C   UNL     1      14.702  10.771  31.944  0.00  0.00    +0.000 A 
ATOM     11  N   UNL     1      14.074   9.598  32.467  0.00  0.00    +0.000 NA
ENDBRANCH   2   4
BRANCH   1  16
ATOM     12  C   UNL     1      17.952   9.588  40.052  0.00  0.00    +0.000 C 
ATOM     13  C   UNL     1      17.466  10.151  38.759  0.00  0.00    +0.000 A 
ATOM     14  C   UNL     1      16.124  10.446  38.570  0.00  0.00    +0.000 A 
ATOM     15  C   UNL     1      15.640  10.968  37.389  0.00  0.00    +0.000 A 
ATOM     16  C   UNL     1      16.500  11.215  36.338  0.00  0.00    +0.000 A 
ATOM     17  C   UNL     1      17.829  10.927  36.514  0.00  0.00    +0.000 A 
ATOM     18  C   UNL     1      18.310  10.406  37.697  0.00  0.00    +0.000 A 
ENDBRANCH   1  16
TORSDOF 2
ENDMDL
MODEL 3
REMARK VINA RESULT:      -6.6      1.577      6.806
REMARK  Name = 
REMARK  2 active torsions:
REMARK  status: ('A' for Active; 'I' for Inactive)
REMARK    1  A    between atoms: C_5  and  N_6
REMARK    2  A    between atoms: C_7  and  C_9
REMARK                            x       y       z     vdW  Elec       q    Type
REMARK                         _______ _______ _______ _____ _____    ______ ____
ROOT
ATOM      1  N   UNL     1      16.680  11.820  36.471  0.00  0.00    +0.000 NA
ATOM      2  C   UNL     1      16.024  11.305  35.320  0.00  0.00    +0.000 C 
ATOM      3  O   UNL     1      16.109  10.052  35.099  0.00  0.00    +0.000 OA
ENDROOT
BRANCH   2   4
ATOM      4  C   UNL     1      15.273  12.138  34.405  0.00  0.00    +0.000 A 
ATOM      5  C   UNL     1      14.478  13.148  34.880  0.00  0.00    +0.000 A 
ATOM      6  C   UNL     1      13.737  13.978  34.061  0.00  0.00    +0.000 A 
ATOM      7  C   UNL     1      12.875  15.075  34.563  0.00  0.00    +0.000 C 
ATOM      8  C   UNL     1      13.814  13.760  32.709  0.00  0.00    +0.000 A 
ATOM      9  C   UNL     1      14.602  12.755  32.204  0.00  0.00    +0.000 A 
ATOM     10  C   UNL     1      15.337  11.935  33.048  0.00  0.00    +0.000 A 
ATOM     11  N   UNL     1      16.140  10.904  32.466  0.00  0.00    +0.000 NA
ENDBRANCH   2   4
BRANCH   1  16
ATOM     12  C   UNL     1      19.564   8.191  39.857  0.00  0.00    +0.000 C 
ATOM     13  C   UNL     1      18.800   9.133  38.990  0.00  0.00    +0.000 A 
ATOM     14  C   UNL     1      19.357   9.636  37.822  0.00  0.00    +0.000 A 
ATOM     15  C   UNL     1      18.679  10.508  36.996  0.00  0.00    +0.000 A 
ATOM     16  C   UNL     1      17.400  10.914  37.316  0.00  0.00    +0.000 A 
ATOM     17  C   UNL     1      16.841  10.423  38.468  0.00  0.00    +0.000 A 
ATOM     18  C   UNL     1      17.521   9.550  39.293  0.00  0.00    +0.000 A 
ENDBRANCH   1  16
TORSDOF 2
ENDMDL
MODEL 4
REMARK VINA RESULT:      -6.5      0.986      2.030
REMARK  Name = 
REMARK  2 active torsions:
REMARK  status: ('A' for Active; 'I' for Inactive)
REMARK    1  A    between atoms: C_5  and  N_6
REMARK    2  A    between atoms: C_7  and  C_9
REMARK                            x       y       z     vdW  Elec       q    Type
REMARK                         _______ _______ _______ _____ _____    ______ ____
ROOT
ATOM      1  N   UNL     1      16.425  10.522  35.125  0.00  0.00    +0.000 NA
ATOM      2  C   UNL     1      17.076  11.282  36.134  0.00  0.00    +0.000 C 
ATOM      3  O   UNL     1      17.220  12.534  35.934  0.00  0.00    +0.000 OA
ENDROOT
BRANCH   2   4
ATOM      4  C   UNL     1      17.573  10.697  37.362  0.00  0.00    +0.000 A 
ATOM      5  C   UNL     1      18.899  10.380  37.491  0.00  0.00    +0.000 A 
ATOM      6  C   UNL     1      19.436   9.821  38.635  0.00  0.00    +0.000 A 
ATOM      7  C   UNL     1      20.870   9.475  38.788  0.00  0.00    +0.000 C 
ATOM      8  C   UNL     1      18.579   9.577  39.678  0.00  0.00    +0.000 A 
ATOM      9  C   UNL     1      17.245   9.884  39.576  0.00  0.00    +0.000 A 
ATOM     10  C   UNL     1      16.730  10.445  38.417  0.00  0.00    +0.000 A 
ATOM     11  N   UNL     1      15.332  10.743  38.367  0.00  0.00    +0.000 NA
ENDBRANCH   2   4
BRANCH   1  16
ATOM     12  C   UNL     1      14.596  13.209  30.394  0.00  0.00    +0.000 C 
ATOM     13  C   UNL     1      15.084  12.502  31.612  0.00  0.00    +0.000 A 
ATOM     14  C   UNL     1      14.528  12.761  32.857  0.00  0.00    +0.000 A 
ATOM     15  C   UNL     1      14.953  12.125  34.004  0.00  0.00    +0.000 A 
ATOM     16  C   UNL     1      15.968  11.193  33.944  0.00  0.00    +0.000 A 
ATOM     17  C   UNL     1      16.525  10.929  32.718  0.00  0.00    +0.000 A 
ATOM     18  C   UNL     1      16.097  11.566  31.572  0.00  0.00    +0.000 A 
ENDBRANCH   1  16
TORSDOF 2
ENDMDL
MODEL 5
REMARK VINA RESULT:      -6.3      3.201      4.944
REMARK  Name = 
REMARK  2 active torsions:
REMARK  status: ('A' for Active; 'I' for Inactive)
REMARK    1  A    between atoms: C_5  and  N_6
REMARK    2  A    between atoms: C_7  and  C_9
REMARK                            x       y       z     vdW  Elec       q    Type
REMARK                         _______ _______ _______ _____ _____    ______ ____
ROOT
ATOM      1  N   UNL     1      18.769  11.326  37.875  0.00  0.00    +0.000 NA
ATOM      2  C   UNL     1      19.401  10.187  37.308  0.00  0.00    +0.000 C 
ATOM      3  O   UNL     1      18.715   9.459  36.517  0.00  0.00    +0.000 OA
ENDROOT
BRANCH   2   4
ATOM      4  C   UNL     1      20.775   9.828  37.591  0.00  0.00    +0.000 A 
ATOM      5  C   UNL     1      21.734   9.936  36.619  0.00  0.00    +0.000 A 
ATOM      6  C   UNL     1      23.061   9.611  36.825  0.00  0.00    +0.000 A 
ATOM      7  C   UNL     1      24.108   9.726  35.782  0.00  0.00    +0.000 C 
ATOM      8  C   UNL     1      23.412   9.158  38.071  0.00  0.00    +0.000 A 
ATOM      9  C   UNL     1      22.472   9.039  39.065  0.00  0.00    +0.000 A 
ATOM     10  C   UNL     1      21.145   9.372  38.833  0.00  0.00    +0.000 A 
ATOM     11  N   UNL     1      20.210   9.227  39.905  0.00  0.00    +0.000 NA
ENDBRANCH   2   4
BRANCH   1  16
ATOM     12  C   UNL     1      13.300  12.412  36.506  0.00  0.00    +0.000 C 
ATOM     13  C   UNL     1      14.726  12.143  36.850  0.00  0.00    +0.000 A 
ATOM     14  C   UNL     1      15.063  11.179  37.789  0.00  0.00    +0.000 A 
ATOM     15  C   UNL     1      16.371  10.904  38.130  0.00  0.00    +0.000 A 
ATOM     16  C   UNL     1      17.403  11.598  37.533  0.00  0.00    +0.000 A 
ATOM     17  C   UNL     1      17.081  12.553  36.603  0.00  0.00    +0.000 A 
ATOM     18  C   UNL     1      15.772  12.826  36.263  0.00  0.00    +0.000 A 
ENDBRANCH   1  16
TORSDOF 2
ENDMDL
MODEL 6
REMARK VINA RESULT:      -6.1     18.839     19.843
REMARK  Name = 
REMARK  2 active torsions:
REMARK  status: ('A' for Active; 'I' for Inactive)
REMARK    1  A    between atoms: C_5  and  N_6
REMARK    2  A    between atoms: C_7  and  C_9
REMARK                            x       y       z     vdW  Elec       q    Type
REMARK                         _______ _______ _______ _____ _____    ______ ____
ROOT
ATOM      1  N   UNL     1      26.399  25.247  25.939  0.00  0.00    +0.000 NA
ATOM      2  C   UNL     1      26.665  23.894  25.595  0.00  0.00    +0.000 C 
ATOM      3  O   UNL     1      25.668  23.113  25.444  0.00  0.00    +0.000 OA
ENDROOT
BRANCH   2   4
ATOM      4  C   UNL     1      28.005  23.378  25.412  0.00  0.00    +0.000 A 
ATOM      5  C   UNL     1      28.746  22.977  26.492  0.00  0.00    +0.000 A 
ATOM      6  C   UNL     1      30.029  22.476  26.385  0.00  0.00    +0.000 A 
ATOM      7  C   UNL     1      30.841  22.037  27.546  0.00  0.00    +0.000 C 
ATOM      8  C   UNL     1      30.568  22.387  25.127  0.00  0.00    +0.000 A 
ATOM      9  C   UNL     1      29.849  22.782  24.027  0.00  0.00    +0.000 A 
ATOM     10  C   UNL     1      28.561  23.282  24.160  0.00  0.00    +0.000 A 
ATOM     11  N   UNL     1      27.860  23.679  22.979  0.00  0.00    +0.000 NA
ENDBRANCH   2   4
BRANCH   1  16
ATOM     12  C   UNL     1      20.943  26.912  26.579  0.00  0.00    +0.000 C 
ATOM     13  C   UNL     1      22.360  26.485  26.395  0.00  0.00    +0.000 A 
ATOM     14  C   UNL     1      23.086  25.954  27.450  0.00  0.00    +0.000 A 
ATOM     15  C   UNL     1      24.397  25.548  27.315  0.00  0.00    +0.000 A 
ATOM     16  C   UNL     1      25.037  25.663  26.098  0.00  0.00    +0.000 A 
ATOM     17  C   UNL     1      24.328  26.187  25.048  0.00  0.00    +0.000 A 
ATOM     18  C   UNL     1      23.016  26.592  25.185  0.00  0.00    +0.000 A 
ENDBRANCH   1  16
TORSDOF 2
ENDMDL
MODEL 7
REMARK VINA RESULT:      -6.1     18.386     20.845
REMARK  Name = 
REMARK  2 active torsions:
REMARK  status: ('A' for Active; 'I' for Inactive)
REMARK    1  A    between atoms: C_5  and  N_6
REMARK    2  A    between atoms: C_7  and  C_9
REMARK                            x       y       z     vdW  Elec       q    Type
REMARK                         _______ _______ _______ _____ _____    ______ ____
ROOT
ATOM      1  N   UNL     1      34.265  -0.088  34.077  0.00  0.00    +0.000 NA
ATOM      2  C   UNL     1      33.214  -1.005  34.355  0.00  0.00    +0.000 C 
ATOM      3  O   UNL     1      32.075  -0.525  34.670  0.00  0.00    +0.000 OA
ENDROOT
BRANCH   2   4
ATOM      4  C   UNL     1      33.387  -2.441  34.293  0.00  0.00    +0.000 A 
ATOM      5  C   UNL     1      33.490  -3.075  33.082  0.00  0.00    +0.000 A 
ATOM      6  C   UNL     1      33.657  -4.440  32.955  0.00  0.00    +0.000 A 
ATOM      7  C   UNL     1      33.771  -5.138  31.651  0.00  0.00    +0.000 C 
ATOM      8  C   UNL     1      33.717  -5.178  34.109  0.00  0.00    +0.000 A 
ATOM      9  C   UNL     1      33.616  -4.569  35.336  0.00  0.00    +0.000 A 
ATOM     10  C   UNL     1      33.449  -3.196  35.438  0.00  0.00    +0.000 A 
ATOM     11  N   UNL     1      33.350  -2.617  36.742  0.00  0.00    +0.000 NA
ENDBRANCH   2   4
BRANCH   1  16
ATOM     12  C   UNL     1      33.182   5.538  34.434  0.00  0.00    +0.000 C 
ATOM     13  C   UNL     1      33.461   4.077  34.323  0.00  0.00    +0.000 A 
ATOM     14  C   UNL     1      33.768   3.323  35.446  0.00  0.00    +0.000 A 
ATOM     15  C   UNL     1      34.030   1.971  35.380  0.00  0.00    +0.000 A 
ATOM     16  C   UNL     1      33.994   1.317  34.166  0.00  0.00    +0.000 A 
ATOM     17  C   UNL     1      33.692   2.053  33.049  0.00  0.00    +0.000 A 
ATOM     18  C   UNL     1      33.430   3.406  33.118  0.00  0.00    +0.000 A 
ENDBRANCH   1  16
TORSDOF 2
ENDMDL
MODEL 8
REMARK VINA RESULT:      -5.7      1.790      2.924
REMARK  Name = 
REMARK  2 active torsions:
REMARK  status: ('A' for Active; 'I' for Inactive)
REMARK    1  A    between atoms: C_5  and  N_6
REMARK    2  A    between atoms: C_7  and  C_9
REMARK                            x       y       z     vdW  Elec       q    Type
REMARK                         _______ _______ _______ _____ _____    ______ ____
ROOT
ATOM      1  N   UNL     1      17.399   9.820  36.347  0.00  0.00    +0.000 NA
ATOM      2  C   UNL     1      18.086  10.600  37.317  0.00  0.00    +0.000 C 
ATOM      3  O   UNL     1      18.111  11.864  37.153  0.00  0.00    +0.000 OA
ENDROOT
BRANCH   2   4
ATOM      4  C   UNL     1      18.747  10.019  38.467  0.00  0.00    +0.000 A 
ATOM      5  C   UNL     1      20.093   9.768  38.440  0.00  0.00    +0.000 A 
ATOM      6  C   UNL     1      20.782   9.217  39.502  0.00  0.00    +0.000 A 
ATOM      7  C   UNL     1      22.240   8.942  39.485  0.00  0.00    +0.000 C 
ATOM      8  C   UNL     1      20.063   8.911  40.629  0.00  0.00    +0.000 A 
ATOM      9  C   UNL     1      18.712   9.151  40.685  0.00  0.00    +0.000 A 
ATOM     10  C   UNL     1      18.042   9.706  39.604  0.00  0.00    +0.000 A 
ATOM     11  N   UNL     1      16.635   9.933  39.719  0.00  0.00    +0.000 NA
ENDBRANCH   2   4
BRANCH   1  16
ATOM     12  C   UNL     1      14.906  12.495  31.922  0.00  0.00    +0.000 C 
ATOM     13  C   UNL     1      15.541  11.808  33.083  0.00  0.00    +0.000 A 
ATOM     14  C   UNL     1      16.623  10.959  32.903  0.00  0.00    +0.000 A 
ATOM     15  C   UNL     1      17.236  10.308  33.954  0.00  0.00    +0.000 A 
ATOM     16  C   UNL     1      16.777  10.488  35.242  0.00  0.00    +0.000 A 
ATOM     17  C   UNL     1      15.707  11.326  35.431  0.00  0.00    +0.000 A 
ATOM     18  C   UNL     1      15.097  11.976  34.378  0.00  0.00    +0.000 A 
ENDBRANCH   1  16
TORSDOF 2
ENDMDL
MODEL 9
REMARK VINA RESULT:      -5.7     18.413     19.493
REMARK  Name = 
REMARK  2 active torsions:
REMARK  status: ('A' for Active; 'I' for Inactive)
REMARK    1  A    between atoms: C_5  and  N_6
REMARK    2  A    between atoms: C_7  and  C_9
REMARK                            x       y       z     vdW  Elec       q    Type
REMARK                         _______ _______ _______ _____ _____    ______ ____
ROOT
ATOM      1  N   UNL     1      26.356  25.200  26.636  0.00  0.00    +0.000 NA
ATOM      2  C   UNL     1      26.689  23.872  26.254  0.00  0.00    +0.000 C 
ATOM      3  O   UNL     1      25.773  23.159  25.725  0.00  0.00    +0.000 OA
ENDROOT
BRANCH   2   4
ATOM      4  C   UNL     1      28.009  23.309  26.440  0.00  0.00    +0.000 A 
ATOM      5  C   UNL     1      28.940  23.379  25.437  0.00  0.00    +0.000 A 
ATOM      6  C   UNL     1      30.216  22.862  25.551  0.00  0.00    +0.000 A 
ATOM      7  C   UNL     1      31.232  22.933  24.473  0.00  0.00    +0.000 C 
ATOM      8  C   UNL     1      30.545  22.251  26.734  0.00  0.00    +0.000 A 
ATOM      9  C   UNL     1      29.632  22.166  27.756  0.00  0.00    +0.000 A 
ATOM     10  C   UNL     1      28.356  22.693  27.617  0.00  0.00    +0.000 A 
ATOM     11  N   UNL     1      27.448  22.574  28.715  0.00  0.00    +0.000 NA
ENDBRANCH   2   4
BRANCH   1  16
ATOM     12  C   UNL     1      21.003  27.069  25.737  0.00  0.00    +0.000 C 
ATOM     13  C   UNL     1      22.398  26.588  25.953  0.00  0.00    +0.000 A 
ATOM     14  C   UNL     1      22.797  26.093  27.186  0.00  0.00    +0.000 A 
ATOM     15  C   UNL     1      24.078  25.638  27.420  0.00  0.00    +0.000 A 
ATOM     16  C   UNL     1      25.019  25.667  26.412  0.00  0.00    +0.000 A 
ATOM     17  C   UNL     1      24.634  26.155  25.189  0.00  0.00    +0.000 A 
ATOM     18  C   UNL     1      23.352  26.608  24.957  0.00  0.00    +0.000 A 
ENDBRANCH   1  16
TORSDOF 2
ENDMDL
MODEL 10
REMARK VINA RESULT:      -5.6     20.773     23.115
REMARK  Name = 
REMARK  2 active torsions:
REMARK  status: ('A' for Active; 'I' for Inactive)
REMARK    1  A    between atoms: C_5  and  N_6
REMARK    2  A    between atoms: C_7  and  C_9
REMARK                            x       y       z     vdW  Elec       q    Type
REMARK                         _______ _______ _______ _____ _____    ______ ____
ROOT
ATOM      1  N   UNL     1      31.044  24.846  24.745  0.00  0.00    +0.000 NA
ATOM      2  C   UNL     1      30.432  23.685  24.200  0.00  0.00    +0.000 C 
ATOM      3  O   UNL     1      31.125  22.615  24.151  0.00  0.00    +0.000 OA
ENDROOT
BRANCH   2   4
ATOM      4  C   UNL     1      29.071  23.673  23.706  0.00  0.00    +0.000 A 
ATOM      5  C   UNL     1      28.035  23.342  24.539  0.00  0.00    +0.000 A 
ATOM      6  C   UNL     1      26.715  23.313  24.130  0.00  0.00    +0.000 A 
ATOM      7  C   UNL     1      25.585  22.958  25.022  0.00  0.00    +0.000 C 
ATOM      8  C   UNL     1      26.454  23.631  22.822  0.00  0.00    +0.000 A 
ATOM      9  C   UNL     1      27.473  23.965  21.964  0.00  0.00    +0.000 A 
ATOM     10  C   UNL     1      28.791  23.988  22.399  0.00  0.00    +0.000 A 
ATOM     11  N   UNL     1      29.810  24.344  21.462  0.00  0.00    +0.000 NA
ENDBRANCH   2   4
BRANCH   1  16
ATOM     12  C   UNL     1      36.466  24.491  26.598  0.00  0.00    +0.000 C 
ATOM     13  C   UNL     1      35.052  24.581  26.135  0.00  0.00    +0.000 A 
ATOM     14  C   UNL     1      34.753  24.796  24.797  0.00  0.00    +0.000 A 
ATOM     15  C   UNL     1      33.457  24.883  24.333  0.00  0.00    +0.000 A 
ATOM     16  C   UNL     1      32.398  24.757  25.208  0.00  0.00    +0.000 A 
ATOM     17  C   UNL     1      32.682  24.544  26.533  0.00  0.00    +0.000 A 
ATOM     18  C   UNL     1      33.980  24.457  26.994  0.00  0.00    +0.000 A 
ENDBRANCH   1  16
TORSDOF 2
ENDMDL
