MODEL 1
REMARK VINA RESULT:      -6.0      0.000      0.000
REMARK  Name = 
REMARK  2 active torsions:
REMARK  status: ('A' for Active; 'I' for Inactive)
REMARK    1  A    between atoms: C_6  and  C_7
REMARK    2  A    between atoms: N_11  and  C_12
REMARK                            x       y       z     vdW  Elec       q    Type
REMARK                         _______ _______ _______ _____ _____    ______ ____
ROOT
ATOM      1  C   UNL     1      20.590  13.285  38.215  0.00  0.00    +0.000 C 
ATOM      2  C   UNL     1      19.955  12.003  38.660  0.00  0.00    +0.000 A 
ATOM      3  C   UNL     1      20.287  11.426  39.867  0.00  0.00    +0.000 A 
ATOM      4  C   UNL     1      19.733  10.249  40.320  0.00  0.00    +0.000 A 
ATOM      5  C   UNL     1      20.083   9.620  41.619  0.00  0.00    +0.000 C 
ATOM      6  C   UNL     1      18.786   9.630  39.490  0.00  0.00    +0.000 A 
ATOM      7  C   UNL     1      18.454  10.203  38.285  0.00  0.00    +0.000 A 
ATOM      8  N   UNL     1      17.494   9.558  37.459  0.00  0.00    +0.000 NA
ATOM      9  N   UNL     1      19.042  11.357  37.912  0.00  0.00    +0.000 NA
ENDROOT
BRANCH   8  10
ATOM     10  C   UNL     1      17.159  10.160  36.218  0.00  0.00    +0.000 A 
ATOM     11  C   UNL     1      17.742   9.739  35.041  0.00  0.00    +0.000 A 
ATOM     12  C   UNL     1      17.430  10.307  33.849  0.00  0.00    +0.000 A 
ATOM     13  C   UNL     1      16.511  11.340  33.740  0.00  0.00    +0.000 A 
ATOM     14 CL   UNL     1      16.185  11.994  32.170  0.00  0.00    +0.000 Cl
ATOM     15  C   UNL     1      15.921  11.772  34.902  0.00  0.00    +0.000 A 
ATOM     16  C   UNL     1      16.245  11.188  36.109  0.00  0.00    +0.000 A 
ENDBRANCH   8  10
BRANCH   6  17
ATOM     17  C   UNL     1      18.144   8.389  39.872  0.00  0.00    +0.000 C 
ATOM     18  N   UNL     1      16.934   8.339  40.615  0.00  0.00    +0.000 NA
ATOM     19  O   UNL     1      18.663   7.301  39.541  0.00  0.00    +0.000 OA
ENDBRANCH   6  17
TORSDOF 2
ENDMDL
MODEL 2
REMARK VINA RESULT:      -5.8      2.852      3.522
REMARK  Name = 
REMARK  2 active torsions:
REMARK  status: ('A' for Active; 'I' for Inactive)
REMARK    1  A    between atoms: C_6  and  C_7
REMARK    2  A    between atoms: N_11  and  C_12
REMARK                            x       y       z     vdW  Elec       q    Type
REMARK                         _______ _______ _______ _____ _____    ______ ____
ROOT
ATOM      1  C   UNL     1      19.689  15.431  39.200  0.00  0.00    +0.000 C 
ATOM      2  C   UNL     1      20.158  14.062  38.811  0.00  0.00    +0.000 A 
ATOM      3  C   UNL     1      21.477  13.692  38.963  0.00  0.00    +0.000 A 
ATOM      4  C   UNL     1      21.957  12.447  38.620  0.00  0.00    +0.000 A 
ATOM      5  C   UNL     1      23.376  12.038  38.781  0.00  0.00    +0.000 C 
ATOM      6  C   UNL     1      21.034  11.532  38.092  0.00  0.00    +0.000 A 
ATOM      7  C   UNL     1      19.717  11.899  37.939  0.00  0.00    +0.000 A 
ATOM      8  N   UNL     1      18.799  10.957  37.401  0.00  0.00    +0.000 NA
ATOM      9  N   UNL     1      19.325  13.138  38.298  0.00  0.00    +0.000 NA
ENDROOT
BRANCH   8  10
ATOM     10  C   UNL     1      17.444  11.348  37.248  0.00  0.00    +0.000 A 
ATOM     11  C   UNL     1      17.078  12.306  36.326  0.00  0.00    +0.000 A 
ATOM     12  C   UNL     1      15.785  12.687  36.171  0.00  0.00    +0.000 A 
ATOM     13  C   UNL     1      14.757  12.142  36.925  0.00  0.00    +0.000 A 
ATOM     14 CL   UNL     1      13.141  12.700  36.648  0.00  0.00    +0.000 Cl
ATOM     15  C   UNL     1      15.104  11.187  37.849  0.00  0.00    +0.000 A 
ATOM     16  C   UNL     1      16.421  10.806  37.999  0.00  0.00    +0.000 A 
ENDBRANCH   8  10
BRANCH   6  17
ATOM     17  C   UNL     1      21.435  10.196  37.700  0.00  0.00    +0.000 C 
ATOM     18  N   UNL     1      21.895   9.877  36.394  0.00  0.00    +0.000 NA
ATOM     19  O   UNL     1      21.381   9.268  38.536  0.00  0.00    +0.000 OA
ENDBRANCH   6  17
TORSDOF 2
ENDMDL
MODEL 3
REMARK VINA RESULT:      -5.7     21.366     22.858
REMARK  Name = 
REMARK  2 active torsions:
REMARK  status: ('A' for Active; 'I' for Inactive)
REMARK    1  A    between atoms: C_6  and  C_7
REMARK    2  A    between atoms: N_11  and  C_12
REMARK                            x       y       z     vdW  Elec       q    Type
REMARK                         _______ _______ _______ _____ _____    ______ ____
ROOT
ATOM      1  C   UNL     1      22.687 -11.039  27.865  0.00  0.00    +0.000 C 
ATOM      2  C   UNL     1      21.657 -10.048  27.417  0.00  0.00    +0.000 A 
ATOM      3  C   UNL     1      20.421  -9.981  28.025  0.00  0.00    +0.000 A 
ATOM      4  C   UNL     1      19.441  -9.088  27.649  0.00  0.00    +0.000 A 
ATOM      5  C   UNL     1      18.108  -9.008  28.298  0.00  0.00    +0.000 C 
ATOM      6  C   UNL     1      19.745  -8.216  26.593  0.00  0.00    +0.000 A 
ATOM      7  C   UNL     1      20.977  -8.281  25.985  0.00  0.00    +0.000 A 
ATOM      8  N   UNL     1      21.263  -7.389  24.916  0.00  0.00    +0.000 NA
ATOM      9  N   UNL     1      21.883  -9.183  26.410  0.00  0.00    +0.000 NA
ENDROOT
BRANCH   8  10
ATOM     10  C   UNL     1      22.538  -7.466  24.297  0.00  0.00    +0.000 A 
ATOM     11  C   UNL     1      23.531  -6.555  24.593  0.00  0.00    +0.000 A 
ATOM     12  C   UNL     1      24.753  -6.620  24.006  0.00  0.00    +0.000 A 
ATOM     13  C   UNL     1      25.078  -7.598  23.079  0.00  0.00    +0.000 A 
ATOM     14 CL   UNL     1      26.667  -7.589  22.391  0.00  0.00    +0.000 Cl
ATOM     15  C   UNL     1      24.101  -8.513  22.773  0.00  0.00    +0.000 A 
ATOM     16  C   UNL     1      22.862  -8.439  23.374  0.00  0.00    +0.000 A 
ENDBRANCH   8  10
BRANCH   6  17
ATOM     17  C   UNL     1      18.785  -7.239  26.121  0.00  0.00    +0.000 C 
ATOM     18  N   UNL     1      18.789  -5.882  26.541  0.00  0.00    +0.000 NA
ATOM     19  O   UNL     1      17.905  -7.588  25.303  0.00  0.00    +0.000 OA
ENDBRANCH   6  17
TORSDOF 2
ENDMDL
MODEL 4
REMARK VINA RESULT:      -5.5     21.510     23.241
REMARK  Name = 
REMARK  2 active torsions:
REMARK  status: ('A' for Active; 'I' for Inactive)
REMARK    1  A    between atoms: C_6  and  C_7
REMARK    2  A    between atoms: N_11  and  C_12
REMARK                            x       y       z     vdW  Elec       q    Type
REMARK                         _______ _______ _______ _____ _____    ______ ____
ROOT
ATOM      1  C   UNL     1      25.170   5.463  13.254  0.00  0.00    +0.000 C 
ATOM      2  C   UNL     1      25.974   5.674  14.501  0.00  0.00    +0.000 A 
ATOM      3  C   UNL     1      27.058   6.527  14.514  0.00  0.00    +0.000 A 
ATOM      4  C   UNL     1      27.827   6.754  15.633  0.00  0.00    +0.000 A 
ATOM      5  C   UNL     1      28.996   7.670  15.656  0.00  0.00    +0.000 C 
ATOM      6  C   UNL     1      27.466   6.070  16.804  0.00  0.00    +0.000 A 
ATOM      7  C   UNL     1      26.386   5.219  16.794  0.00  0.00    +0.000 A 
ATOM      8  N   UNL     1      26.038   4.536  17.991  0.00  0.00    +0.000 NA
ATOM      9  N   UNL     1      25.682   5.050  15.657  0.00  0.00    +0.000 NA
ENDROOT
BRANCH   8  10
ATOM     10  C   UNL     1      24.921   3.661  17.968  0.00  0.00    +0.000 A 
ATOM     11  C   UNL     1      23.646   4.126  18.212  0.00  0.00    +0.000 A 
ATOM     12  C   UNL     1      22.571   3.298  18.193  0.00  0.00    +0.000 A 
ATOM     13  C   UNL     1      22.686   1.942  17.927  0.00  0.00    +0.000 A 
ATOM     14 CL   UNL     1      21.250   0.975  17.926  0.00  0.00    +0.000 Cl
ATOM     15  C   UNL     1      23.949   1.462  17.681  0.00  0.00    +0.000 A 
ATOM     16  C   UNL     1      25.036   2.312  17.703  0.00  0.00    +0.000 A 
ENDBRANCH   8  10
BRANCH   6  17
ATOM     17  C   UNL     1      28.210   6.238  18.036  0.00  0.00    +0.000 C 
ATOM     18  N   UNL     1      27.955   7.287  18.959  0.00  0.00    +0.000 NA
ATOM     19  O   UNL     1      29.123   5.431  18.317  0.00  0.00    +0.000 OA
ENDBRANCH   6  17
TORSDOF 2
ENDMDL
MODEL 5
REMARK VINA RESULT:      -5.5     19.698     21.943
REMARK  Name = 
REMARK  2 active torsions:
REMARK  status: ('A' for Active; 'I' for Inactive)
REMARK    1  A    between atoms: C_6  and  C_7
REMARK    2  A    between atoms: N_11  and  C_12
REMARK                            x       y       z     vdW  Elec       q    Type
REMARK                         _______ _______ _______ _____ _____    ______ ____
ROOT
ATOM      1  C   UNL     1      29.578  27.797  25.776  0.00  0.00    +0.000 C 
ATOM      2  C   UNL     1      29.143  26.766  24.778  0.00  0.00    +0.000 A 
ATOM      3  C   UNL     1      29.357  26.947  23.428  0.00  0.00    +0.000 A 
ATOM      4  C   UNL     1      28.977  26.031  22.473  0.00  0.00    +0.000 A 
ATOM      5  C   UNL     1      29.203  26.216  21.017  0.00  0.00    +0.000 C 
ATOM      6  C   UNL     1      28.342  24.865  22.927  0.00  0.00    +0.000 A 
ATOM      7  C   UNL     1      28.127  24.681  24.273  0.00  0.00    +0.000 A 
ATOM      8  N   UNL     1      27.481  23.494  24.711  0.00  0.00    +0.000 NA
ATOM      9  N   UNL     1      28.529  25.627  25.146  0.00  0.00    +0.000 NA
ENDROOT
BRANCH   8  10
ATOM     10  C   UNL     1      27.265  23.317  26.102  0.00  0.00    +0.000 A 
ATOM     11  C   UNL     1      26.189  23.900  26.736  0.00  0.00    +0.000 A 
ATOM     12  C   UNL     1      25.973  23.738  28.066  0.00  0.00    +0.000 A 
ATOM     13  C   UNL     1      26.816  22.981  28.865  0.00  0.00    +0.000 A 
ATOM     14 CL   UNL     1      26.448  22.838  30.552  0.00  0.00    +0.000 Cl
ATOM     15  C   UNL     1      27.893  22.393  28.250  0.00  0.00    +0.000 A 
ATOM     16  C   UNL     1      28.104  22.564  26.897  0.00  0.00    +0.000 A 
ENDBRANCH   8  10
BRANCH   6  17
ATOM     17  C   UNL     1      27.902  23.837  22.005  0.00  0.00    +0.000 C 
ATOM     18  N   UNL     1      26.550  23.692  21.594  0.00  0.00    +0.000 NA
ATOM     19  O   UNL     1      28.737  23.032  21.538  0.00  0.00    +0.000 OA
ENDBRANCH   6  17
TORSDOF 2
ENDMDL
MODEL 6
REMARK VINA RESULT:      -5.4     18.192     20.174
REMARK  Name = 
REMARK  2 active torsions:
REMARK  status: ('A' for Active; 'I' for Inactive)
REMARK    1  A    between atoms: C_6  and  C_7
REMARK    2  A    between atoms: N_11  and  C_12
REMARK                            x       y       z     vdW  Elec       q    Type
REMARK                         _______ _______ _______ _____ _____    ______ ____
ROOT
ATOM      1  C   UNL     1      26.537  23.190  28.971  0.00  0.00    +0.000 C 
ATOM      2  C   UNL     1      27.986  22.960  29.276  0.00  0.00    +0.000 A 
ATOM      3  C   UNL     1      28.403  22.640  30.551  0.00  0.00    +0.000 A 
ATOM      4  C   UNL     1      29.722  22.420  30.883  0.00  0.00    +0.000 A 
ATOM      5  C   UNL     1      30.180  22.075  32.252  0.00  0.00    +0.000 C 
ATOM      6  C   UNL     1      30.665  22.534  29.851  0.00  0.00    +0.000 A 
ATOM      7  C   UNL     1      30.253  22.854  28.578  0.00  0.00    +0.000 A 
ATOM      8  N   UNL     1      31.225  22.965  27.548  0.00  0.00    +0.000 NA
ATOM      9  N   UNL     1      28.942  23.054  28.334  0.00  0.00    +0.000 NA
ENDROOT
BRANCH   8  10
ATOM     10  C   UNL     1      30.787  23.296  26.240  0.00  0.00    +0.000 A 
ATOM     11  C   UNL     1      30.896  24.582  25.754  0.00  0.00    +0.000 A 
ATOM     12  C   UNL     1      30.480  24.908  24.505  0.00  0.00    +0.000 A 
ATOM     13  C   UNL     1      29.922  23.976  23.643  0.00  0.00    +0.000 A 
ATOM     14 CL   UNL     1      29.424  24.498  22.069  0.00  0.00    +0.000 Cl
ATOM     15  C   UNL     1      29.805  22.690  24.110  0.00  0.00    +0.000 A 
ATOM     16  C   UNL     1      30.232  22.368  25.382  0.00  0.00    +0.000 A 
ENDBRANCH   8  10
BRANCH   6  17
ATOM     17  C   UNL     1      32.078  22.323  30.093  0.00  0.00    +0.000 C 
ATOM     18  N   UNL     1      32.957  23.359  30.505  0.00  0.00    +0.000 NA
ATOM     19  O   UNL     1      32.564  21.181  29.937  0.00  0.00    +0.000 OA
ENDBRANCH   6  17
TORSDOF 2
ENDMDL
MODEL 7
REMARK VINA RESULT:      -5.3     20.646     22.968
REMARK  Name = 
REMARK  2 active torsions:
REMARK  status: ('A' for Active; 'I' for Inactive)
REMARK    1  A    between atoms: C_6  and  C_7
REMARK    2  A    between atoms: N_11  and  C_12
REMARK                            x       y       z     vdW  Elec       q    Type
REMARK                         _______ _______ _______ _____ _____    ______ ____
ROOT
ATOM      1  C   UNL     1      28.264  27.745  26.416  0.00  0.00    +0.000 C 
ATOM      2  C   UNL     1      28.367  26.855  25.215  0.00  0.00    +0.000 A 
ATOM      3  C   UNL     1      27.775  27.203  24.019  0.00  0.00    +0.000 A 
ATOM      4  C   UNL     1      27.840  26.420  22.887  0.00  0.00    +0.000 A 
ATOM      5  C   UNL     1      27.205  26.787  21.596  0.00  0.00    +0.000 C 
ATOM      6  C   UNL     1      28.552  25.216  22.986  0.00  0.00    +0.000 A 
ATOM      7  C   UNL     1      29.144  24.866  24.178  0.00  0.00    +0.000 A 
ATOM      8  N   UNL     1      29.859  23.641  24.256  0.00  0.00    +0.000 NA
ATOM      9  N   UNL     1      29.034  25.687  25.242  0.00  0.00    +0.000 NA
ENDROOT
BRANCH   8  10
ATOM     10  C   UNL     1      30.465  23.292  25.491  0.00  0.00    +0.000 A 
ATOM     11  C   UNL     1      29.932  22.306  26.294  0.00  0.00    +0.000 A 
ATOM     12  C   UNL     1      30.503  21.965  27.477  0.00  0.00    +0.000 A 
ATOM     13  C   UNL     1      31.651  22.581  27.948  0.00  0.00    +0.000 A 
ATOM     14 CL   UNL     1      32.299  22.069  29.471  0.00  0.00    +0.000 Cl
ATOM     15  C   UNL     1      32.197  23.566  27.162  0.00  0.00    +0.000 A 
ATOM     16  C   UNL     1      31.609  23.906  25.961  0.00  0.00    +0.000 A 
ENDBRANCH   8  10
BRANCH   6  17
ATOM     17  C   UNL     1      28.681  24.320  21.855  0.00  0.00    +0.000 C 
ATOM     18  N   UNL     1      29.665  24.484  20.844  0.00  0.00    +0.000 NA
ATOM     19  O   UNL     1      27.899  23.350  21.747  0.00  0.00    +0.000 OA
ENDBRANCH   6  17
TORSDOF 2
ENDMDL
MODEL 8
REMARK VINA RESULT:      -5.3      3.391      4.650
REMARK  Name = 
REMARK  2 active torsions:
REMARK  status: ('A' for Active; 'I' for Inactive)
REMARK    1  A    between atoms: C_6  and  C_7
REMARK    2  A    between atoms: N_11  and  C_12
REMARK                            x       y       z     vdW  Elec       q    Type
REMARK                         _______ _______ _______ _____ _____    ______ ____
ROOT
ATOM      1  C   UNL     1      21.193  14.290  40.223  0.00  0.00    +0.000 C 
ATOM      2  C   UNL     1      21.708  13.214  39.316  0.00  0.00    +0.000 A 
ATOM      3  C   UNL     1      23.044  13.143  38.983  0.00  0.00    +0.000 A 
ATOM      4  C   UNL     1      23.566  12.175  38.153  0.00  0.00    +0.000 A 
ATOM      5  C   UNL     1      25.003  12.091  37.789  0.00  0.00    +0.000 C 
ATOM      6  C   UNL     1      22.670  11.228  37.637  0.00  0.00    +0.000 A 
ATOM      7  C   UNL     1      21.336  11.296  37.967  0.00  0.00    +0.000 A 
ATOM      8  N   UNL     1      20.445  10.327  37.433  0.00  0.00    +0.000 NA
ATOM      9  N   UNL     1      20.902  12.275  38.786  0.00  0.00    +0.000 NA
ENDROOT
BRANCH   8  10
ATOM     10  C   UNL     1      19.072  10.409  37.781  0.00  0.00    +0.000 A 
ATOM     11  C   UNL     1      18.584   9.783  38.909  0.00  0.00    +0.000 A 
ATOM     12  C   UNL     1      17.273   9.855  39.251  0.00  0.00    +0.000 A 
ATOM     13  C   UNL     1      16.347  10.556  38.494  0.00  0.00    +0.000 A 
ATOM     14 CL   UNL     1      14.698  10.584  39.021  0.00  0.00    +0.000 Cl
ATOM     15  C   UNL     1      16.816  11.185  37.367  0.00  0.00    +0.000 A 
ATOM     16  C   UNL     1      18.151  11.107  37.027  0.00  0.00    +0.000 A 
ENDBRANCH   8  10
BRANCH   6  17
ATOM     17  C   UNL     1      23.115  10.168  36.756  0.00  0.00    +0.000 C 
ATOM     18  N   UNL     1      23.597   8.918  37.227  0.00  0.00    +0.000 NA
ATOM     19  O   UNL     1      23.081  10.344  35.518  0.00  0.00    +0.000 OA
ENDBRANCH   6  17
TORSDOF 2
ENDMDL
MODEL 9
REMARK VINA RESULT:      -5.3     17.896     18.843
REMARK  Name = 
REMARK  2 active torsions:
REMARK  status: ('A' for Active; 'I' for Inactive)
REMARK    1  A    between atoms: C_6  and  C_7
REMARK    2  A    between atoms: N_11  and  C_12
REMARK                            x       y       z     vdW  Elec       q    Type
REMARK                         _______ _______ _______ _____ _____    ______ ____
ROOT
ATOM      1  C   UNL     1      33.534   3.160  32.809  0.00  0.00    +0.000 C 
ATOM      2  C   UNL     1      33.814   3.047  34.276  0.00  0.00    +0.000 A 
ATOM      3  C   UNL     1      34.127   4.159  35.029  0.00  0.00    +0.000 A 
ATOM      4  C   UNL     1      34.392   4.107  36.380  0.00  0.00    +0.000 A 
ATOM      5  C   UNL     1      34.730   5.299  37.199  0.00  0.00    +0.000 C 
ATOM      6  C   UNL     1      34.333   2.847  36.993  0.00  0.00    +0.000 A 
ATOM      7  C   UNL     1      34.022   1.735  36.244  0.00  0.00    +0.000 A 
ATOM      8  N   UNL     1      33.969   0.468  36.885  0.00  0.00    +0.000 NA
ATOM      9  N   UNL     1      33.775   1.869  34.926  0.00  0.00    +0.000 NA
ENDROOT
BRANCH   8  10
ATOM     10  C   UNL     1      33.646  -0.670  36.102  0.00  0.00    +0.000 A 
ATOM     11  C   UNL     1      34.633  -1.468  35.562  0.00  0.00    +0.000 A 
ATOM     12  C   UNL     1      34.335  -2.558  34.811  0.00  0.00    +0.000 A 
ATOM     13  C   UNL     1      33.029  -2.937  34.542  0.00  0.00    +0.000 A 
ATOM     14 CL   UNL     1      32.760  -4.347  33.573  0.00  0.00    +0.000 Cl
ATOM     15  C   UNL     1      32.033  -2.155  35.072  0.00  0.00    +0.000 A 
ATOM     16  C   UNL     1      32.346  -1.047  35.834  0.00  0.00    +0.000 A 
ENDBRANCH   8  10
BRANCH   6  17
ATOM     17  C   UNL     1      34.596   2.682  38.408  0.00  0.00    +0.000 C 
ATOM     18  N   UNL     1      35.887   2.407  38.930  0.00  0.00    +0.000 NA
ATOM     19  O   UNL     1      33.653   2.785  39.224  0.00  0.00    +0.000 OA
ENDBRANCH   6  17
TORSDOF 2
ENDMDL
MODEL 10
REMARK VINA RESULT:      -5.3     21.031     21.663
REMARK  Name = 
REMARK  2 active torsions:
REMARK  status: ('A' for Active; 'I' for Inactive)
REMARK    1  A    between atoms: C_6  and  C_7
REMARK    2  A    between atoms: N_11  and  C_12
REMARK                            x       y       z     vdW  Elec       q    Type
REMARK                         _______ _______ _______ _____ _____    ______ ____
ROOT
ATOM      1  C   UNL     1      34.100  -0.157  32.732  0.00  0.00    +0.000 C 
ATOM      2  C   UNL     1      33.927  -1.218  33.776  0.00  0.00    +0.000 A 
ATOM      3  C   UNL     1      33.808  -0.891  35.111  0.00  0.00    +0.000 A 
ATOM      4  C   UNL     1      33.648  -1.829  36.107  0.00  0.00    +0.000 A 
ATOM      5  C   UNL     1      33.518  -1.486  37.546  0.00  0.00    +0.000 C 
ATOM      6  C   UNL     1      33.608  -3.175  35.715  0.00  0.00    +0.000 A 
ATOM      7  C   UNL     1      33.727  -3.504  34.384  0.00  0.00    +0.000 A 
ATOM      8  N   UNL     1      33.685  -4.874  34.009  0.00  0.00    +0.000 NA
ATOM      9  N   UNL     1      33.881  -2.527  33.468  0.00  0.00    +0.000 NA
ENDROOT
BRANCH   8  10
ATOM     10  C   UNL     1      33.809  -5.200  32.633  0.00  0.00    +0.000 A 
ATOM     11  C   UNL     1      32.719  -5.154  31.789  0.00  0.00    +0.000 A 
ATOM     12  C   UNL     1      32.827  -5.465  30.472  0.00  0.00    +0.000 A 
ATOM     13  C   UNL     1      34.030  -5.844  29.897  0.00  0.00    +0.000 A 
ATOM     14 CL   UNL     1      34.057  -6.218  28.206  0.00  0.00    +0.000 Cl
ATOM     15  C   UNL     1      35.125  -5.895  30.724  0.00  0.00    +0.000 A 
ATOM     16  C   UNL     1      35.006  -5.578  32.061  0.00  0.00    +0.000 A 
ENDBRANCH   8  10
BRANCH   6  17
ATOM     17  C   UNL     1      33.443  -4.239  36.683  0.00  0.00    +0.000 C 
ATOM     18  N   UNL     1      34.534  -4.846  37.361  0.00  0.00    +0.000 NA
ATOM     19  O   UNL     1      32.295  -4.656  36.950  0.00  0.00    +0.000 OA
ENDBRANCH   6  17
TORSDOF 2
ENDMDL
