MODEL 1
REMARK VINA RESULT:      -7.8      0.000      0.000
REMARK  Name = 
REMARK  10 active torsions:
REMARK  status: ('A' for Active; 'I' for Inactive)
REMARK    1  A    between atoms: C_2  and  C_3
REMARK    2  A    between atoms: C_3  and  C_4
REMARK    3  A    between atoms: C_4  and  N_5
REMARK    4  A    between atoms: N_5  and  C_6
REMARK    5  A    between atoms: C_11  and  C_12
REMARK    6  A    between atoms: C_12  and  O_14
REMARK    7  A    between atoms: O_14  and  C_15
REMARK    8  A    between atoms: C_15  and  C_17
REMARK    9  A    between atoms: N_19  and  C_20
REMARK   10  A    between atoms: C_25  and  C_26
REMARK                            x       y       z     vdW  Elec       q    Type
REMARK                         _______ _______ _______ _____ _____    ______ ____
ROOT
ATOM      1  C   UNL     1      39.276  -1.293  14.612  0.00  0.00    +0.000 C 
ATOM      2  C   UNL     1      39.652  -2.268  16.005  0.00  0.00    +0.000 C 
ENDROOT
BRANCH   1   3
ATOM      3  C   UNL     1      38.005  -2.324  14.341  0.00  0.00    +0.000 C 
ATOM      4  O   UNL     1      38.053  -2.961  13.303  0.00  0.00    +0.000 OA
ATOM      5  N   UNL     1      37.031  -2.354  15.250  0.00  0.00    +0.000 NA
BRANCH   5   6
ATOM      6  C   UNL     1      35.852  -3.095  15.196  0.00  0.00    +0.000 A 
ATOM      7  C   UNL     1      35.432  -4.050  14.346  0.00  0.00    +0.000 A 
ATOM      8  C   UNL     1      34.153  -4.608  14.429  0.00  0.00    +0.000 A 
ATOM      9  C   UNL     1      33.248  -4.214  15.382  0.00  0.00    +0.000 A 
ATOM     10  C   UNL     1      33.684  -3.226  16.262  0.00  0.00    +0.000 A 
ATOM     11  C   UNL     1      34.927  -2.666  16.204  0.00  0.00    +0.000 A 
BRANCH  11  12
ATOM     12  C   UNL     1      35.352  -1.637  17.113  0.00  0.00    +0.000 A 
ATOM     13  C   UNL     1      34.882  -0.360  17.067  0.00  0.00    +0.000 A 
ATOM     14  C   UNL     1      35.281   0.634  17.916  0.00  0.00    +0.000 A 
ATOM     15  C   UNL     1      36.225   0.307  18.883  0.00  0.00    +0.000 A 
ATOM     16  C   UNL     1      36.712  -0.972  18.943  0.00  0.00    +0.000 A 
ATOM     17  C   UNL     1      36.304  -1.962  18.087  0.00  0.00    +0.000 A 
ENDBRANCH  11  12
ENDBRANCH   5   6
ENDBRANCH   1   3
BRANCH   1  18
ATOM     18  O   UNL     1      38.428  -0.311  15.481  0.00  0.00    +0.000 OA
BRANCH  18  19
ATOM     19  C   UNL     1      38.252   0.852  14.785  0.00  0.00    +0.000 C 
ATOM     20  O   UNL     1      39.113   1.104  13.879  0.00  0.00    +0.000 OA
BRANCH  19  26
ATOM     21  C   UNL     1      37.384   3.066  15.488  0.00  0.00    +0.000 A 
ATOM     22  C   UNL     1      36.321   3.979  15.385  0.00  0.00    +0.000 A 
ATOM     23  C   UNL     1      35.118   3.628  14.805  0.00  0.00    +0.000 A 
ATOM     24  C   UNL     1      34.917   2.371  14.303  0.00  0.00    +0.000 A 
ATOM     25  C   UNL     1      35.959   1.492  14.402  0.00  0.00    +0.000 A 
ATOM     26  C   UNL     1      37.199   1.832  14.990  0.00  0.00    +0.000 A 
BRANCH  21  27
ATOM     27  N   UNL     1      38.593   3.362  16.175  0.00  0.00    +0.000 NA
BRANCH  27  28
ATOM     28  C   UNL     1      38.726   4.788  16.585  0.00  0.00    +0.000 C 
BRANCH  28  29
ATOM     29  C   UNL     1      38.763   4.780  18.139  0.00  0.00    +0.000 C 
BRANCH  29  31
ATOM     30  C   UNL     1      39.374   6.704  19.640  0.00  0.00    +0.000 C 
ATOM     31  C   UNL     1      39.890   5.731  18.585  0.00  0.00    +0.000 C 
ENDBRANCH  29  31
ENDBRANCH  28  29
ENDBRANCH  27  28
ENDBRANCH  21  27
ENDBRANCH  19  26
ENDBRANCH  18  19
ENDBRANCH   1  18
TORSDOF 10
ENDMDL
MODEL 2
REMARK VINA RESULT:      -7.4      2.404      5.107
REMARK  Name = 
REMARK  10 active torsions:
REMARK  status: ('A' for Active; 'I' for Inactive)
REMARK    1  A    between atoms: C_2  and  C_3
REMARK    2  A    between atoms: C_3  and  C_4
REMARK    3  A    between atoms: C_4  and  N_5
REMARK    4  A    between atoms: N_5  and  C_6
REMARK    5  A    between atoms: C_11  and  C_12
REMARK    6  A    between atoms: C_12  and  O_14
REMARK    7  A    between atoms: O_14  and  C_15
REMARK    8  A    between atoms: C_15  and  C_17
REMARK    9  A    between atoms: N_19  and  C_20
REMARK   10  A    between atoms: C_25  and  C_26
REMARK                            x       y       z     vdW  Elec       q    Type
REMARK                         _______ _______ _______ _____ _____    ______ ____
ROOT
ATOM      1  C   UNL     1      35.941   1.421  15.265  0.00  0.00    +0.000 C 
ATOM      2  C   UNL     1      36.579   0.295  14.099  0.00  0.00    +0.000 C 
ENDROOT
BRANCH   1   3
ATOM      3  C   UNL     1      36.013   0.186  16.369  0.00  0.00    +0.000 C 
ATOM      4  O   UNL     1      34.939  -0.227  16.771  0.00  0.00    +0.000 OA
ATOM      5  N   UNL     1      37.220  -0.234  16.747  0.00  0.00    +0.000 NA
BRANCH   5   6
ATOM      6  C   UNL     1      37.513  -1.209  17.697  0.00  0.00    +0.000 A 
ATOM      7  C   UNL     1      37.186  -1.319  18.998  0.00  0.00    +0.000 A 
ATOM      8  C   UNL     1      37.669  -2.357  19.800  0.00  0.00    +0.000 A 
ATOM      9  C   UNL     1      38.507  -3.326  19.310  0.00  0.00    +0.000 A 
ATOM     10  C   UNL     1      38.844  -3.212  17.963  0.00  0.00    +0.000 A 
ATOM     11  C   UNL     1      38.386  -2.210  17.158  0.00  0.00    +0.000 A 
BRANCH  11  12
ATOM     12  C   UNL     1      38.758  -2.103  15.774  0.00  0.00    +0.000 A 
ATOM     13  C   UNL     1      39.722  -1.253  15.324  0.00  0.00    +0.000 A 
ATOM     14  C   UNL     1      40.083  -1.130  14.011  0.00  0.00    +0.000 A 
ATOM     15  C   UNL     1      39.417  -1.928  13.089  0.00  0.00    +0.000 A 
ATOM     16  C   UNL     1      38.441  -2.788  13.521  0.00  0.00    +0.000 A 
ATOM     17  C   UNL     1      38.089  -2.904  14.841  0.00  0.00    +0.000 A 
ENDBRANCH  11  12
ENDBRANCH   5   6
ENDBRANCH   1   3
BRANCH   1  18
ATOM     18  O   UNL     1      37.374   1.943  15.600  0.00  0.00    +0.000 OA
BRANCH  18  19
ATOM     19  C   UNL     1      37.311   3.291  15.820  0.00  0.00    +0.000 C 
ATOM     20  O   UNL     1      36.208   3.859  15.528  0.00  0.00    +0.000 OA
BRANCH  19  26
ATOM     21  C   UNL     1      39.180   4.901  15.574  0.00  0.00    +0.000 A 
ATOM     22  C   UNL     1      39.985   5.849  16.225  0.00  0.00    +0.000 A 
ATOM     23  C   UNL     1      39.970   5.991  17.599  0.00  0.00    +0.000 A 
ATOM     24  C   UNL     1      39.162   5.210  18.380  0.00  0.00    +0.000 A 
ATOM     25  C   UNL     1      38.378   4.294  17.735  0.00  0.00    +0.000 A 
ATOM     26  C   UNL     1      38.377   4.135  16.331  0.00  0.00    +0.000 A 
BRANCH  21  27
ATOM     27  N   UNL     1      39.253   4.657  14.174  0.00  0.00    +0.000 NA
BRANCH  27  28
ATOM     28  C   UNL     1      40.543   4.063  13.727  0.00  0.00    +0.000 C 
BRANCH  28  29
ATOM     29  C   UNL     1      40.250   2.560  13.463  0.00  0.00    +0.000 C 
BRANCH  29  31
ATOM     30  C   UNL     1      39.313   1.451  11.408  0.00  0.00    +0.000 C 
ATOM     31  C   UNL     1      39.048   2.479  12.503  0.00  0.00    +0.000 C 
ENDBRANCH  29  31
ENDBRANCH  28  29
ENDBRANCH  27  28
ENDBRANCH  21  27
ENDBRANCH  19  26
ENDBRANCH  18  19
ENDBRANCH   1  18
TORSDOF 10
ENDMDL
MODEL 3
REMARK VINA RESULT:      -7.4      1.858      3.671
REMARK  Name = 
REMARK  10 active torsions:
REMARK  status: ('A' for Active; 'I' for Inactive)
REMARK    1  A    between atoms: C_2  and  C_3
REMARK    2  A    between atoms: C_3  and  C_4
REMARK    3  A    between atoms: C_4  and  N_5
REMARK    4  A    between atoms: N_5  and  C_6
REMARK    5  A    between atoms: C_11  and  C_12
REMARK    6  A    between atoms: C_12  and  O_14
REMARK    7  A    between atoms: O_14  and  C_15
REMARK    8  A    between atoms: C_15  and  C_17
REMARK    9  A    between atoms: N_19  and  C_20
REMARK   10  A    between atoms: C_25  and  C_26
REMARK                            x       y       z     vdW  Elec       q    Type
REMARK                         _______ _______ _______ _____ _____    ______ ____
ROOT
ATOM      1  C   UNL     1      39.403  -1.724  14.771  0.00  0.00    +0.000 C 
ATOM      2  C   UNL     1      39.701  -2.806  16.103  0.00  0.00    +0.000 C 
ENDROOT
BRANCH   1   3
ATOM      3  C   UNL     1      38.068  -2.648  14.432  0.00  0.00    +0.000 C 
ATOM      4  O   UNL     1      38.086  -3.229  13.361  0.00  0.00    +0.000 OA
ATOM      5  N   UNL     1      37.082  -2.659  15.328  0.00  0.00    +0.000 NA
BRANCH   5   6
ATOM      6  C   UNL     1      35.856  -3.312  15.222  0.00  0.00    +0.000 A 
ATOM      7  C   UNL     1      35.412  -4.253  14.369  0.00  0.00    +0.000 A 
ATOM      8  C   UNL     1      34.093  -4.713  14.391  0.00  0.00    +0.000 A 
ATOM      9  C   UNL     1      33.169  -4.232  15.283  0.00  0.00    +0.000 A 
ATOM     10  C   UNL     1      33.629  -3.259  16.168  0.00  0.00    +0.000 A 
ATOM     11  C   UNL     1      34.912  -2.793  16.169  0.00  0.00    +0.000 A 
BRANCH  11  12
ATOM     12  C   UNL     1      35.363  -1.778  17.081  0.00  0.00    +0.000 A 
ATOM     13  C   UNL     1      36.272  -2.012  18.068  0.00  0.00    +0.000 A 
ATOM     14  C   UNL     1      36.705  -1.062  18.950  0.00  0.00    +0.000 A 
ATOM     15  C   UNL     1      36.177   0.218  18.821  0.00  0.00    +0.000 A 
ATOM     16  C   UNL     1      35.259   0.471  17.836  0.00  0.00    +0.000 A 
ATOM     17  C   UNL     1      34.833  -0.489  16.955  0.00  0.00    +0.000 A 
ENDBRANCH  11  12
ENDBRANCH   5   6
ENDBRANCH   1   3
BRANCH   1  18
ATOM     18  O   UNL     1      38.616  -0.741  15.695  0.00  0.00    +0.000 OA
BRANCH  18  19
ATOM     19  C   UNL     1      38.679   0.514  15.157  0.00  0.00    +0.000 C 
ATOM     20  O   UNL     1      39.839   0.935  14.840  0.00  0.00    +0.000 OA
BRANCH  19  26
ATOM     21  C   UNL     1      36.543   1.181  14.089  0.00  0.00    +0.000 A 
ATOM     22  C   UNL     1      35.418   2.017  14.173  0.00  0.00    +0.000 A 
ATOM     23  C   UNL     1      35.354   3.055  15.081  0.00  0.00    +0.000 A 
ATOM     24  C   UNL     1      36.388   3.308  15.939  0.00  0.00    +0.000 A 
ATOM     25  C   UNL     1      37.477   2.484  15.853  0.00  0.00    +0.000 A 
ATOM     26  C   UNL     1      37.562   1.415  14.933  0.00  0.00    +0.000 A 
BRANCH  21  27
ATOM     27  N   UNL     1      36.684   0.173  13.095  0.00  0.00    +0.000 NA
BRANCH  27  28
ATOM     28  C   UNL     1      36.723   0.696  11.701  0.00  0.00    +0.000 C 
BRANCH  28  29
ATOM     29  C   UNL     1      38.229   0.799  11.330  0.00  0.00    +0.000 C 
BRANCH  29  31
ATOM     30  C   UNL     1      36.931   1.586   9.323  0.00  0.00    +0.000 C 
ATOM     31  C   UNL     1      38.319   1.252   9.860  0.00  0.00    +0.000 C 
ENDBRANCH  29  31
ENDBRANCH  28  29
ENDBRANCH  27  28
ENDBRANCH  21  27
ENDBRANCH  19  26
ENDBRANCH  18  19
ENDBRANCH   1  18
TORSDOF 10
ENDMDL
MODEL 4
REMARK VINA RESULT:      -7.2      2.316      4.350
REMARK  Name = 
REMARK  10 active torsions:
REMARK  status: ('A' for Active; 'I' for Inactive)
REMARK    1  A    between atoms: C_2  and  C_3
REMARK    2  A    between atoms: C_3  and  C_4
REMARK    3  A    between atoms: C_4  and  N_5
REMARK    4  A    between atoms: N_5  and  C_6
REMARK    5  A    between atoms: C_11  and  C_12
REMARK    6  A    between atoms: C_12  and  O_14
REMARK    7  A    between atoms: O_14  and  C_15
REMARK    8  A    between atoms: C_15  and  C_17
REMARK    9  A    between atoms: N_19  and  C_20
REMARK   10  A    between atoms: C_25  and  C_26
REMARK                            x       y       z     vdW  Elec       q    Type
REMARK                         _______ _______ _______ _____ _____    ______ ____
ROOT
ATOM      1  C   UNL     1      35.399   0.873  16.085  0.00  0.00    +0.000 C 
ATOM      2  C   UNL     1      35.977  -0.174  14.819  0.00  0.00    +0.000 C 
ENDROOT
BRANCH   1   3
ATOM      3  C   UNL     1      35.691  -0.378  17.134  0.00  0.00    +0.000 C 
ATOM      4  O   UNL     1      34.703  -0.911  17.608  0.00  0.00    +0.000 OA
ATOM      5  N   UNL     1      36.962  -0.680  17.395  0.00  0.00    +0.000 NA
BRANCH   5   6
ATOM      6  C   UNL     1      37.433  -1.645  18.283  0.00  0.00    +0.000 A 
ATOM      7  C   UNL     1      37.270  -1.797  19.610  0.00  0.00    +0.000 A 
ATOM      8  C   UNL     1      37.916  -2.809  20.327  0.00  0.00    +0.000 A 
ATOM      9  C   UNL     1      38.756  -3.707  19.720  0.00  0.00    +0.000 A 
ATOM     10  C   UNL     1      38.924  -3.550  18.346  0.00  0.00    +0.000 A 
ATOM     11  C   UNL     1      38.304  -2.572  17.622  0.00  0.00    +0.000 A 
BRANCH  11  12
ATOM     12  C   UNL     1      38.502  -2.418  16.207  0.00  0.00    +0.000 A 
ATOM     13  C   UNL     1      39.334  -1.485  15.667  0.00  0.00    +0.000 A 
ATOM     14  C   UNL     1      39.528  -1.318  14.324  0.00  0.00    +0.000 A 
ATOM     15  C   UNL     1      38.826  -2.158  13.468  0.00  0.00    +0.000 A 
ATOM     16  C   UNL     1      37.982  -3.102  13.993  0.00  0.00    +0.000 A 
ATOM     17  C   UNL     1      37.796  -3.262  15.342  0.00  0.00    +0.000 A 
ENDBRANCH  11  12
ENDBRANCH   5   6
ENDBRANCH   1   3
BRANCH   1  18
ATOM     18  O   UNL     1      36.819   1.496  16.269  0.00  0.00    +0.000 OA
BRANCH  18  19
ATOM     19  C   UNL     1      36.753   2.833  15.992  0.00  0.00    +0.000 C 
ATOM     20  O   UNL     1      35.615   3.386  16.150  0.00  0.00    +0.000 OA
BRANCH  19  26
ATOM     21  C   UNL     1      38.598   4.460  16.300  0.00  0.00    +0.000 A 
ATOM     22  C   UNL     1      39.764   5.008  15.741  0.00  0.00    +0.000 A 
ATOM     23  C   UNL     1      40.123   4.762  14.431  0.00  0.00    +0.000 A 
ATOM     24  C   UNL     1      39.354   3.969  13.624  0.00  0.00    +0.000 A 
ATOM     25  C   UNL     1      38.224   3.436  14.180  0.00  0.00    +0.000 A 
ATOM     26  C   UNL     1      37.839   3.673  15.519  0.00  0.00    +0.000 A 
BRANCH  21  27
ATOM     27  N   UNL     1      38.144   4.780  17.610  0.00  0.00    +0.000 NA
BRANCH  27  28
ATOM     28  C   UNL     1      39.215   5.274  18.519  0.00  0.00    +0.000 C 
BRANCH  28  29
ATOM     29  C   UNL     1      38.834   6.740  18.866  0.00  0.00    +0.000 C 
BRANCH  29  31
ATOM     30  C   UNL     1      41.009   6.668  20.129  0.00  0.00    +0.000 C 
ATOM     31  C   UNL     1      39.551   7.113  20.178  0.00  0.00    +0.000 C 
ENDBRANCH  29  31
ENDBRANCH  28  29
ENDBRANCH  27  28
ENDBRANCH  21  27
ENDBRANCH  19  26
ENDBRANCH  18  19
ENDBRANCH   1  18
TORSDOF 10
ENDMDL
MODEL 5
REMARK VINA RESULT:      -7.1      2.389      4.969
REMARK  Name = 
REMARK  10 active torsions:
REMARK  status: ('A' for Active; 'I' for Inactive)
REMARK    1  A    between atoms: C_2  and  C_3
REMARK    2  A    between atoms: C_3  and  C_4
REMARK    3  A    between atoms: C_4  and  N_5
REMARK    4  A    between atoms: N_5  and  C_6
REMARK    5  A    between atoms: C_11  and  C_12
REMARK    6  A    between atoms: C_12  and  O_14
REMARK    7  A    between atoms: O_14  and  C_15
REMARK    8  A    between atoms: C_15  and  C_17
REMARK    9  A    between atoms: N_19  and  C_20
REMARK   10  A    between atoms: C_25  and  C_26
REMARK                            x       y       z     vdW  Elec       q    Type
REMARK                         _______ _______ _______ _____ _____    ______ ____
ROOT
ATOM      1  C   UNL     1      35.828   1.355  15.556  0.00  0.00    +0.000 C 
ATOM      2  C   UNL     1      36.390   0.279  14.307  0.00  0.00    +0.000 C 
ENDROOT
BRANCH   1   3
ATOM      3  C   UNL     1      35.957   0.072  16.599  0.00  0.00    +0.000 C 
ATOM      4  O   UNL     1      34.904  -0.416  16.970  0.00  0.00    +0.000 OA
ATOM      5  N   UNL     1      37.182  -0.301  16.968  0.00  0.00    +0.000 NA
BRANCH   5   6
ATOM      6  C   UNL     1      37.520  -1.304  17.873  0.00  0.00    +0.000 A 
ATOM      7  C   UNL     1      37.258  -1.453  19.185  0.00  0.00    +0.000 A 
ATOM      8  C   UNL     1      37.778  -2.516  19.930  0.00  0.00    +0.000 A 
ATOM      9  C   UNL     1      38.588  -3.470  19.370  0.00  0.00    +0.000 A 
ATOM     10  C   UNL     1      38.858  -3.316  18.012  0.00  0.00    +0.000 A 
ATOM     11  C   UNL     1      38.362  -2.290  17.261  0.00  0.00    +0.000 A 
BRANCH  11  12
ATOM     12  C   UNL     1      38.665  -2.141  15.864  0.00  0.00    +0.000 A 
ATOM     13  C   UNL     1      39.581  -1.253  15.388  0.00  0.00    +0.000 A 
ATOM     14  C   UNL     1      39.875  -1.091  14.063  0.00  0.00    +0.000 A 
ATOM     15  C   UNL     1      39.189  -1.889  13.155  0.00  0.00    +0.000 A 
ATOM     16  C   UNL     1      38.262  -2.787  13.613  0.00  0.00    +0.000 A 
ATOM     17  C   UNL     1      37.976  -2.942  14.945  0.00  0.00    +0.000 A 
ENDBRANCH  11  12
ENDBRANCH   5   6
ENDBRANCH   1   3
BRANCH   1  18
ATOM     18  O   UNL     1      37.280   1.858  15.829  0.00  0.00    +0.000 OA
BRANCH  18  19
ATOM     19  C   UNL     1      37.255   3.217  15.971  0.00  0.00    +0.000 C 
ATOM     20  O   UNL     1      36.172   3.800  15.637  0.00  0.00    +0.000 OA
BRANCH  19  26
ATOM     21  C   UNL     1      39.244   4.663  15.652  0.00  0.00    +0.000 A 
ATOM     22  C   UNL     1      40.069   5.641  16.230  0.00  0.00    +0.000 A 
ATOM     23  C   UNL     1      39.975   5.970  17.567  0.00  0.00    +0.000 A 
ATOM     24  C   UNL     1      39.065   5.354  18.383  0.00  0.00    +0.000 A 
ATOM     25  C   UNL     1      38.263   4.408  17.810  0.00  0.00    +0.000 A 
ATOM     26  C   UNL     1      38.342   4.057  16.443  0.00  0.00    +0.000 A 
BRANCH  21  27
ATOM     27  N   UNL     1      39.390   4.225  14.306  0.00  0.00    +0.000 NA
BRANCH  27  28
ATOM     28  C   UNL     1      39.345   5.324  13.302  0.00  0.00    +0.000 C 
BRANCH  28  29
ATOM     29  C   UNL     1      37.992   5.161  12.555  0.00  0.00    +0.000 C 
BRANCH  29  31
ATOM     30  C   UNL     1      35.579   5.862  12.668  0.00  0.00    +0.000 C 
ATOM     31  C   UNL     1      36.985   6.137  13.191  0.00  0.00    +0.000 C 
ENDBRANCH  29  31
ENDBRANCH  28  29
ENDBRANCH  27  28
ENDBRANCH  21  27
ENDBRANCH  19  26
ENDBRANCH  18  19
ENDBRANCH   1  18
TORSDOF 10
ENDMDL
MODEL 6
REMARK VINA RESULT:      -6.9      2.474      5.308
REMARK  Name = 
REMARK  10 active torsions:
REMARK  status: ('A' for Active; 'I' for Inactive)
REMARK    1  A    between atoms: C_2  and  C_3
REMARK    2  A    between atoms: C_3  and  C_4
REMARK    3  A    between atoms: C_4  and  N_5
REMARK    4  A    between atoms: N_5  and  C_6
REMARK    5  A    between atoms: C_11  and  C_12
REMARK    6  A    between atoms: C_12  and  O_14
REMARK    7  A    between atoms: O_14  and  C_15
REMARK    8  A    between atoms: C_15  and  C_17
REMARK    9  A    between atoms: N_19  and  C_20
REMARK   10  A    between atoms: C_25  and  C_26
REMARK                            x       y       z     vdW  Elec       q    Type
REMARK                         _______ _______ _______ _____ _____    ______ ____
ROOT
ATOM      1  C   UNL     1      37.784   3.554  15.308  0.00  0.00    +0.000 C 
ATOM      2  C   UNL     1      38.952   2.324  14.912  0.00  0.00    +0.000 C 
ENDROOT
BRANCH   1   3
ATOM      3  C   UNL     1      36.957   2.380  16.138  0.00  0.00    +0.000 C 
ATOM      4  O   UNL     1      36.917   2.517  17.348  0.00  0.00    +0.000 OA
ATOM      5  N   UNL     1      36.434   1.378  15.432  0.00  0.00    +0.000 NA
BRANCH   5   6
ATOM      6  C   UNL     1      35.757   0.265  15.924  0.00  0.00    +0.000 A 
ATOM      7  C   UNL     1      34.822   0.136  16.884  0.00  0.00    +0.000 A 
ATOM      8  C   UNL     1      34.334  -1.111  17.283  0.00  0.00    +0.000 A 
ATOM      9  C   UNL     1      34.779  -2.281  16.721  0.00  0.00    +0.000 A 
ATOM     10  C   UNL     1      35.745  -2.147  15.726  0.00  0.00    +0.000 A 
ATOM     11  C   UNL     1      36.238  -0.942  15.317  0.00  0.00    +0.000 A 
BRANCH  11  12
ATOM     12  C   UNL     1      37.246  -0.827  14.300  0.00  0.00    +0.000 A 
ATOM     13  C   UNL     1      38.534  -1.234  14.475  0.00  0.00    +0.000 A 
ATOM     14  C   UNL     1      39.508  -1.125  13.523  0.00  0.00    +0.000 A 
ATOM     15  C   UNL     1      39.149  -0.561  12.304  0.00  0.00    +0.000 A 
ATOM     16  C   UNL     1      37.859  -0.143  12.109  0.00  0.00    +0.000 A 
ATOM     17  C   UNL     1      36.889  -0.259  13.071  0.00  0.00    +0.000 A 
ENDBRANCH  11  12
ENDBRANCH   5   6
ENDBRANCH   1   3
BRANCH   1  18
ATOM     18  O   UNL     1      38.615   3.996  16.554  0.00  0.00    +0.000 OA
BRANCH  18  19
ATOM     19  C   UNL     1      38.959   5.311  16.408  0.00  0.00    +0.000 C 
ATOM     20  O   UNL     1      38.144   6.039  15.753  0.00  0.00    +0.000 OA
BRANCH  19  26
ATOM     21  C   UNL     1      40.443   6.161  18.204  0.00  0.00    +0.000 A 
ATOM     22  C   UNL     1      41.751   6.549  18.538  0.00  0.00    +0.000 A 
ATOM     23  C   UNL     1      42.724   6.720  17.574  0.00  0.00    +0.000 A 
ATOM     24  C   UNL     1      42.451   6.515  16.250  0.00  0.00    +0.000 A 
ATOM     25  C   UNL     1      41.176   6.132  15.935  0.00  0.00    +0.000 A 
ATOM     26  C   UNL     1      40.166   5.948  16.906  0.00  0.00    +0.000 A 
BRANCH  21  27
ATOM     27  N   UNL     1      39.393   6.080  19.159  0.00  0.00    +0.000 NA
BRANCH  27  28
ATOM     28  C   UNL     1      38.592   7.330  19.288  0.00  0.00    +0.000 C 
BRANCH  28  29
ATOM     29  C   UNL     1      39.001   7.955  20.651  0.00  0.00    +0.000 C 
BRANCH  29  31
ATOM     30  C   UNL     1      38.638  10.409  21.075  0.00  0.00    +0.000 C 
ATOM     31  C   UNL     1      39.520   9.379  20.376  0.00  0.00    +0.000 C 
ENDBRANCH  29  31
ENDBRANCH  28  29
ENDBRANCH  27  28
ENDBRANCH  21  27
ENDBRANCH  19  26
ENDBRANCH  18  19
ENDBRANCH   1  18
TORSDOF 10
ENDMDL
MODEL 7
REMARK VINA RESULT:      -6.9      2.102      7.757
REMARK  Name = 
REMARK  10 active torsions:
REMARK  status: ('A' for Active; 'I' for Inactive)
REMARK    1  A    between atoms: C_2  and  C_3
REMARK    2  A    between atoms: C_3  and  C_4
REMARK    3  A    between atoms: C_4  and  N_5
REMARK    4  A    between atoms: N_5  and  C_6
REMARK    5  A    between atoms: C_11  and  C_12
REMARK    6  A    between atoms: C_12  and  O_14
REMARK    7  A    between atoms: O_14  and  C_15
REMARK    8  A    between atoms: C_15  and  C_17
REMARK    9  A    between atoms: N_19  and  C_20
REMARK   10  A    between atoms: C_25  and  C_26
REMARK                            x       y       z     vdW  Elec       q    Type
REMARK                         _______ _______ _______ _____ _____    ______ ____
ROOT
ATOM      1  C   UNL     1      35.956   2.404  14.780  0.00  0.00    +0.000 C 
ATOM      2  C   UNL     1      34.616   2.912  15.769  0.00  0.00    +0.000 C 
ENDROOT
BRANCH   1   3
ATOM      3  C   UNL     1      36.945   2.904  16.014  0.00  0.00    +0.000 C 
ATOM      4  O   UNL     1      36.900   2.235  17.032  0.00  0.00    +0.000 OA
ATOM      5  N   UNL     1      37.678   3.998  15.812  0.00  0.00    +0.000 NA
BRANCH   5   6
ATOM      6  C   UNL     1      38.525   4.624  16.723  0.00  0.00    +0.000 A 
ATOM      7  C   UNL     1      38.464   4.753  18.062  0.00  0.00    +0.000 A 
ATOM      8  C   UNL     1      39.394   5.512  18.778  0.00  0.00    +0.000 A 
ATOM      9  C   UNL     1      40.425   6.171  18.161  0.00  0.00    +0.000 A 
ATOM     10  C   UNL     1      40.490   6.037  16.776  0.00  0.00    +0.000 A 
ATOM     11  C   UNL     1      39.596   5.302  16.052  0.00  0.00    +0.000 A 
BRANCH  11  12
ATOM     12  C   UNL     1      39.672   5.187  14.621  0.00  0.00    +0.000 A 
ATOM     13  C   UNL     1      40.190   4.100  13.986  0.00  0.00    +0.000 A 
ATOM     14  C   UNL     1      40.280   3.978  12.627  0.00  0.00    +0.000 A 
ATOM     15  C   UNL     1      39.809   5.035  11.858  0.00  0.00    +0.000 A 
ATOM     16  C   UNL     1      39.286   6.139  12.479  0.00  0.00    +0.000 A 
ATOM     17  C   UNL     1      39.199   6.251  13.843  0.00  0.00    +0.000 A 
ENDBRANCH  11  12
ENDBRANCH   5   6
ENDBRANCH   1   3
BRANCH   1  18
ATOM     18  O   UNL     1      35.849   0.943  15.319  0.00  0.00    +0.000 OA
BRANCH  18  19
ATOM     19  C   UNL     1      36.694   0.145  14.599  0.00  0.00    +0.000 C 
ATOM     20  O   UNL     1      36.639   0.265  13.331  0.00  0.00    +0.000 OA
BRANCH  19  26
ATOM     21  C   UNL     1      37.288  -2.056  15.572  0.00  0.00    +0.000 A 
ATOM     22  C   UNL     1      38.324  -2.973  15.816  0.00  0.00    +0.000 A 
ATOM     23  C   UNL     1      39.649  -2.636  15.625  0.00  0.00    +0.000 A 
ATOM     24  C   UNL     1      40.005  -1.389  15.187  0.00  0.00    +0.000 A 
ATOM     25  C   UNL     1      38.989  -0.506  14.947  0.00  0.00    +0.000 A 
ATOM     26  C   UNL     1      37.626  -0.832  15.133  0.00  0.00    +0.000 A 
BRANCH  21  27
ATOM     27  N   UNL     1      35.924  -2.337  15.861  0.00  0.00    +0.000 NA
BRANCH  27  28
ATOM     28  C   UNL     1      35.625  -2.467  17.314  0.00  0.00    +0.000 C 
BRANCH  28  29
ATOM     29  C   UNL     1      34.821  -1.193  17.696  0.00  0.00    +0.000 C 
BRANCH  29  31
ATOM     30  C   UNL     1      36.874  -1.222  19.150  0.00  0.00    +0.000 C 
ATOM     31  C   UNL     1      35.564  -0.499  18.853  0.00  0.00    +0.000 C 
ENDBRANCH  29  31
ENDBRANCH  28  29
ENDBRANCH  27  28
ENDBRANCH  21  27
ENDBRANCH  19  26
ENDBRANCH  18  19
ENDBRANCH   1  18
TORSDOF 10
ENDMDL
MODEL 8
REMARK VINA RESULT:      -6.7      1.989      4.630
REMARK  Name = 
REMARK  10 active torsions:
REMARK  status: ('A' for Active; 'I' for Inactive)
REMARK    1  A    between atoms: C_2  and  C_3
REMARK    2  A    between atoms: C_3  and  C_4
REMARK    3  A    between atoms: C_4  and  N_5
REMARK    4  A    between atoms: N_5  and  C_6
REMARK    5  A    between atoms: C_11  and  C_12
REMARK    6  A    between atoms: C_12  and  O_14
REMARK    7  A    between atoms: O_14  and  C_15
REMARK    8  A    between atoms: C_15  and  C_17
REMARK    9  A    between atoms: N_19  and  C_20
REMARK   10  A    between atoms: C_25  and  C_26
REMARK                            x       y       z     vdW  Elec       q    Type
REMARK                         _______ _______ _______ _____ _____    ______ ____
ROOT
ATOM      1  C   UNL     1      36.942   2.209  14.783  0.00  0.00    +0.000 C 
ATOM      2  C   UNL     1      37.551   2.693  13.225  0.00  0.00    +0.000 C 
ENDROOT
BRANCH   1   3
ATOM      3  C   UNL     1      37.673   0.743  14.516  0.00  0.00    +0.000 C 
ATOM      4  O   UNL     1      37.369   0.182  13.478  0.00  0.00    +0.000 OA
ATOM      5  N   UNL     1      38.500   0.287  15.456  0.00  0.00    +0.000 NA
BRANCH   5   6
ATOM      6  C   UNL     1      39.169  -0.934  15.468  0.00  0.00    +0.000 A 
ATOM      7  C   UNL     1      40.264  -1.363  14.812  0.00  0.00    +0.000 A 
ATOM      8  C   UNL     1      40.720  -2.681  14.909  0.00  0.00    +0.000 A 
ATOM      9  C   UNL     1      40.078  -3.618  15.678  0.00  0.00    +0.000 A 
ATOM     10  C   UNL     1      38.946  -3.174  16.358  0.00  0.00    +0.000 A 
ATOM     11  C   UNL     1      38.480  -1.893  16.281  0.00  0.00    +0.000 A 
BRANCH  11  12
ATOM     12  C   UNL     1      37.301  -1.459  16.979  0.00  0.00    +0.000 A 
ATOM     13  C   UNL     1      37.333  -0.887  18.215  0.00  0.00    +0.000 A 
ATOM     14  C   UNL     1      36.222  -0.478  18.898  0.00  0.00    +0.000 A 
ATOM     15  C   UNL     1      34.990  -0.661  18.282  0.00  0.00    +0.000 A 
ATOM     16  C   UNL     1      34.937  -1.237  17.040  0.00  0.00    +0.000 A 
ATOM     17  C   UNL     1      36.058  -1.643  16.363  0.00  0.00    +0.000 A 
ENDBRANCH  11  12
ENDBRANCH   5   6
ENDBRANCH   1   3
BRANCH   1  18
ATOM     18  O   UNL     1      38.189   2.816  15.501  0.00  0.00    +0.000 OA
BRANCH  18  19
ATOM     19  C   UNL     1      37.764   3.547  16.576  0.00  0.00    +0.000 C 
ATOM     20  O   UNL     1      36.833   3.030  17.277  0.00  0.00    +0.000 OA
BRANCH  19  26
ATOM     21  C   UNL     1      38.046   5.995  16.301  0.00  0.00    +0.000 A 
ATOM     22  C   UNL     1      38.355   7.204  16.944  0.00  0.00    +0.000 A 
ATOM     23  C   UNL     1      38.864   7.232  18.227  0.00  0.00    +0.000 A 
ATOM     24  C   UNL     1      39.086   6.076  18.925  0.00  0.00    +0.000 A 
ATOM     25  C   UNL     1      38.777   4.905  18.291  0.00  0.00    +0.000 A 
ATOM     26  C   UNL     1      38.252   4.854  16.980  0.00  0.00    +0.000 A 
BRANCH  21  27
ATOM     27  N   UNL     1      37.623   5.927  14.945  0.00  0.00    +0.000 NA
BRANCH  27  28
ATOM     28  C   UNL     1      36.405   6.733  14.647  0.00  0.00    +0.000 C 
BRANCH  28  29
ATOM     29  C   UNL     1      35.343   5.721  14.133  0.00  0.00    +0.000 C 
BRANCH  29  31
ATOM     30  C   UNL     1      34.027   7.829  14.526  0.00  0.00    +0.000 C 
ATOM     31  C   UNL     1      34.085   6.520  13.745  0.00  0.00    +0.000 C 
ENDBRANCH  29  31
ENDBRANCH  28  29
ENDBRANCH  27  28
ENDBRANCH  21  27
ENDBRANCH  19  26
ENDBRANCH  18  19
ENDBRANCH   1  18
TORSDOF 10
ENDMDL
MODEL 9
REMARK VINA RESULT:      -6.6      1.930      7.630
REMARK  Name = 
REMARK  10 active torsions:
REMARK  status: ('A' for Active; 'I' for Inactive)
REMARK    1  A    between atoms: C_2  and  C_3
REMARK    2  A    between atoms: C_3  and  C_4
REMARK    3  A    between atoms: C_4  and  N_5
REMARK    4  A    between atoms: N_5  and  C_6
REMARK    5  A    between atoms: C_11  and  C_12
REMARK    6  A    between atoms: C_12  and  O_14
REMARK    7  A    between atoms: O_14  and  C_15
REMARK    8  A    between atoms: C_15  and  C_17
REMARK    9  A    between atoms: N_19  and  C_20
REMARK   10  A    between atoms: C_25  and  C_26
REMARK                            x       y       z     vdW  Elec       q    Type
REMARK                         _______ _______ _______ _____ _____    ______ ____
ROOT
ATOM      1  C   UNL     1      36.812   1.430  15.209  0.00  0.00    +0.000 C 
ATOM      2  C   UNL     1      35.444   2.306  14.583  0.00  0.00    +0.000 C 
ENDROOT
BRANCH   1   3
ATOM      3  C   UNL     1      37.005   2.673  16.290  0.00  0.00    +0.000 C 
ATOM      4  O   UNL     1      36.167   2.740  17.173  0.00  0.00    +0.000 OA
ATOM      5  N   UNL     1      38.026   3.505  16.096  0.00  0.00    +0.000 NA
BRANCH   5   6
ATOM      6  C   UNL     1      38.339   4.641  16.840  0.00  0.00    +0.000 A 
ATOM      7  C   UNL     1      38.778   4.792  18.104  0.00  0.00    +0.000 A 
ATOM      8  C   UNL     1      38.947   6.052  18.685  0.00  0.00    +0.000 A 
ATOM      9  C   UNL     1      38.675   7.211  18.003  0.00  0.00    +0.000 A 
ATOM     10  C   UNL     1      38.223   7.054  16.695  0.00  0.00    +0.000 A 
ATOM     11  C   UNL     1      38.050   5.836  16.103  0.00  0.00    +0.000 A 
BRANCH  11  12
ATOM     12  C   UNL     1      37.569   5.696  14.756  0.00  0.00    +0.000 A 
ATOM     13  C   UNL     1      36.262   5.860  14.410  0.00  0.00    +0.000 A 
ATOM     14  C   UNL     1      35.783   5.722  13.137  0.00  0.00    +0.000 A 
ATOM     15  C   UNL     1      36.698   5.392  12.143  0.00  0.00    +0.000 A 
ATOM     16  C   UNL     1      38.017   5.220  12.472  0.00  0.00    +0.000 A 
ATOM     17  C   UNL     1      38.486   5.363  13.753  0.00  0.00    +0.000 A 
ENDBRANCH  11  12
ENDBRANCH   5   6
ENDBRANCH   1   3
BRANCH   1  18
ATOM     18  O   UNL     1      35.894   0.603  16.164  0.00  0.00    +0.000 OA
BRANCH  18  19
ATOM     19  C   UNL     1      36.425  -0.649  16.309  0.00  0.00    +0.000 C 
ATOM     20  O   UNL     1      37.364  -0.768  17.162  0.00  0.00    +0.000 OA
BRANCH  19  26
ATOM     21  C   UNL     1      36.800  -2.460  14.658  0.00  0.00    +0.000 A 
ATOM     22  C   UNL     1      36.401  -3.736  14.228  0.00  0.00    +0.000 A 
ATOM     23  C   UNL     1      35.261  -4.341  14.717  0.00  0.00    +0.000 A 
ATOM     24  C   UNL     1      34.474  -3.717  15.647  0.00  0.00    +0.000 A 
ATOM     25  C   UNL     1      34.873  -2.478  16.062  0.00  0.00    +0.000 A 
ATOM     26  C   UNL     1      36.038  -1.842  15.576  0.00  0.00    +0.000 A 
BRANCH  21  27
ATOM     27  N   UNL     1      37.907  -1.766  14.095  0.00  0.00    +0.000 NA
BRANCH  27  28
ATOM     28  C   UNL     1      39.187  -2.526  14.140  0.00  0.00    +0.000 C 
BRANCH  28  29
ATOM     29  C   UNL     1      40.101  -1.758  15.135  0.00  0.00    +0.000 C 
BRANCH  29  31
ATOM     30  C   UNL     1      41.123   0.075  13.747  0.00  0.00    +0.000 C 
ATOM     31  C   UNL     1      40.041  -0.263  14.768  0.00  0.00    +0.000 C 
ENDBRANCH  29  31
ENDBRANCH  28  29
ENDBRANCH  27  28
ENDBRANCH  21  27
ENDBRANCH  19  26
ENDBRANCH  18  19
ENDBRANCH   1  18
TORSDOF 10
ENDMDL
MODEL 10
REMARK VINA RESULT:      -6.6      2.053      4.488
REMARK  Name = 
REMARK  10 active torsions:
REMARK  status: ('A' for Active; 'I' for Inactive)
REMARK    1  A    between atoms: C_2  and  C_3
REMARK    2  A    between atoms: C_3  and  C_4
REMARK    3  A    between atoms: C_4  and  N_5
REMARK    4  A    between atoms: N_5  and  C_6
REMARK    5  A    between atoms: C_11  and  C_12
REMARK    6  A    between atoms: C_12  and  O_14
REMARK    7  A    between atoms: O_14  and  C_15
REMARK    8  A    between atoms: C_15  and  C_17
REMARK    9  A    between atoms: N_19  and  C_20
REMARK   10  A    between atoms: C_25  and  C_26
REMARK                            x       y       z     vdW  Elec       q    Type
REMARK                         _______ _______ _______ _____ _____    ______ ____
ROOT
ATOM      1  C   UNL     1      37.226   2.492  14.788  0.00  0.00    +0.000 C 
ATOM      2  C   UNL     1      37.884   3.130  13.307  0.00  0.00    +0.000 C 
ENDROOT
BRANCH   1   3
ATOM      3  C   UNL     1      38.008   1.075  14.423  0.00  0.00    +0.000 C 
ATOM      4  O   UNL     1      37.898   0.692  13.272  0.00  0.00    +0.000 OA
ATOM      5  N   UNL     1      38.660   0.460  15.409  0.00  0.00    +0.000 NA
BRANCH   5   6
ATOM      6  C   UNL     1      39.329  -0.760  15.343  0.00  0.00    +0.000 A 
ATOM      7  C   UNL     1      40.434  -1.141  14.675  0.00  0.00    +0.000 A 
ATOM      8  C   UNL     1      40.889  -2.463  14.684  0.00  0.00    +0.000 A 
ATOM      9  C   UNL     1      40.235  -3.452  15.373  0.00  0.00    +0.000 A 
ATOM     10  C   UNL     1      39.092  -3.057  16.065  0.00  0.00    +0.000 A 
ATOM     11  C   UNL     1      38.627  -1.774  16.074  0.00  0.00    +0.000 A 
BRANCH  11  12
ATOM     12  C   UNL     1      37.438  -1.390  16.783  0.00  0.00    +0.000 A 
ATOM     13  C   UNL     1      37.439  -1.002  18.089  0.00  0.00    +0.000 A 
ATOM     14  C   UNL     1      36.317  -0.644  18.782  0.00  0.00    +0.000 A 
ATOM     15  C   UNL     1      35.106  -0.682  18.101  0.00  0.00    +0.000 A 
ATOM     16  C   UNL     1      35.084  -1.072  16.788  0.00  0.00    +0.000 A 
ATOM     17  C   UNL     1      36.216  -1.428  16.101  0.00  0.00    +0.000 A 
ENDBRANCH  11  12
ENDBRANCH   5   6
ENDBRANCH   1   3
BRANCH   1  18
ATOM     18  O   UNL     1      38.425   3.063  15.610  0.00  0.00    +0.000 OA
BRANCH  18  19
ATOM     19  C   UNL     1      37.933   3.742  16.690  0.00  0.00    +0.000 C 
ATOM     20  O   UNL     1      36.949   3.204  17.295  0.00  0.00    +0.000 OA
BRANCH  19  26
ATOM     21  C   UNL     1      38.134   6.213  16.647  0.00  0.00    +0.000 A 
ATOM     22  C   UNL     1      38.444   7.362  17.392  0.00  0.00    +0.000 A 
ATOM     23  C   UNL     1      39.022   7.281  18.643  0.00  0.00    +0.000 A 
ATOM     24  C   UNL     1      39.312   6.069  19.209  0.00  0.00    +0.000 A 
ATOM     25  C   UNL     1      39.001   4.956  18.479  0.00  0.00    +0.000 A 
ATOM     26  C   UNL     1      38.407   5.018  17.197  0.00  0.00    +0.000 A 
BRANCH  21  27
ATOM     27  N   UNL     1      37.639   6.266  15.315  0.00  0.00    +0.000 NA
BRANCH  27  28
ATOM     28  C   UNL     1      38.536   6.977  14.361  0.00  0.00    +0.000 C 
BRANCH  28  29
ATOM     29  C   UNL     1      39.842   6.137  14.301  0.00  0.00    +0.000 C 
BRANCH  29  31
ATOM     30  C   UNL     1      41.784   6.391  15.880  0.00  0.00    +0.000 C 
ATOM     31  C   UNL     1      41.004   7.045  14.745  0.00  0.00    +0.000 C 
ENDBRANCH  29  31
ENDBRANCH  28  29
ENDBRANCH  27  28
ENDBRANCH  21  27
ENDBRANCH  19  26
ENDBRANCH  18  19
ENDBRANCH   1  18
TORSDOF 10
ENDMDL
