MODEL 1
REMARK VINA RESULT:      -7.6      0.000      0.000
REMARK  Name = 
REMARK  3 active torsions:
REMARK  status: ('A' for Active; 'I' for Inactive)
REMARK    1  A    between atoms: C_4  and  C_5
REMARK    2  A    between atoms: N_12  and  C_13
REMARK    3  A    between atoms: C_13  and  C_14
REMARK                            x       y       z     vdW  Elec       q    Type
REMARK                         _______ _______ _______ _____ _____    ______ ____
ROOT
ATOM      1  N   UNL     1      12.336  12.984  36.525  0.00  0.00    +0.000 NA
ATOM      2  C   UNL     1      13.683  12.539  36.240  0.00  0.00    +0.000 A 
ATOM      3  C   UNL     1      14.466  11.764  37.062  0.00  0.00    +0.000 A 
ATOM      4  C   UNL     1      15.665  11.557  36.446  0.00  0.00    +0.000 A 
ATOM      5  N   UNL     1      15.571  12.210  35.276  0.00  0.00    +0.000 NA
ATOM      6  N   UNL     1      14.402  12.796  35.144  0.00  0.00    +0.000 N 
ENDROOT
BRANCH   4   7
ATOM      7  C   UNL     1      16.797  10.787  36.963  0.00  0.00    +0.000 A 
ATOM      8  C   UNL     1      17.813  10.378  36.139  0.00  0.00    +0.000 A 
ATOM      9  C   UNL     1      18.881   9.653  36.623  0.00  0.00    +0.000 A 
ATOM     10  C   UNL     1      18.957   9.317  37.956  0.00  0.00    +0.000 A 
ATOM     11  C   UNL     1      17.916   9.740  38.774  0.00  0.00    +0.000 A 
ATOM     12  C   UNL     1      16.849  10.465  38.286  0.00  0.00    +0.000 A 
ENDBRANCH   4   7
BRANCH   6  13
ATOM     13  C   UNL     1      13.971  13.577  34.012  0.00  0.00    +0.000 C 
BRANCH  13  14
ATOM     14  C   UNL     1      14.589  13.168  32.722  0.00  0.00    +0.000 C 
ATOM     15  C   UNL     1      14.621  11.694  32.492  0.00  0.00    +0.000 C 
ATOM     16  C   UNL     1      15.357  11.434  31.181  0.00  0.00    +0.000 C 
ATOM     17  C   UNL     1      16.171  12.680  30.813  0.00  0.00    +0.000 C 
ATOM     18  C   UNL     1      15.201  13.792  30.445  0.00  0.00    +0.000 C 
ATOM     19  C   UNL     1      14.147  13.966  31.541  0.00  0.00    +0.000 C 
ENDBRANCH  13  14
ENDBRANCH   6  13
TORSDOF 3
ENDMDL
MODEL 2
REMARK VINA RESULT:      -7.5      1.662      2.180
REMARK  Name = 
REMARK  3 active torsions:
REMARK  status: ('A' for Active; 'I' for Inactive)
REMARK    1  A    between atoms: C_4  and  C_5
REMARK    2  A    between atoms: N_12  and  C_13
REMARK    3  A    between atoms: C_13  and  C_14
REMARK                            x       y       z     vdW  Elec       q    Type
REMARK                         _______ _______ _______ _____ _____    ______ ____
ROOT
ATOM      1  N   UNL     1      13.926  13.338  34.997  0.00  0.00    +0.000 NA
ATOM      2  C   UNL     1      15.154  12.630  35.290  0.00  0.00    +0.000 A 
ATOM      3  C   UNL     1      15.929  12.795  36.413  0.00  0.00    +0.000 A 
ATOM      4  C   UNL     1      17.000  11.954  36.326  0.00  0.00    +0.000 A 
ATOM      5  N   UNL     1      16.839  11.309  35.158  0.00  0.00    +0.000 NA
ATOM      6  N   UNL     1      15.750  11.702  34.536  0.00  0.00    +0.000 N 
ENDROOT
BRANCH   4   7
ATOM      7  C   UNL     1      18.078  11.800  37.302  0.00  0.00    +0.000 A 
ATOM      8  C   UNL     1      18.337  10.588  37.889  0.00  0.00    +0.000 A 
ATOM      9  C   UNL     1      19.353  10.441  38.809  0.00  0.00    +0.000 A 
ATOM     10  C   UNL     1      20.140  11.513  39.167  0.00  0.00    +0.000 A 
ATOM     11  C   UNL     1      19.861  12.731  38.561  0.00  0.00    +0.000 A 
ATOM     12  C   UNL     1      18.843  12.875  37.641  0.00  0.00    +0.000 A 
ENDBRANCH   4   7
BRANCH   6  13
ATOM     13  C   UNL     1      15.281  11.215  33.264  0.00  0.00    +0.000 C 
BRANCH  13  14
ATOM     14  C   UNL     1      15.226  12.253  32.200  0.00  0.00    +0.000 C 
ATOM     15  C   UNL     1      16.405  12.261  31.284  0.00  0.00    +0.000 C 
ATOM     16  C   UNL     1      16.243  13.427  30.314  0.00  0.00    +0.000 C 
ATOM     17  C   UNL     1      15.215  14.411  30.885  0.00  0.00    +0.000 C 
ATOM     18  C   UNL     1      13.848  13.746  30.851  0.00  0.00    +0.000 C 
ATOM     19  C   UNL     1      13.909  12.365  31.508  0.00  0.00    +0.000 C 
ENDBRANCH  13  14
ENDBRANCH   6  13
TORSDOF 3
ENDMDL
MODEL 3
REMARK VINA RESULT:      -7.4      1.175      2.103
REMARK  Name = 
REMARK  3 active torsions:
REMARK  status: ('A' for Active; 'I' for Inactive)
REMARK    1  A    between atoms: C_4  and  C_5
REMARK    2  A    between atoms: N_12  and  C_13
REMARK    3  A    between atoms: C_13  and  C_14
REMARK                            x       y       z     vdW  Elec       q    Type
REMARK                         _______ _______ _______ _____ _____    ______ ____
ROOT
ATOM      1  N   UNL     1      12.583  12.234  36.810  0.00  0.00    +0.000 NA
ATOM      2  C   UNL     1      13.991  11.896  36.845  0.00  0.00    +0.000 A 
ATOM      3  C   UNL     1      14.618  11.164  37.823  0.00  0.00    +0.000 A 
ATOM      4  C   UNL     1      15.940  11.060  37.504  0.00  0.00    +0.000 A 
ATOM      5  N   UNL     1      16.070  11.729  36.346  0.00  0.00    +0.000 NA
ATOM      6  N   UNL     1      14.922  12.229  35.947  0.00  0.00    +0.000 N 
ENDROOT
BRANCH   4   7
ATOM      7  C   UNL     1      16.977  10.365  38.267  0.00  0.00    +0.000 A 
ATOM      8  C   UNL     1      16.727   9.878  39.524  0.00  0.00    +0.000 A 
ATOM      9  C   UNL     1      17.703   9.224  40.246  0.00  0.00    +0.000 A 
ATOM     10  C   UNL     1      18.962   9.039  39.721  0.00  0.00    +0.000 A 
ATOM     11  C   UNL     1      19.194   9.541  38.446  0.00  0.00    +0.000 A 
ATOM     12  C   UNL     1      18.216  10.196  37.728  0.00  0.00    +0.000 A 
ENDBRANCH   4   7
BRANCH   6  13
ATOM     13  C   UNL     1      14.707  13.000  34.749  0.00  0.00    +0.000 C 
BRANCH  13  14
ATOM     14  C   UNL     1      14.905  12.234  33.490  0.00  0.00    +0.000 C 
ATOM     15  C   UNL     1      14.344  12.890  32.273  0.00  0.00    +0.000 C 
ATOM     16  C   UNL     1      14.548  11.948  31.090  0.00  0.00    +0.000 C 
ATOM     17  C   UNL     1      14.823  10.536  31.621  0.00  0.00    +0.000 C 
ATOM     18  C   UNL     1      16.186  10.538  32.295  0.00  0.00    +0.000 C 
ATOM     19  C   UNL     1      16.279  11.678  33.311  0.00  0.00    +0.000 C 
ENDBRANCH  13  14
ENDBRANCH   6  13
TORSDOF 3
ENDMDL
MODEL 4
REMARK VINA RESULT:      -6.6     17.846     20.054
REMARK  Name = 
REMARK  3 active torsions:
REMARK  status: ('A' for Active; 'I' for Inactive)
REMARK    1  A    between atoms: C_4  and  C_5
REMARK    2  A    between atoms: N_12  and  C_13
REMARK    3  A    between atoms: C_13  and  C_14
REMARK                            x       y       z     vdW  Elec       q    Type
REMARK                         _______ _______ _______ _____ _____    ______ ____
ROOT
ATOM      1  N   UNL     1      25.722  23.058  22.778  0.00  0.00    +0.000 NA
ATOM      2  C   UNL     1      26.462  23.159  24.019  0.00  0.00    +0.000 A 
ATOM      3  C   UNL     1      25.929  23.076  25.282  0.00  0.00    +0.000 A 
ATOM      4  C   UNL     1      26.940  23.217  26.188  0.00  0.00    +0.000 A 
ATOM      5  N   UNL     1      28.048  23.380  25.446  0.00  0.00    +0.000 NA
ATOM      6  N   UNL     1      27.777  23.347  24.160  0.00  0.00    +0.000 N 
ENDROOT
BRANCH   4   7
ATOM      7  C   UNL     1      26.824  23.194  27.646  0.00  0.00    +0.000 A 
ATOM      8  C   UNL     1      27.555  22.316  28.402  0.00  0.00    +0.000 A 
ATOM      9  C   UNL     1      27.448  22.291  29.776  0.00  0.00    +0.000 A 
ATOM     10  C   UNL     1      26.597  23.154  30.431  0.00  0.00    +0.000 A 
ATOM     11  C   UNL     1      25.864  24.035  29.646  0.00  0.00    +0.000 A 
ATOM     12  C   UNL     1      25.974  24.056  28.271  0.00  0.00    +0.000 A 
ENDBRANCH   4   7
BRANCH   6  13
ATOM     13  C   UNL     1      28.732  23.489  23.091  0.00  0.00    +0.000 C 
BRANCH  13  14
ATOM     14  C   UNL     1      28.867  24.878  22.577  0.00  0.00    +0.000 C 
ATOM     15  C   UNL     1      29.443  25.846  23.556  0.00  0.00    +0.000 C 
ATOM     16  C   UNL     1      29.433  27.230  22.915  0.00  0.00    +0.000 C 
ATOM     17  C   UNL     1      28.458  27.224  21.732  0.00  0.00    +0.000 C 
ATOM     18  C   UNL     1      29.043  26.346  20.637  0.00  0.00    +0.000 C 
ATOM     19  C   UNL     1      29.438  24.980  21.202  0.00  0.00    +0.000 C 
ENDBRANCH  13  14
ENDBRANCH   6  13
TORSDOF 3
ENDMDL
MODEL 5
REMARK VINA RESULT:      -6.5      2.062      3.084
REMARK  Name = 
REMARK  3 active torsions:
REMARK  status: ('A' for Active; 'I' for Inactive)
REMARK    1  A    between atoms: C_4  and  C_5
REMARK    2  A    between atoms: N_12  and  C_13
REMARK    3  A    between atoms: C_13  and  C_14
REMARK                            x       y       z     vdW  Elec       q    Type
REMARK                         _______ _______ _______ _____ _____    ______ ____
ROOT
ATOM      1  N   UNL     1      12.744  12.368  36.764  0.00  0.00    +0.000 NA
ATOM      2  C   UNL     1      13.986  11.833  37.282  0.00  0.00    +0.000 A 
ATOM      3  C   UNL     1      14.121  11.070  38.417  0.00  0.00    +0.000 A 
ATOM      4  C   UNL     1      15.440  10.759  38.574  0.00  0.00    +0.000 A 
ATOM      5  N   UNL     1      16.058  11.341  37.533  0.00  0.00    +0.000 NA
ATOM      6  N   UNL     1      15.207  11.980  36.762  0.00  0.00    +0.000 N 
ENDROOT
BRANCH   4   7
ATOM      7  C   UNL     1      16.034   9.963  39.648  0.00  0.00    +0.000 A 
ATOM      8  C   UNL     1      15.292   9.563  40.729  0.00  0.00    +0.000 A 
ATOM      9  C   UNL     1      15.849   8.813  41.743  0.00  0.00    +0.000 A 
ATOM     10  C   UNL     1      17.175   8.443  41.697  0.00  0.00    +0.000 A 
ATOM     11  C   UNL     1      17.909   8.859  40.594  0.00  0.00    +0.000 A 
ATOM     12  C   UNL     1      17.348   9.610  39.582  0.00  0.00    +0.000 A 
ENDBRANCH   4   7
BRANCH   6  13
ATOM     13  C   UNL     1      15.535  12.711  35.564  0.00  0.00    +0.000 C 
BRANCH  13  14
ATOM     14  C   UNL     1      15.833  11.849  34.390  0.00  0.00    +0.000 C 
ATOM     15  C   UNL     1      17.068  11.023  34.528  0.00  0.00    +0.000 C 
ATOM     16  C   UNL     1      17.282  10.269  33.219  0.00  0.00    +0.000 C 
ATOM     17  C   UNL     1      16.459  10.943  32.115  0.00  0.00    +0.000 C 
ATOM     18  C   UNL     1      14.986  10.707  32.408  0.00  0.00    +0.000 C 
ATOM     19  C   UNL     1      14.655  11.109  33.847  0.00  0.00    +0.000 C 
ENDBRANCH  13  14
ENDBRANCH   6  13
TORSDOF 3
ENDMDL
MODEL 6
REMARK VINA RESULT:      -6.4      1.576      2.747
REMARK  Name = 
REMARK  3 active torsions:
REMARK  status: ('A' for Active; 'I' for Inactive)
REMARK    1  A    between atoms: C_4  and  C_5
REMARK    2  A    between atoms: N_12  and  C_13
REMARK    3  A    between atoms: C_13  and  C_14
REMARK                            x       y       z     vdW  Elec       q    Type
REMARK                         _______ _______ _______ _____ _____    ______ ____
ROOT
ATOM      1  N   UNL     1      14.654  12.925  34.578  0.00  0.00    +0.000 NA
ATOM      2  C   UNL     1      15.532  12.077  35.356  0.00  0.00    +0.000 A 
ATOM      3  C   UNL     1      15.397  11.791  36.693  0.00  0.00    +0.000 A 
ATOM      4  C   UNL     1      16.414  10.960  37.062  0.00  0.00    +0.000 A 
ATOM      5  N   UNL     1      17.130  10.770  35.941  0.00  0.00    +0.000 NA
ATOM      6  N   UNL     1      16.617  11.427  34.925  0.00  0.00    +0.000 N 
ENDROOT
BRANCH   4   7
ATOM      7  C   UNL     1      16.658  10.405  38.394  0.00  0.00    +0.000 A 
ATOM      8  C   UNL     1      15.628  10.193  39.274  0.00  0.00    +0.000 A 
ATOM      9  C   UNL     1      15.854   9.670  40.529  0.00  0.00    +0.000 A 
ATOM     10  C   UNL     1      17.129   9.345  40.937  0.00  0.00    +0.000 A 
ATOM     11  C   UNL     1      18.158   9.569  40.031  0.00  0.00    +0.000 A 
ATOM     12  C   UNL     1      17.927  10.093  38.775  0.00  0.00    +0.000 A 
ENDBRANCH   4   7
BRANCH   6  13
ATOM     13  C   UNL     1      17.134  11.443  33.580  0.00  0.00    +0.000 C 
BRANCH  13  14
ATOM     14  C   UNL     1      16.092  11.607  32.531  0.00  0.00    +0.000 C 
ATOM     15  C   UNL     1      16.427  12.613  31.480  0.00  0.00    +0.000 C 
ATOM     16  C   UNL     1      15.234  12.729  30.537  0.00  0.00    +0.000 C 
ATOM     17  C   UNL     1      13.995  12.147  31.229  0.00  0.00    +0.000 C 
ATOM     18  C   UNL     1      14.183  10.644  31.358  0.00  0.00    +0.000 C 
ATOM     19  C   UNL     1      15.535  10.328  32.002  0.00  0.00    +0.000 C 
ENDBRANCH  13  14
ENDBRANCH   6  13
TORSDOF 3
ENDMDL
MODEL 7
REMARK VINA RESULT:      -6.2      3.586      7.376
REMARK  Name = 
REMARK  3 active torsions:
REMARK  status: ('A' for Active; 'I' for Inactive)
REMARK    1  A    between atoms: C_4  and  C_5
REMARK    2  A    between atoms: N_12  and  C_13
REMARK    3  A    between atoms: C_13  and  C_14
REMARK                            x       y       z     vdW  Elec       q    Type
REMARK                         _______ _______ _______ _____ _____    ______ ____
ROOT
ATOM      1  N   UNL     1      19.208   9.363  40.429  0.00  0.00    +0.000 NA
ATOM      2  C   UNL     1      18.934  10.194  39.275  0.00  0.00    +0.000 A 
ATOM      3  C   UNL     1      17.745  10.250  38.588  0.00  0.00    +0.000 A 
ATOM      4  C   UNL     1      17.877  11.146  37.568  0.00  0.00    +0.000 A 
ATOM      5  N   UNL     1      19.137  11.602  37.670  0.00  0.00    +0.000 NA
ATOM      6  N   UNL     1      19.772  11.045  38.677  0.00  0.00    +0.000 N 
ENDROOT
BRANCH   4   7
ATOM      7  C   UNL     1      16.858  11.517  36.586  0.00  0.00    +0.000 A 
ATOM      8  C   UNL     1      15.708  12.159  36.965  0.00  0.00    +0.000 A 
ATOM      9  C   UNL     1      14.746  12.510  36.042  0.00  0.00    +0.000 A 
ATOM     10  C   UNL     1      14.914  12.223  34.706  0.00  0.00    +0.000 A 
ATOM     11  C   UNL     1      16.087  11.571  34.344  0.00  0.00    +0.000 A 
ATOM     12  C   UNL     1      17.047  11.221  35.270  0.00  0.00    +0.000 A 
ENDBRANCH   4   7
BRANCH   6  13
ATOM     13  C   UNL     1      21.134  11.308  39.067  0.00  0.00    +0.000 C 
BRANCH  13  14
ATOM     14  C   UNL     1      22.143  10.922  38.044  0.00  0.00    +0.000 C 
ATOM     15  C   UNL     1      23.356  11.792  38.015  0.00  0.00    +0.000 C 
ATOM     16  C   UNL     1      24.245  11.326  36.866  0.00  0.00    +0.000 C 
ATOM     17  C   UNL     1      23.410  10.474  35.904  0.00  0.00    +0.000 C 
ATOM     18  C   UNL     1      23.052   9.174  36.607  0.00  0.00    +0.000 C 
ATOM     19  C   UNL     1      22.433   9.460  37.978  0.00  0.00    +0.000 C 
ENDBRANCH  13  14
ENDBRANCH   6  13
TORSDOF 3
ENDMDL
MODEL 8
REMARK VINA RESULT:      -6.1     17.326     19.616
REMARK  Name = 
REMARK  3 active torsions:
REMARK  status: ('A' for Active; 'I' for Inactive)
REMARK    1  A    between atoms: C_4  and  C_5
REMARK    2  A    between atoms: N_12  and  C_13
REMARK    3  A    between atoms: C_13  and  C_14
REMARK                            x       y       z     vdW  Elec       q    Type
REMARK                         _______ _______ _______ _____ _____    ______ ____
ROOT
ATOM      1  N   UNL     1      26.079  22.885  30.604  0.00  0.00    +0.000 NA
ATOM      2  C   UNL     1      27.126  22.832  29.605  0.00  0.00    +0.000 A 
ATOM      3  C   UNL     1      26.949  22.946  28.247  0.00  0.00    +0.000 A 
ATOM      4  C   UNL     1      28.168  22.846  27.643  0.00  0.00    +0.000 A 
ATOM      5  N   UNL     1      29.041  22.677  28.651  0.00  0.00    +0.000 NA
ATOM      6  N   UNL     1      28.434  22.666  29.817  0.00  0.00    +0.000 N 
ENDROOT
BRANCH   4   7
ATOM      7  C   UNL     1      28.446  22.912  26.208  0.00  0.00    +0.000 A 
ATOM      8  C   UNL     1      29.695  22.640  25.714  0.00  0.00    +0.000 A 
ATOM      9  C   UNL     1      29.960  22.702  24.362  0.00  0.00    +0.000 A 
ATOM     10  C   UNL     1      28.971  23.041  23.466  0.00  0.00    +0.000 A 
ATOM     11  C   UNL     1      27.713  23.313  23.988  0.00  0.00    +0.000 A 
ATOM     12  C   UNL     1      27.452  23.251  25.341  0.00  0.00    +0.000 A 
ENDBRANCH   4   7
BRANCH   6  13
ATOM     13  C   UNL     1      29.072  22.506  31.099  0.00  0.00    +0.000 C 
BRANCH  13  14
ATOM     14  C   UNL     1      30.554  22.401  31.031  0.00  0.00    +0.000 C 
ATOM     15  C   UNL     1      31.262  23.713  30.956  0.00  0.00    +0.000 C 
ATOM     16  C   UNL     1      32.755  23.437  30.804  0.00  0.00    +0.000 C 
ATOM     17  C   UNL     1      32.948  21.989  30.338  0.00  0.00    +0.000 C 
ATOM     18  C   UNL     1      32.544  21.064  31.475  0.00  0.00    +0.000 C 
ATOM     19  C   UNL     1      31.153  21.432  31.995  0.00  0.00    +0.000 C 
ENDBRANCH  13  14
ENDBRANCH   6  13
TORSDOF 3
ENDMDL
MODEL 9
REMARK VINA RESULT:      -6.1     21.238     22.633
REMARK  Name = 
REMARK  3 active torsions:
REMARK  status: ('A' for Active; 'I' for Inactive)
REMARK    1  A    between atoms: C_4  and  C_5
REMARK    2  A    between atoms: N_12  and  C_13
REMARK    3  A    between atoms: C_13  and  C_14
REMARK                            x       y       z     vdW  Elec       q    Type
REMARK                         _______ _______ _______ _____ _____    ______ ____
ROOT
ATOM      1  N   UNL     1      16.982 -11.551  29.356  0.00  0.00    +0.000 NA
ATOM      2  C   UNL     1      17.004 -10.475  28.387  0.00  0.00    +0.000 A 
ATOM      3  C   UNL     1      17.958  -9.490  28.301  0.00  0.00    +0.000 A 
ATOM      4  C   UNL     1      17.634  -8.665  27.265  0.00  0.00    +0.000 A 
ATOM      5  N   UNL     1      16.499  -9.175  26.758  0.00  0.00    +0.000 NA
ATOM      6  N   UNL     1      16.117 -10.247  27.416  0.00  0.00    +0.000 N 
ENDROOT
BRANCH   4   7
ATOM      7  C   UNL     1      18.374  -7.485  26.816  0.00  0.00    +0.000 A 
ATOM      8  C   UNL     1      19.509  -7.605  26.056  0.00  0.00    +0.000 A 
ATOM      9  C   UNL     1      20.207  -6.495  25.632  0.00  0.00    +0.000 A 
ATOM     10  C   UNL     1      19.783  -5.227  25.962  0.00  0.00    +0.000 A 
ATOM     11  C   UNL     1      18.631  -5.128  26.733  0.00  0.00    +0.000 A 
ATOM     12  C   UNL     1      17.935  -6.241  27.156  0.00  0.00    +0.000 A 
ENDBRANCH   4   7
BRANCH   6  13
ATOM     13  C   UNL     1      14.945 -11.037  27.136  0.00  0.00    +0.000 C 
BRANCH  13  14
ATOM     14  C   UNL     1      13.798 -10.254  26.603  0.00  0.00    +0.000 C 
ATOM     15  C   UNL     1      13.528 -10.464  25.150  0.00  0.00    +0.000 C 
ATOM     16  C   UNL     1      12.391  -9.534  24.741  0.00  0.00    +0.000 C 
ATOM     17  C   UNL     1      12.243  -8.433  25.797  0.00  0.00    +0.000 C 
ATOM     18  C   UNL     1      11.720  -9.068  27.077  0.00  0.00    +0.000 C 
ATOM     19  C   UNL     1      12.579 -10.274  27.464  0.00  0.00    +0.000 C 
ENDBRANCH  13  14
ENDBRANCH   6  13
TORSDOF 3
ENDMDL
MODEL 10
REMARK VINA RESULT:      -6.1      2.109      2.699
REMARK  Name = 
REMARK  3 active torsions:
REMARK  status: ('A' for Active; 'I' for Inactive)
REMARK    1  A    between atoms: C_4  and  C_5
REMARK    2  A    between atoms: N_12  and  C_13
REMARK    3  A    between atoms: C_13  and  C_14
REMARK                            x       y       z     vdW  Elec       q    Type
REMARK                         _______ _______ _______ _____ _____    ______ ____
ROOT
ATOM      1  N   UNL     1      14.102  10.506  33.439  0.00  0.00    +0.000 NA
ATOM      2  C   UNL     1      15.492  10.506  33.845  0.00  0.00    +0.000 A 
ATOM      3  C   UNL     1      15.956  10.331  35.126  0.00  0.00    +0.000 A 
ATOM      4  C   UNL     1      17.318  10.395  35.105  0.00  0.00    +0.000 A 
ATOM      5  N   UNL     1      17.634  10.606  33.816  0.00  0.00    +0.000 NA
ATOM      6  N   UNL     1      16.560  10.675  33.062  0.00  0.00    +0.000 N 
ENDROOT
BRANCH   4   7
ATOM      7  C   UNL     1      18.222  10.260  36.247  0.00  0.00    +0.000 A 
ATOM      8  C   UNL     1      19.521   9.853  36.081  0.00  0.00    +0.000 A 
ATOM      9  C   UNL     1      20.375   9.725  37.155  0.00  0.00    +0.000 A 
ATOM     10  C   UNL     1      19.945  10.004  38.433  0.00  0.00    +0.000 A 
ATOM     11  C   UNL     1      18.626  10.414  38.580  0.00  0.00    +0.000 A 
ATOM     12  C   UNL     1      17.774  10.541  37.502  0.00  0.00    +0.000 A 
ENDBRANCH   4   7
BRANCH   6  13
ATOM     13  C   UNL     1      16.541  10.892  31.637  0.00  0.00    +0.000 C 
BRANCH  13  14
ATOM     14  C   UNL     1      15.894  12.167  31.226  0.00  0.00    +0.000 C 
ATOM     15  C   UNL     1      16.806  13.129  30.541  0.00  0.00    +0.000 C 
ATOM     16  C   UNL     1      16.023  14.409  30.265  0.00  0.00    +0.000 C 
ATOM     17  C   UNL     1      14.776  14.432  31.157  0.00  0.00    +0.000 C 
ATOM     18  C   UNL     1      13.829  13.342  30.680  0.00  0.00    +0.000 C 
ATOM     19  C   UNL     1      14.564  12.005  30.570  0.00  0.00    +0.000 C 
ENDBRANCH  13  14
ENDBRANCH   6  13
TORSDOF 3
ENDMDL
