MODEL 1
REMARK VINA RESULT:      -8.1      0.000      0.000
REMARK  Name = 
REMARK  8 active torsions:
REMARK  status: ('A' for Active; 'I' for Inactive)
REMARK    1  A    between atoms: C_2  and  C_3
REMARK    2  A    between atoms: C_7  and  C_8
REMARK    3  A    between atoms: C_10  and  N_11
REMARK    4  A    between atoms: C_12  and  C_14
REMARK    5  A    between atoms: C_14  and  O_15
REMARK    6  A    between atoms: O_15  and  C_16
REMARK    7  A    between atoms: C_16  and  C_18
REMARK    8  A    between atoms: C_21  and  C_22
REMARK                            x       y       z     vdW  Elec       q    Type
REMARK                         _______ _______ _______ _____ _____    ______ ____
ROOT
ATOM      1  O   UNL     1      37.003   2.239  13.624  0.00  0.00    +0.000 OA
ENDROOT
BRANCH   1   2
ATOM      2  C   UNL     1      36.630   3.277  14.462  0.00  0.00    +0.000 C 
ATOM      3  O   UNL     1      35.419   3.614  14.441  0.00  0.00    +0.000 OA
BRANCH   2   4
ATOM      4  C   UNL     1      37.559   3.967  15.337  0.00  0.00    +0.000 A 
ATOM      5  C   UNL     1      37.399   3.893  16.706  0.00  0.00    +0.000 A 
ATOM      6  C   UNL     1      38.259   4.523  17.574  0.00  0.00    +0.000 A 
ATOM      7  C   UNL     1      39.325   5.260  17.092  0.00  0.00    +0.000 A 
ATOM      8  C   UNL     1      39.506   5.349  15.740  0.00  0.00    +0.000 A 
ATOM      9  C   UNL     1      38.623   4.703  14.882  0.00  0.00    +0.000 A 
BRANCH   7  10
ATOM     10  C   UNL     1      40.191   5.902  18.075  0.00  0.00    +0.000 A 
ATOM     11  C   UNL     1      41.469   6.313  17.761  0.00  0.00    +0.000 A 
ATOM     12  C   UNL     1      42.305   6.927  18.676  0.00  0.00    +0.000 A 
ATOM     13  C   UNL     1      41.827   7.132  19.950  0.00  0.00    +0.000 A 
ATOM     14  C   UNL     1      40.566   6.739  20.303  0.00  0.00    +0.000 A 
ATOM     15  C   UNL     1      39.759   6.128  19.365  0.00  0.00    +0.000 A 
ENDBRANCH   7  10
ENDBRANCH   2   4
ENDBRANCH   1   2
BRANCH   1  16
ATOM     16  C   UNL     1      36.710   0.896  13.818  0.00  0.00    +0.000 C 
BRANCH  16  18
ATOM     17  N   UNL     1      36.860  -0.878  15.582  0.00  0.00    +0.000 NA
ATOM     18  C   UNL     1      37.406   0.242  14.941  0.00  0.00    +0.000 C 
ATOM     19  O   UNL     1      38.502   0.705  15.317  0.00  0.00    +0.000 OA
BRANCH  17  25
ATOM     20  C   UNL     1      38.434  -2.523  16.505  0.00  0.00    +0.000 A 
ATOM     21  C   UNL     1      38.957  -3.217  17.612  0.00  0.00    +0.000 A 
ATOM     22  C   UNL     1      38.478  -2.983  18.882  0.00  0.00    +0.000 A 
ATOM     23  C   UNL     1      37.476  -2.053  19.043  0.00  0.00    +0.000 A 
ATOM     24  C   UNL     1      36.949  -1.357  17.938  0.00  0.00    +0.000 A 
ATOM     25  C   UNL     1      37.424  -1.586  16.665  0.00  0.00    +0.000 A 
BRANCH  20  27
ATOM     26  C   UNL     1      40.454  -2.805  15.185  0.00  0.00    +0.000 C 
ATOM     27  C   UNL     1      38.954  -2.805  15.146  0.00  0.00    +0.000 C 
ENDBRANCH  20  27
BRANCH  24  28
ATOM     28  C   UNL     1      35.856  -0.377  18.133  0.00  0.00    +0.000 C 
ATOM     29  C   UNL     1      36.303   0.646  19.137  0.00  0.00    +0.000 C 
ENDBRANCH  24  28
ENDBRANCH  17  25
ENDBRANCH  16  18
ENDBRANCH   1  16
TORSDOF 8
ENDMDL
MODEL 2
REMARK VINA RESULT:      -8.0      1.807      2.891
REMARK  Name = 
REMARK  8 active torsions:
REMARK  status: ('A' for Active; 'I' for Inactive)
REMARK    1  A    between atoms: C_2  and  C_3
REMARK    2  A    between atoms: C_7  and  C_8
REMARK    3  A    between atoms: C_10  and  N_11
REMARK    4  A    between atoms: C_12  and  C_14
REMARK    5  A    between atoms: C_14  and  O_15
REMARK    6  A    between atoms: O_15  and  C_16
REMARK    7  A    between atoms: C_16  and  C_18
REMARK    8  A    between atoms: C_21  and  C_22
REMARK                            x       y       z     vdW  Elec       q    Type
REMARK                         _______ _______ _______ _____ _____    ______ ____
ROOT
ATOM      1  O   UNL     1      38.344   3.411  16.128  0.00  0.00    +0.000 OA
ENDROOT
BRANCH   1   2
ATOM      2  C   UNL     1      38.423   4.773  16.371  0.00  0.00    +0.000 C 
ATOM      3  O   UNL     1      37.598   5.505  15.766  0.00  0.00    +0.000 OA
BRANCH   2   4
ATOM      4  C   UNL     1      39.394   5.366  17.272  0.00  0.00    +0.000 A 
ATOM      5  C   UNL     1      39.122   5.442  18.623  0.00  0.00    +0.000 A 
ATOM      6  C   UNL     1      40.014   5.987  19.515  0.00  0.00    +0.000 A 
ATOM      7  C   UNL     1      41.228   6.482  19.076  0.00  0.00    +0.000 A 
ATOM      8  C   UNL     1      41.522   6.419  17.743  0.00  0.00    +0.000 A 
ATOM      9  C   UNL     1      40.603   5.863  16.860  0.00  0.00    +0.000 A 
BRANCH   7  10
ATOM     10  C   UNL     1      42.121   7.049  20.082  0.00  0.00    +0.000 A 
ATOM     11  C   UNL     1      42.290   8.409  20.221  0.00  0.00    +0.000 A 
ATOM     12  C   UNL     1      43.128   8.967  21.171  0.00  0.00    +0.000 A 
ATOM     13  C   UNL     1      43.815   8.115  22.005  0.00  0.00    +0.000 A 
ATOM     14  C   UNL     1      43.677   6.759  21.899  0.00  0.00    +0.000 A 
ATOM     15  C   UNL     1      42.833   6.237  20.940  0.00  0.00    +0.000 A 
ENDBRANCH   7  10
ENDBRANCH   2   4
ENDBRANCH   1   2
BRANCH   1  16
ATOM     16  C   UNL     1      38.022   2.823  14.912  0.00  0.00    +0.000 C 
BRANCH  16  18
ATOM     17  N   UNL     1      37.293   0.580  15.760  0.00  0.00    +0.000 NA
ATOM     18  C   UNL     1      37.053   1.714  14.972  0.00  0.00    +0.000 C 
ATOM     19  O   UNL     1      36.002   1.799  14.305  0.00  0.00    +0.000 OA
BRANCH  17  25
ATOM     20  C   UNL     1      36.477  -1.615  15.018  0.00  0.00    +0.000 A 
ATOM     21  C   UNL     1      35.606  -2.708  15.185  0.00  0.00    +0.000 A 
ATOM     22  C   UNL     1      34.705  -2.740  16.226  0.00  0.00    +0.000 A 
ATOM     23  C   UNL     1      34.675  -1.677  17.100  0.00  0.00    +0.000 A 
ATOM     24  C   UNL     1      35.544  -0.581  16.937  0.00  0.00    +0.000 A 
ATOM     25  C   UNL     1      36.450  -0.543  15.898  0.00  0.00    +0.000 A 
BRANCH  20  27
ATOM     26  C   UNL     1      38.590  -2.488  14.198  0.00  0.00    +0.000 C 
ATOM     27  C   UNL     1      37.427  -1.596  13.881  0.00  0.00    +0.000 C 
ENDBRANCH  20  27
BRANCH  24  28
ATOM     28  C   UNL     1      35.479   0.562  17.877  0.00  0.00    +0.000 C 
ATOM     29  C   UNL     1      35.981   0.108  19.217  0.00  0.00    +0.000 C 
ENDBRANCH  24  28
ENDBRANCH  17  25
ENDBRANCH  16  18
ENDBRANCH   1  16
TORSDOF 8
ENDMDL
MODEL 3
REMARK VINA RESULT:      -8.0      0.699      1.418
REMARK  Name = 
REMARK  8 active torsions:
REMARK  status: ('A' for Active; 'I' for Inactive)
REMARK    1  A    between atoms: C_2  and  C_3
REMARK    2  A    between atoms: C_7  and  C_8
REMARK    3  A    between atoms: C_10  and  N_11
REMARK    4  A    between atoms: C_12  and  C_14
REMARK    5  A    between atoms: C_14  and  O_15
REMARK    6  A    between atoms: O_15  and  C_16
REMARK    7  A    between atoms: C_16  and  C_18
REMARK    8  A    between atoms: C_21  and  C_22
REMARK                            x       y       z     vdW  Elec       q    Type
REMARK                         _______ _______ _______ _____ _____    ______ ____
ROOT
ATOM      1  O   UNL     1      36.470   2.508  13.815  0.00  0.00    +0.000 OA
ENDROOT
BRANCH   1   2
ATOM      2  C   UNL     1      36.447   3.807  14.294  0.00  0.00    +0.000 C 
ATOM      3  O   UNL     1      35.557   4.566  13.833  0.00  0.00    +0.000 OA
BRANCH   2   4
ATOM      4  C   UNL     1      37.387   4.308  15.281  0.00  0.00    +0.000 A 
ATOM      5  C   UNL     1      38.373   5.196  14.902  0.00  0.00    +0.000 A 
ATOM      6  C   UNL     1      39.280   5.702  15.802  0.00  0.00    +0.000 A 
ATOM      7  C   UNL     1      39.228   5.331  17.132  0.00  0.00    +0.000 A 
ATOM      8  C   UNL     1      38.260   4.453  17.534  0.00  0.00    +0.000 A 
ATOM      9  C   UNL     1      37.354   3.953  16.605  0.00  0.00    +0.000 A 
BRANCH   7  10
ATOM     10  C   UNL     1      40.227   5.908  18.027  0.00  0.00    +0.000 A 
ATOM     11  C   UNL     1      39.986   6.080  19.373  0.00  0.00    +0.000 A 
ATOM     12  C   UNL     1      40.920   6.621  20.238  0.00  0.00    +0.000 A 
ATOM     13  C   UNL     1      42.137   6.998  19.719  0.00  0.00    +0.000 A 
ATOM     14  C   UNL     1      42.416   6.846  18.390  0.00  0.00    +0.000 A 
ATOM     15  C   UNL     1      41.461   6.303  17.555  0.00  0.00    +0.000 A 
ENDBRANCH   7  10
ENDBRANCH   2   4
ENDBRANCH   1   2
BRANCH   1  16
ATOM     16  C   UNL     1      37.611   1.772  13.523  0.00  0.00    +0.000 C 
BRANCH  16  18
ATOM     17  N   UNL     1      37.472  -0.262  14.981  0.00  0.00    +0.000 NA
ATOM     18  C   UNL     1      38.124   0.924  14.614  0.00  0.00    +0.000 C 
ATOM     19  O   UNL     1      39.159   1.279  15.213  0.00  0.00    +0.000 OA
BRANCH  17  25
ATOM     20  C   UNL     1      38.829  -2.128  15.825  0.00  0.00    +0.000 A 
ATOM     21  C   UNL     1      39.173  -3.004  16.871  0.00  0.00    +0.000 A 
ATOM     22  C   UNL     1      38.555  -2.916  18.099  0.00  0.00    +0.000 A 
ATOM     23  C   UNL     1      37.592  -1.949  18.280  0.00  0.00    +0.000 A 
ATOM     24  C   UNL     1      37.244  -1.070  17.236  0.00  0.00    +0.000 A 
ATOM     25  C   UNL     1      37.860  -1.152  16.005  0.00  0.00    +0.000 A 
BRANCH  20  27
ATOM     26  C   UNL     1      40.886  -2.780  14.711  0.00  0.00    +0.000 C 
ATOM     27  C   UNL     1      39.497  -2.253  14.508  0.00  0.00    +0.000 C 
ENDBRANCH  20  27
BRANCH  24  28
ATOM     28  C   UNL     1      36.190  -0.051  17.447  0.00  0.00    +0.000 C 
ATOM     29  C   UNL     1      36.090   0.239  18.917  0.00  0.00    +0.000 C 
ENDBRANCH  24  28
ENDBRANCH  17  25
ENDBRANCH  16  18
ENDBRANCH   1  16
TORSDOF 8
ENDMDL
MODEL 4
REMARK VINA RESULT:      -7.9      1.573      2.871
REMARK  Name = 
REMARK  8 active torsions:
REMARK  status: ('A' for Active; 'I' for Inactive)
REMARK    1  A    between atoms: C_2  and  C_3
REMARK    2  A    between atoms: C_7  and  C_8
REMARK    3  A    between atoms: C_10  and  N_11
REMARK    4  A    between atoms: C_12  and  C_14
REMARK    5  A    between atoms: C_14  and  O_15
REMARK    6  A    between atoms: O_15  and  C_16
REMARK    7  A    between atoms: C_16  and  C_18
REMARK    8  A    between atoms: C_21  and  C_22
REMARK                            x       y       z     vdW  Elec       q    Type
REMARK                         _______ _______ _______ _____ _____    ______ ____
ROOT
ATOM      1  O   UNL     1      35.890   2.525  16.167  0.00  0.00    +0.000 OA
ENDROOT
BRANCH   1   2
ATOM      2  C   UNL     1      36.625   3.538  15.572  0.00  0.00    +0.000 C 
ATOM      3  O   UNL     1      36.292   3.867  14.405  0.00  0.00    +0.000 OA
BRANCH   2   4
ATOM      4  C   UNL     1      37.730   4.211  16.228  0.00  0.00    +0.000 A 
ATOM      5  C   UNL     1      37.836   4.178  17.604  0.00  0.00    +0.000 A 
ATOM      6  C   UNL     1      38.869   4.794  18.269  0.00  0.00    +0.000 A 
ATOM      7  C   UNL     1      39.846   5.475  17.566  0.00  0.00    +0.000 A 
ATOM      8  C   UNL     1      39.764   5.523  16.203  0.00  0.00    +0.000 A 
ATOM      9  C   UNL     1      38.709   4.892  15.553  0.00  0.00    +0.000 A 
BRANCH   7  10
ATOM     10  C   UNL     1      40.909   6.106  18.342  0.00  0.00    +0.000 A 
ATOM     11  C   UNL     1      42.091   6.512  17.762  0.00  0.00    +0.000 A 
ATOM     12  C   UNL     1      43.108   7.117  18.478  0.00  0.00    +0.000 A 
ATOM     13  C   UNL     1      42.919   7.315  19.826  0.00  0.00    +0.000 A 
ATOM     14  C   UNL     1      41.761   6.926  20.441  0.00  0.00    +0.000 A 
ATOM     15  C   UNL     1      40.767   6.326  19.696  0.00  0.00    +0.000 A 
ENDBRANCH   7  10
ENDBRANCH   2   4
ENDBRANCH   1   2
BRANCH   1  16
ATOM     16  C   UNL     1      35.541   1.320  15.572  0.00  0.00    +0.000 C 
BRANCH  16  18
ATOM     17  N   UNL     1      37.796   0.242  15.761  0.00  0.00    +0.000 NA
ATOM     18  C   UNL     1      36.654   0.539  15.004  0.00  0.00    +0.000 C 
ATOM     19  O   UNL     1      36.566   0.138  13.825  0.00  0.00    +0.000 OA
BRANCH  17  25
ATOM     20  C   UNL     1      39.089  -1.840  15.600  0.00  0.00    +0.000 A 
ATOM     21  C   UNL     1      40.239  -2.526  15.164  0.00  0.00    +0.000 A 
ATOM     22  C   UNL     1      41.228  -1.874  14.463  0.00  0.00    +0.000 A 
ATOM     23  C   UNL     1      41.066  -0.533  14.196  0.00  0.00    +0.000 A 
ATOM     24  C   UNL     1      39.918   0.159  14.630  0.00  0.00    +0.000 A 
ATOM     25  C   UNL     1      38.923  -0.489  15.332  0.00  0.00    +0.000 A 
BRANCH  20  27
ATOM     26  C   UNL     1      37.537  -3.708  15.546  0.00  0.00    +0.000 C 
ATOM     27  C   UNL     1      38.046  -2.561  16.367  0.00  0.00    +0.000 C 
ENDBRANCH  20  27
BRANCH  24  28
ATOM     28  C   UNL     1      39.775   1.606  14.350  0.00  0.00    +0.000 C 
ATOM     29  C   UNL     1      40.777   1.992  13.301  0.00  0.00    +0.000 C 
ENDBRANCH  24  28
ENDBRANCH  17  25
ENDBRANCH  16  18
ENDBRANCH   1  16
TORSDOF 8
ENDMDL
MODEL 5
REMARK VINA RESULT:      -7.7      1.136      2.902
REMARK  Name = 
REMARK  8 active torsions:
REMARK  status: ('A' for Active; 'I' for Inactive)
REMARK    1  A    between atoms: C_2  and  C_3
REMARK    2  A    between atoms: C_7  and  C_8
REMARK    3  A    between atoms: C_10  and  N_11
REMARK    4  A    between atoms: C_12  and  C_14
REMARK    5  A    between atoms: C_14  and  O_15
REMARK    6  A    between atoms: O_15  and  C_16
REMARK    7  A    between atoms: C_16  and  C_18
REMARK    8  A    between atoms: C_21  and  C_22
REMARK                            x       y       z     vdW  Elec       q    Type
REMARK                         _______ _______ _______ _____ _____    ______ ____
ROOT
ATOM      1  O   UNL     1      36.329   2.633  14.143  0.00  0.00    +0.000 OA
ENDROOT
BRANCH   1   2
ATOM      2  C   UNL     1      36.484   3.970  14.472  0.00  0.00    +0.000 C 
ATOM      3  O   UNL     1      35.735   4.789  13.881  0.00  0.00    +0.000 OA
BRANCH   2   4
ATOM      4  C   UNL     1      37.450   4.443  15.446  0.00  0.00    +0.000 A 
ATOM      5  C   UNL     1      38.409   5.362  15.073  0.00  0.00    +0.000 A 
ATOM      6  C   UNL     1      39.340   5.845  15.962  0.00  0.00    +0.000 A 
ATOM      7  C   UNL     1      39.339   5.415  17.276  0.00  0.00    +0.000 A 
ATOM      8  C   UNL     1      38.400   4.505  17.672  0.00  0.00    +0.000 A 
ATOM      9  C   UNL     1      37.470   4.031  16.754  0.00  0.00    +0.000 A 
BRANCH   7  10
ATOM     10  C   UNL     1      40.360   5.970  18.160  0.00  0.00    +0.000 A 
ATOM     11  C   UNL     1      40.130   6.170  19.504  0.00  0.00    +0.000 A 
ATOM     12  C   UNL     1      41.084   6.690  20.359  0.00  0.00    +0.000 A 
ATOM     13  C   UNL     1      42.313   7.017  19.832  0.00  0.00    +0.000 A 
ATOM     14  C   UNL     1      42.583   6.835  18.504  0.00  0.00    +0.000 A 
ATOM     15  C   UNL     1      41.607   6.315  17.680  0.00  0.00    +0.000 A 
ENDBRANCH   7  10
ENDBRANCH   2   4
ENDBRANCH   1   2
BRANCH   1  16
ATOM     16  C   UNL     1      37.279   1.839  13.514  0.00  0.00    +0.000 C 
BRANCH  16  18
ATOM     17  N   UNL     1      38.307   0.202  15.110  0.00  0.00    +0.000 NA
ATOM     18  C   UNL     1      37.431   0.474  14.050  0.00  0.00    +0.000 C 
ATOM     19  O   UNL     1      36.760  -0.447  13.543  0.00  0.00    +0.000 OA
BRANCH  17  25
ATOM     20  C   UNL     1      37.728  -1.581  16.698  0.00  0.00    +0.000 A 
ATOM     21  C   UNL     1      38.010  -2.833  17.274  0.00  0.00    +0.000 A 
ATOM     22  C   UNL     1      39.101  -3.568  16.869  0.00  0.00    +0.000 A 
ATOM     23  C   UNL     1      39.912  -3.048  15.884  0.00  0.00    +0.000 A 
ATOM     24  C   UNL     1      39.634  -1.795  15.305  0.00  0.00    +0.000 A 
ATOM     25  C   UNL     1      38.542  -1.055  15.705  0.00  0.00    +0.000 A 
BRANCH  20  27
ATOM     26  C   UNL     1      35.300  -1.517  16.760  0.00  0.00    +0.000 C 
ATOM     27  C   UNL     1      36.556  -0.802  17.163  0.00  0.00    +0.000 C 
ENDBRANCH  20  27
BRANCH  24  28
ATOM     28  C   UNL     1      40.532  -1.246  14.263  0.00  0.00    +0.000 C 
ATOM     29  C   UNL     1      41.915  -1.787  14.488  0.00  0.00    +0.000 C 
ENDBRANCH  24  28
ENDBRANCH  17  25
ENDBRANCH  16  18
ENDBRANCH   1  16
TORSDOF 8
ENDMDL
MODEL 6
REMARK VINA RESULT:      -7.6      1.770      3.519
REMARK  Name = 
REMARK  8 active torsions:
REMARK  status: ('A' for Active; 'I' for Inactive)
REMARK    1  A    between atoms: C_2  and  C_3
REMARK    2  A    between atoms: C_7  and  C_8
REMARK    3  A    between atoms: C_10  and  N_11
REMARK    4  A    between atoms: C_12  and  C_14
REMARK    5  A    between atoms: C_14  and  O_15
REMARK    6  A    between atoms: O_15  and  C_16
REMARK    7  A    between atoms: C_16  and  C_18
REMARK    8  A    between atoms: C_21  and  C_22
REMARK                            x       y       z     vdW  Elec       q    Type
REMARK                         _______ _______ _______ _____ _____    ______ ____
ROOT
ATOM      1  O   UNL     1      37.428   4.341  14.998  0.00  0.00    +0.000 OA
ENDROOT
BRANCH   1   2
ATOM      2  C   UNL     1      37.744   5.580  15.531  0.00  0.00    +0.000 C 
ATOM      3  O   UNL     1      37.055   6.556  15.142  0.00  0.00    +0.000 OA
BRANCH   2   4
ATOM      4  C   UNL     1      38.810   5.783  16.495  0.00  0.00    +0.000 A 
ATOM      5  C   UNL     1      40.083   6.088  16.057  0.00  0.00    +0.000 A 
ATOM      6  C   UNL     1      41.123   6.296  16.932  0.00  0.00    +0.000 A 
ATOM      7  C   UNL     1      40.918   6.205  18.296  0.00  0.00    +0.000 A 
ATOM      8  C   UNL     1      39.667   5.904  18.756  0.00  0.00    +0.000 A 
ATOM      9  C   UNL     1      38.631   5.697  17.851  0.00  0.00    +0.000 A 
BRANCH   7  10
ATOM     10  C   UNL     1      42.071   6.435  19.161  0.00  0.00    +0.000 A 
ATOM     11  C   UNL     1      43.273   6.891  18.665  0.00  0.00    +0.000 A 
ATOM     12  C   UNL     1      44.376   7.121  19.468  0.00  0.00    +0.000 A 
ATOM     13  C   UNL     1      44.253   6.879  20.817  0.00  0.00    +0.000 A 
ATOM     14  C   UNL     1      43.079   6.425  21.349  0.00  0.00    +0.000 A 
ATOM     15  C   UNL     1      41.999   6.207  20.519  0.00  0.00    +0.000 A 
ENDBRANCH   7  10
ENDBRANCH   2   4
ENDBRANCH   1   2
BRANCH   1  16
ATOM     16  C   UNL     1      37.961   3.124  15.403  0.00  0.00    +0.000 C 
BRANCH  16  18
ATOM     17  N   UNL     1      37.357   0.749  15.927  0.00  0.00    +0.000 NA
ATOM     18  C   UNL     1      37.065   1.960  15.285  0.00  0.00    +0.000 C 
ATOM     19  O   UNL     1      36.029   2.068  14.598  0.00  0.00    +0.000 OA
BRANCH  17  25
ATOM     20  C   UNL     1      35.552  -0.683  16.777  0.00  0.00    +0.000 A 
ATOM     21  C   UNL     1      34.818  -1.883  16.710  0.00  0.00    +0.000 A 
ATOM     22  C   UNL     1      35.109  -2.837  15.761  0.00  0.00    +0.000 A 
ATOM     23  C   UNL     1      36.136  -2.590  14.878  0.00  0.00    +0.000 A 
ATOM     24  C   UNL     1      36.873  -1.392  14.941  0.00  0.00    +0.000 A 
ATOM     25  C   UNL     1      36.586  -0.432  15.888  0.00  0.00    +0.000 A 
BRANCH  20  27
ATOM     26  C   UNL     1      35.744  -0.160  19.142  0.00  0.00    +0.000 C 
ATOM     27  C   UNL     1      35.229   0.322  17.818  0.00  0.00    +0.000 C 
ENDBRANCH  20  27
BRANCH  24  28
ATOM     28  C   UNL     1      37.988  -1.157  13.994  0.00  0.00    +0.000 C 
ATOM     29  C   UNL     1      39.118  -2.081  14.347  0.00  0.00    +0.000 C 
ENDBRANCH  24  28
ENDBRANCH  17  25
ENDBRANCH  16  18
ENDBRANCH   1  16
TORSDOF 8
ENDMDL
MODEL 7
REMARK VINA RESULT:      -7.3     25.561     28.009
REMARK  Name = 
REMARK  8 active torsions:
REMARK  status: ('A' for Active; 'I' for Inactive)
REMARK    1  A    between atoms: C_2  and  C_3
REMARK    2  A    between atoms: C_7  and  C_8
REMARK    3  A    between atoms: C_10  and  N_11
REMARK    4  A    between atoms: C_12  and  C_14
REMARK    5  A    between atoms: C_14  and  O_15
REMARK    6  A    between atoms: O_15  and  C_16
REMARK    7  A    between atoms: C_16  and  C_18
REMARK    8  A    between atoms: C_21  and  C_22
REMARK                            x       y       z     vdW  Elec       q    Type
REMARK                         _______ _______ _______ _____ _____    ______ ____
ROOT
ATOM      1  O   UNL     1      25.709  14.997  41.733  0.00  0.00    +0.000 OA
ENDROOT
BRANCH   1   2
ATOM      2  C   UNL     1      26.503  15.656  40.808  0.00  0.00    +0.000 C 
ATOM      3  O   UNL     1      27.529  16.231  41.251  0.00  0.00    +0.000 OA
BRANCH   2   4
ATOM      4  C   UNL     1      26.199  15.704  39.390  0.00  0.00    +0.000 A 
ATOM      5  C   UNL     1      27.147  15.303  38.470  0.00  0.00    +0.000 A 
ATOM      6  C   UNL     1      26.903  15.323  37.118  0.00  0.00    +0.000 A 
ATOM      7  C   UNL     1      25.681  15.752  36.635  0.00  0.00    +0.000 A 
ATOM      8  C   UNL     1      24.724  16.154  37.524  0.00  0.00    +0.000 A 
ATOM      9  C   UNL     1      24.996  16.125  38.887  0.00  0.00    +0.000 A 
BRANCH   7  10
ATOM     10  C   UNL     1      25.497  15.748  35.186  0.00  0.00    +0.000 A 
ATOM     11  C   UNL     1      25.080  16.870  34.502  0.00  0.00    +0.000 A 
ATOM     12  C   UNL     1      24.905  16.889  33.131  0.00  0.00    +0.000 A 
ATOM     13  C   UNL     1      25.161  15.732  32.431  0.00  0.00    +0.000 A 
ATOM     14  C   UNL     1      25.575  14.597  33.071  0.00  0.00    +0.000 A 
ATOM     15  C   UNL     1      25.740  14.613  34.441  0.00  0.00    +0.000 A 
ENDBRANCH   7  10
ENDBRANCH   2   4
ENDBRANCH   1   2
BRANCH   1  16
ATOM     16  C   UNL     1      25.465  13.631  41.764  0.00  0.00    +0.000 C 
BRANCH  16  18
ATOM     17  N   UNL     1      27.134  12.044  40.775  0.00  0.00    +0.000 NA
ATOM     18  C   UNL     1      26.656  12.769  41.875  0.00  0.00    +0.000 C 
ATOM     19  O   UNL     1      27.240  12.692  42.974  0.00  0.00    +0.000 OA
BRANCH  17  25
ATOM     20  C   UNL     1      28.164   9.827  41.012  0.00  0.00    +0.000 A 
ATOM     21  C   UNL     1      29.311   9.011  40.996  0.00  0.00    +0.000 A 
ATOM     22  C   UNL     1      30.552   9.543  40.726  0.00  0.00    +0.000 A 
ATOM     23  C   UNL     1      30.644  10.893  40.471  0.00  0.00    +0.000 A 
ATOM     24  C   UNL     1      29.500  11.713  40.486  0.00  0.00    +0.000 A 
ATOM     25  C   UNL     1      28.254  11.187  40.755  0.00  0.00    +0.000 A 
BRANCH  20  27
ATOM     26  C   UNL     1      27.042   7.960  42.089  0.00  0.00    +0.000 C 
ATOM     27  C   UNL     1      26.842   9.233  41.322  0.00  0.00    +0.000 C 
ENDBRANCH  20  27
BRANCH  24  28
ATOM     28  C   UNL     1      29.626  13.167  40.229  0.00  0.00    +0.000 C 
ATOM     29  C   UNL     1      30.815  13.395  39.341  0.00  0.00    +0.000 C 
ENDBRANCH  24  28
ENDBRANCH  17  25
ENDBRANCH  16  18
ENDBRANCH   1  16
TORSDOF 8
ENDMDL
MODEL 8
REMARK VINA RESULT:      -7.3      2.457      3.670
REMARK  Name = 
REMARK  8 active torsions:
REMARK  status: ('A' for Active; 'I' for Inactive)
REMARK    1  A    between atoms: C_2  and  C_3
REMARK    2  A    between atoms: C_7  and  C_8
REMARK    3  A    between atoms: C_10  and  N_11
REMARK    4  A    between atoms: C_12  and  C_14
REMARK    5  A    between atoms: C_14  and  O_15
REMARK    6  A    between atoms: O_15  and  C_16
REMARK    7  A    between atoms: C_16  and  C_18
REMARK    8  A    between atoms: C_21  and  C_22
REMARK                            x       y       z     vdW  Elec       q    Type
REMARK                         _______ _______ _______ _____ _____    ______ ____
ROOT
ATOM      1  O   UNL     1      39.168   0.594  12.276  0.00  0.00    +0.000 OA
ENDROOT
BRANCH   1   2
ATOM      2  C   UNL     1      38.401   1.747  12.260  0.00  0.00    +0.000 C 
ATOM      3  O   UNL     1      37.696   1.944  11.238  0.00  0.00    +0.000 OA
BRANCH   2   4
ATOM      4  C   UNL     1      38.382   2.706  13.349  0.00  0.00    +0.000 A 
ATOM      5  C   UNL     1      39.264   2.567  14.402  0.00  0.00    +0.000 A 
ATOM      6  C   UNL     1      39.289   3.455  15.451  0.00  0.00    +0.000 A 
ATOM      7  C   UNL     1      38.418   4.528  15.481  0.00  0.00    +0.000 A 
ATOM      8  C   UNL     1      37.535   4.688  14.450  0.00  0.00    +0.000 A 
ATOM      9  C   UNL     1      37.528   3.777  13.400  0.00  0.00    +0.000 A 
BRANCH   7  10
ATOM     10  C   UNL     1      38.502   5.424  16.630  0.00  0.00    +0.000 A 
ATOM     11  C   UNL     1      39.008   5.009  17.842  0.00  0.00    +0.000 A 
ATOM     12  C   UNL     1      39.101   5.843  18.941  0.00  0.00    +0.000 A 
ATOM     13  C   UNL     1      38.666   7.141  18.804  0.00  0.00    +0.000 A 
ATOM     14  C   UNL     1      38.156   7.594  17.619  0.00  0.00    +0.000 A 
ATOM     15  C   UNL     1      38.078   6.734  16.543  0.00  0.00    +0.000 A 
ENDBRANCH   7  10
ENDBRANCH   2   4
ENDBRANCH   1   2
BRANCH   1  16
ATOM     16  C   UNL     1      38.704  -0.685  12.555  0.00  0.00    +0.000 C 
BRANCH  16  18
ATOM     17  N   UNL     1      36.669  -0.839  14.011  0.00  0.00    +0.000 NA
ATOM     18  C   UNL     1      38.064  -0.861  13.871  0.00  0.00    +0.000 C 
ATOM     19  O   UNL     1      38.788  -1.034  14.872  0.00  0.00    +0.000 OA
BRANCH  17  25
ATOM     20  C   UNL     1      35.630   0.075  16.040  0.00  0.00    +0.000 A 
ATOM     21  C   UNL     1      34.913  -0.125  17.235  0.00  0.00    +0.000 A 
ATOM     22  C   UNL     1      34.505  -1.386  17.610  0.00  0.00    +0.000 A 
ATOM     23  C   UNL     1      34.814  -2.446  16.789  0.00  0.00    +0.000 A 
ATOM     24  C   UNL     1      35.531  -2.251  15.592  0.00  0.00    +0.000 A 
ATOM     25  C   UNL     1      35.941  -0.992  15.210  0.00  0.00    +0.000 A 
BRANCH  20  27
ATOM     26  C   UNL     1      35.146   2.443  16.286  0.00  0.00    +0.000 C 
ATOM     27  C   UNL     1      36.072   1.439  15.665  0.00  0.00    +0.000 C 
ENDBRANCH  20  27
BRANCH  24  28
ATOM     28  C   UNL     1      35.870  -3.410  14.734  0.00  0.00    +0.000 C 
ATOM     29  C   UNL     1      34.656  -4.283  14.606  0.00  0.00    +0.000 C 
ENDBRANCH  24  28
ENDBRANCH  17  25
ENDBRANCH  16  18
ENDBRANCH   1  16
TORSDOF 8
ENDMDL
MODEL 9
REMARK VINA RESULT:      -7.3      1.978      3.441
REMARK  Name = 
REMARK  8 active torsions:
REMARK  status: ('A' for Active; 'I' for Inactive)
REMARK    1  A    between atoms: C_2  and  C_3
REMARK    2  A    between atoms: C_7  and  C_8
REMARK    3  A    between atoms: C_10  and  N_11
REMARK    4  A    between atoms: C_12  and  C_14
REMARK    5  A    between atoms: C_14  and  O_15
REMARK    6  A    between atoms: O_15  and  C_16
REMARK    7  A    between atoms: C_16  and  C_18
REMARK    8  A    between atoms: C_21  and  C_22
REMARK                            x       y       z     vdW  Elec       q    Type
REMARK                         _______ _______ _______ _____ _____    ______ ____
ROOT
ATOM      1  O   UNL     1      38.612   2.729  15.674  0.00  0.00    +0.000 OA
ENDROOT
BRANCH   1   2
ATOM      2  C   UNL     1      37.862   3.881  15.843  0.00  0.00    +0.000 C 
ATOM      3  O   UNL     1      36.823   3.988  15.145  0.00  0.00    +0.000 OA
BRANCH   2   4
ATOM      4  C   UNL     1      38.224   4.937  16.772  0.00  0.00    +0.000 A 
ATOM      5  C   UNL     1      38.003   6.256  16.432  0.00  0.00    +0.000 A 
ATOM      6  C   UNL     1      38.322   7.288  17.282  0.00  0.00    +0.000 A 
ATOM      7  C   UNL     1      38.880   7.029  18.519  0.00  0.00    +0.000 A 
ATOM      8  C   UNL     1      39.109   5.731  18.880  0.00  0.00    +0.000 A 
ATOM      9  C   UNL     1      38.779   4.704  18.003  0.00  0.00    +0.000 A 
BRANCH   7  10
ATOM     10  C   UNL     1      39.195   8.178  19.364  0.00  0.00    +0.000 A 
ATOM     11  C   UNL     1      40.382   8.867  19.243  0.00  0.00    +0.000 A 
ATOM     12  C   UNL     1      40.698   9.959  20.030  0.00  0.00    +0.000 A 
ATOM     13  C   UNL     1      39.777  10.366  20.969  0.00  0.00    +0.000 A 
ATOM     14  C   UNL     1      38.588   9.709  21.121  0.00  0.00    +0.000 A 
ATOM     15  C   UNL     1      38.306   8.623  20.320  0.00  0.00    +0.000 A 
ENDBRANCH   7  10
ENDBRANCH   2   4
ENDBRANCH   1   2
BRANCH   1  16
ATOM     16  C   UNL     1      38.607   1.917  14.547  0.00  0.00    +0.000 C 
BRANCH  16  18
ATOM     17  N   UNL     1      37.879  -0.174  15.721  0.00  0.00    +0.000 NA
ATOM     18  C   UNL     1      37.773   0.704  14.634  0.00  0.00    +0.000 C 
ATOM     19  O   UNL     1      36.961   0.468  13.717  0.00  0.00    +0.000 OA
BRANCH  17  25
ATOM     20  C   UNL     1      35.930  -1.394  16.585  0.00  0.00    +0.000 A 
ATOM     21  C   UNL     1      35.238  -2.606  16.769  0.00  0.00    +0.000 A 
ATOM     22  C   UNL     1      35.751  -3.791  16.292  0.00  0.00    +0.000 A 
ATOM     23  C   UNL     1      36.957  -3.763  15.629  0.00  0.00    +0.000 A 
ATOM     24  C   UNL     1      37.653  -2.553  15.442  0.00  0.00    +0.000 A 
ATOM     25  C   UNL     1      37.144  -1.363  15.916  0.00  0.00    +0.000 A 
BRANCH  20  27
ATOM     26  C   UNL     1      35.564  -0.099  18.608  0.00  0.00    +0.000 C 
ATOM     27  C   UNL     1      35.365  -0.133  17.122  0.00  0.00    +0.000 C 
ENDBRANCH  20  27
BRANCH  24  28
ATOM     28  C   UNL     1      38.959  -2.551  14.744  0.00  0.00    +0.000 C 
ATOM     29  C   UNL     1      38.721  -2.782  13.280  0.00  0.00    +0.000 C 
ENDBRANCH  24  28
ENDBRANCH  17  25
ENDBRANCH  16  18
ENDBRANCH   1  16
TORSDOF 8
ENDMDL
MODEL 10
REMARK VINA RESULT:      -7.3      2.758      4.055
REMARK  Name = 
REMARK  8 active torsions:
REMARK  status: ('A' for Active; 'I' for Inactive)
REMARK    1  A    between atoms: C_2  and  C_3
REMARK    2  A    between atoms: C_7  and  C_8
REMARK    3  A    between atoms: C_10  and  N_11
REMARK    4  A    between atoms: C_12  and  C_14
REMARK    5  A    between atoms: C_14  and  O_15
REMARK    6  A    between atoms: O_15  and  C_16
REMARK    7  A    between atoms: C_16  and  C_18
REMARK    8  A    between atoms: C_21  and  C_22
REMARK                            x       y       z     vdW  Elec       q    Type
REMARK                         _______ _______ _______ _____ _____    ______ ____
ROOT
ATOM      1  O   UNL     1      38.694   4.500  16.588  0.00  0.00    +0.000 OA
ENDROOT
BRANCH   1   2
ATOM      2  C   UNL     1      38.588   4.730  17.951  0.00  0.00    +0.000 C 
ATOM      3  O   UNL     1      38.294   3.742  18.670  0.00  0.00    +0.000 OA
BRANCH   2   4
ATOM      4  C   UNL     1      38.797   6.032  18.557  0.00  0.00    +0.000 A 
ATOM      5  C   UNL     1      39.795   6.201  19.494  0.00  0.00    +0.000 A 
ATOM      6  C   UNL     1      40.036   7.416  20.089  0.00  0.00    +0.000 A 
ATOM      7  C   UNL     1      39.273   8.520  19.758  0.00  0.00    +0.000 A 
ATOM      8  C   UNL     1      38.278   8.380  18.833  0.00  0.00    +0.000 A 
ATOM      9  C   UNL     1      38.053   7.140  18.245  0.00  0.00    +0.000 A 
BRANCH   7  10
ATOM     10  C   UNL     1      39.586   9.775  20.435  0.00  0.00    +0.000 A 
ATOM     11  C   UNL     1      40.884  10.156  20.699  0.00  0.00    +0.000 A 
ATOM     12  C   UNL     1      41.203  11.342  21.335  0.00  0.00    +0.000 A 
ATOM     13  C   UNL     1      40.170  12.169  21.714  0.00  0.00    +0.000 A 
ATOM     14  C   UNL     1      38.868  11.828  21.471  0.00  0.00    +0.000 A 
ATOM     15  C   UNL     1      38.587  10.637  20.835  0.00  0.00    +0.000 A 
ENDBRANCH   7  10
ENDBRANCH   2   4
ENDBRANCH   1   2
BRANCH   1  16
ATOM     16  C   UNL     1      37.645   4.526  15.678  0.00  0.00    +0.000 C 
BRANCH  16  18
ATOM     17  N   UNL     1      37.583   2.027  15.848  0.00  0.00    +0.000 NA
ATOM     18  C   UNL     1      37.137   3.211  15.247  0.00  0.00    +0.000 C 
ATOM     19  O   UNL     1      36.293   3.166  14.329  0.00  0.00    +0.000 OA
BRANCH  17  25
ATOM     20  C   UNL     1      37.781  -0.032  14.522  0.00  0.00    +0.000 A 
ATOM     21  C   UNL     1      37.335  -1.333  14.223  0.00  0.00    +0.000 A 
ATOM     22  C   UNL     1      36.287  -1.896  14.916  0.00  0.00    +0.000 A 
ATOM     23  C   UNL     1      35.686  -1.158  15.910  0.00  0.00    +0.000 A 
ATOM     24  C   UNL     1      36.129   0.144  16.213  0.00  0.00    +0.000 A 
ATOM     25  C   UNL     1      37.178   0.714  15.524  0.00  0.00    +0.000 A 
BRANCH  20  27
ATOM     26  C   UNL     1      40.201   0.097  14.341  0.00  0.00    +0.000 C 
ATOM     27  C   UNL     1      38.901   0.559  13.752  0.00  0.00    +0.000 C 
ENDBRANCH  20  27
BRANCH  24  28
ATOM     28  C   UNL     1      35.453   0.929  17.272  0.00  0.00    +0.000 C 
ATOM     29  C   UNL     1      35.711   0.269  18.596  0.00  0.00    +0.000 C 
ENDBRANCH  24  28
ENDBRANCH  17  25
ENDBRANCH  16  18
ENDBRANCH   1  16
TORSDOF 8
ENDMDL
