MODEL 1
REMARK VINA RESULT:      -5.3      0.000      0.000
REMARK  Name = 
REMARK  4 active torsions:
REMARK  status: ('A' for Active; 'I' for Inactive)
REMARK    1  A    between atoms: C_6  and  C_7
REMARK    2  A    between atoms: C_7  and  C_8
REMARK    3  A    between atoms: N_9  and  C_10
REMARK    4  A    between atoms: C_16  and  N_17
REMARK                            x       y       z     vdW  Elec       q    Type
REMARK                         _______ _______ _______ _____ _____    ______ ____
ROOT
ATOM      1  C   UNL     1      25.222  24.636  24.870  0.00  0.00    +0.000 C 
ATOM      2  C   UNL     1      26.542  23.966  25.051  0.00  0.00    +0.000 A 
ATOM      3  N   UNL     1      27.031  23.444  26.201  0.00  0.00    +0.000 NA
ATOM      4  N   UNL     1      28.224  22.937  25.981  0.00  0.00    +0.000 N 
ATOM      5  C   UNL     1      29.031  22.294  27.000  0.00  0.00    +0.000 C 
ATOM      6  C   UNL     1      28.559  23.109  24.674  0.00  0.00    +0.000 A 
ATOM      7  C   UNL     1      27.505  23.757  24.080  0.00  0.00    +0.000 A 
ENDROOT
BRANCH   7   8
ATOM      8  N   UNL     1      27.402  24.144  22.721  0.00  0.00    +0.000 N 
ATOM      9  O   UNL     1      28.015  25.139  22.298  0.00  0.00    +0.000 OA
ATOM     10  O   UNL     1      26.624  23.433  21.833  0.00  0.00    +0.000 OA
ENDBRANCH   7   8
BRANCH   6  11
ATOM     11  C   UNL     1      29.834  22.638  24.109  0.00  0.00    +0.000 C 
BRANCH  11  12
ATOM     12  C   UNL     1      30.962  23.570  24.220  0.00  0.00    +0.000 C 
ATOM     13  N   UNL     1      32.046  23.440  24.867  0.00  0.00    +0.000 NA
BRANCH  13  14
ATOM     14  C   UNL     1      33.065  24.460  24.869  0.00  0.00    +0.000 A 
ATOM     15  C   UNL     1      34.363  24.200  24.491  0.00  0.00    +0.000 A 
ATOM     16  C   UNL     1      35.325  25.199  24.483  0.00  0.00    +0.000 A 
ATOM     17  C   UNL     1      34.975  26.481  24.860  0.00  0.00    +0.000 A 
ATOM     18  C   UNL     1      33.694  26.767  25.239  0.00  0.00    +0.000 A 
ATOM     19  C   UNL     1      32.759  25.759  25.239  0.00  0.00    +0.000 A 
ENDBRANCH  13  14
ENDBRANCH  11  12
ENDBRANCH   6  11
TORSDOF 4
ENDMDL
MODEL 2
REMARK VINA RESULT:      -5.2      3.580      4.379
REMARK  Name = 
REMARK  4 active torsions:
REMARK  status: ('A' for Active; 'I' for Inactive)
REMARK    1  A    between atoms: C_6  and  C_7
REMARK    2  A    between atoms: C_7  and  C_8
REMARK    3  A    between atoms: N_9  and  C_10
REMARK    4  A    between atoms: C_16  and  N_17
REMARK                            x       y       z     vdW  Elec       q    Type
REMARK                         _______ _______ _______ _____ _____    ______ ____
ROOT
ATOM      1  C   UNL     1      27.642  26.750  22.408  0.00  0.00    +0.000 C 
ATOM      2  C   UNL     1      27.179  25.841  23.496  0.00  0.00    +0.000 A 
ATOM      3  N   UNL     1      26.335  26.157  24.507  0.00  0.00    +0.000 NA
ATOM      4  N   UNL     1      26.156  25.105  25.275  0.00  0.00    +0.000 N 
ATOM      5  C   UNL     1      25.306  25.095  26.449  0.00  0.00    +0.000 C 
ATOM      6  C   UNL     1      26.879  24.059  24.791  0.00  0.00    +0.000 A 
ATOM      7  C   UNL     1      27.526  24.513  23.670  0.00  0.00    +0.000 A 
ENDROOT
BRANCH   7   8
ATOM      8  N   UNL     1      28.393  23.772  22.830  0.00  0.00    +0.000 N 
ATOM      9  O   UNL     1      27.937  23.065  21.915  0.00  0.00    +0.000 OA
ATOM     10  O   UNL     1      29.761  23.814  22.999  0.00  0.00    +0.000 OA
ENDBRANCH   7   8
BRANCH   6  11
ATOM     11  C   UNL     1      26.881  22.731  25.426  0.00  0.00    +0.000 C 
BRANCH  11  12
ATOM     12  C   UNL     1      27.977  22.476  26.366  0.00  0.00    +0.000 C 
ATOM     13  N   UNL     1      28.482  23.251  27.235  0.00  0.00    +0.000 NA
BRANCH  13  14
ATOM     14  C   UNL     1      29.566  22.841  28.091  0.00  0.00    +0.000 A 
ATOM     15  C   UNL     1      30.720  22.276  27.596  0.00  0.00    +0.000 A 
ATOM     16  C   UNL     1      31.759  21.904  28.435  0.00  0.00    +0.000 A 
ATOM     17  C   UNL     1      31.637  22.106  29.797  0.00  0.00    +0.000 A 
ATOM     18  C   UNL     1      30.503  22.664  30.316  0.00  0.00    +0.000 A 
ATOM     19  C   UNL     1      29.487  23.023  29.462  0.00  0.00    +0.000 A 
ENDBRANCH  13  14
ENDBRANCH  11  12
ENDBRANCH   6  11
TORSDOF 4
ENDMDL
MODEL 3
REMARK VINA RESULT:      -5.1      1.757      2.543
REMARK  Name = 
REMARK  4 active torsions:
REMARK  status: ('A' for Active; 'I' for Inactive)
REMARK    1  A    between atoms: C_6  and  C_7
REMARK    2  A    between atoms: C_7  and  C_8
REMARK    3  A    between atoms: N_9  and  C_10
REMARK    4  A    between atoms: C_16  and  N_17
REMARK                            x       y       z     vdW  Elec       q    Type
REMARK                         _______ _______ _______ _____ _____    ______ ____
ROOT
ATOM      1  C   UNL     1      24.307  25.852  25.202  0.00  0.00    +0.000 C 
ATOM      2  C   UNL     1      25.174  24.912  25.971  0.00  0.00    +0.000 A 
ATOM      3  N   UNL     1      25.133  24.686  27.305  0.00  0.00    +0.000 NA
ATOM      4  N   UNL     1      26.045  23.794  27.627  0.00  0.00    +0.000 N 
ATOM      5  C   UNL     1      26.271  23.319  28.978  0.00  0.00    +0.000 C 
ATOM      6  C   UNL     1      26.716  23.405  26.511  0.00  0.00    +0.000 A 
ATOM      7  C   UNL     1      26.174  24.104  25.461  0.00  0.00    +0.000 A 
ENDROOT
BRANCH   7   8
ATOM      8  N   UNL     1      26.553  24.022  24.099  0.00  0.00    +0.000 N 
ATOM      9  O   UNL     1      26.189  23.064  23.396  0.00  0.00    +0.000 OA
ATOM     10  O   UNL     1      27.333  24.999  23.515  0.00  0.00    +0.000 OA
ENDBRANCH   7   8
BRANCH   6  11
ATOM     11  C   UNL     1      27.797  22.405  26.538  0.00  0.00    +0.000 C 
BRANCH  11  12
ATOM     12  C   UNL     1      29.162  22.940  26.487  0.00  0.00    +0.000 C 
ATOM     13  N   UNL     1      30.041  22.802  25.582  0.00  0.00    +0.000 NA
BRANCH  13  14
ATOM     14  C   UNL     1      31.347  23.402  25.685  0.00  0.00    +0.000 A 
ATOM     15  C   UNL     1      32.124  23.663  24.578  0.00  0.00    +0.000 A 
ATOM     16  C   UNL     1      33.371  24.257  24.696  0.00  0.00    +0.000 A 
ATOM     17  C   UNL     1      33.845  24.597  25.949  0.00  0.00    +0.000 A 
ATOM     18  C   UNL     1      33.096  24.351  27.064  0.00  0.00    +0.000 A 
ATOM     19  C   UNL     1      31.862  23.760  26.920  0.00  0.00    +0.000 A 
ENDBRANCH  13  14
ENDBRANCH  11  12
ENDBRANCH   6  11
TORSDOF 4
ENDMDL
MODEL 4
REMARK VINA RESULT:      -5.1     21.865     23.380
REMARK  Name = 
REMARK  4 active torsions:
REMARK  status: ('A' for Active; 'I' for Inactive)
REMARK    1  A    between atoms: C_6  and  C_7
REMARK    2  A    between atoms: C_7  and  C_8
REMARK    3  A    between atoms: N_9  and  C_10
REMARK    4  A    between atoms: C_16  and  N_17
REMARK                            x       y       z     vdW  Elec       q    Type
REMARK                         _______ _______ _______ _____ _____    ______ ____
ROOT
ATOM      1  C   UNL     1      22.875  -0.809  14.940  0.00  0.00    +0.000 C 
ATOM      2  C   UNL     1      22.636   0.244  15.969  0.00  0.00    +0.000 A 
ATOM      3  N   UNL     1      21.461   0.863  16.232  0.00  0.00    +0.000 NA
ATOM      4  N   UNL     1      21.631   1.734  17.203  0.00  0.00    +0.000 N 
ATOM      5  C   UNL     1      20.573   2.570  17.736  0.00  0.00    +0.000 C 
ATOM      6  C   UNL     1      22.928   1.714  17.611  0.00  0.00    +0.000 A 
ATOM      7  C   UNL     1      23.570   0.777  16.840  0.00  0.00    +0.000 A 
ENDROOT
BRANCH   7   8
ATOM      8  N   UNL     1      24.935   0.409  16.910  0.00  0.00    +0.000 N 
ATOM      9  O   UNL     1      25.292  -0.577  17.578  0.00  0.00    +0.000 OA
ATOM     10  O   UNL     1      25.905   1.128  16.243  0.00  0.00    +0.000 OA
ENDBRANCH   7   8
BRANCH   6  11
ATOM     11  C   UNL     1      23.436   2.571  18.696  0.00  0.00    +0.000 C 
BRANCH  11  12
ATOM     12  C   UNL     1      24.298   3.682  18.278  0.00  0.00    +0.000 C 
ATOM     13  N   UNL     1      25.433   4.027  18.729  0.00  0.00    +0.000 NA
BRANCH  13  14
ATOM     14  C   UNL     1      26.157   5.155  18.201  0.00  0.00    +0.000 A 
ATOM     15  C   UNL     1      27.228   5.715  18.862  0.00  0.00    +0.000 A 
ATOM     16  C   UNL     1      27.923   6.790  18.329  0.00  0.00    +0.000 A 
ATOM     17  C   UNL     1      27.537   7.309  17.108  0.00  0.00    +0.000 A 
ATOM     18  C   UNL     1      26.479   6.773  16.430  0.00  0.00    +0.000 A 
ATOM     19  C   UNL     1      25.806   5.708  16.981  0.00  0.00    +0.000 A 
ENDBRANCH  13  14
ENDBRANCH  11  12
ENDBRANCH   6  11
TORSDOF 4
ENDMDL
MODEL 5
REMARK VINA RESULT:      -5.1      4.192      5.591
REMARK  Name = 
REMARK  4 active torsions:
REMARK  status: ('A' for Active; 'I' for Inactive)
REMARK    1  A    between atoms: C_6  and  C_7
REMARK    2  A    between atoms: C_7  and  C_8
REMARK    3  A    between atoms: N_9  and  C_10
REMARK    4  A    between atoms: C_16  and  N_17
REMARK                            x       y       z     vdW  Elec       q    Type
REMARK                         _______ _______ _______ _____ _____    ______ ____
ROOT
ATOM      1  C   UNL     1      25.440  25.776  31.658  0.00  0.00    +0.000 C 
ATOM      2  C   UNL     1      25.373  25.478  30.198  0.00  0.00    +0.000 A 
ATOM      3  N   UNL     1      24.803  26.250  29.243  0.00  0.00    +0.000 NA
ATOM      4  N   UNL     1      24.935  25.668  28.071  0.00  0.00    +0.000 N 
ATOM      5  C   UNL     1      24.439  26.227  26.828  0.00  0.00    +0.000 C 
ATOM      6  C   UNL     1      25.599  24.490  28.219  0.00  0.00    +0.000 A 
ATOM      7  C   UNL     1      25.879  24.362  29.557  0.00  0.00    +0.000 A 
ENDROOT
BRANCH   7   8
ATOM      8  N   UNL     1      26.564  23.292  30.183  0.00  0.00    +0.000 N 
ATOM      9  O   UNL     1      27.799  23.325  30.323  0.00  0.00    +0.000 OA
ATOM     10  O   UNL     1      25.886  22.188  30.654  0.00  0.00    +0.000 OA
ENDBRANCH   7   8
BRANCH   6  11
ATOM     11  C   UNL     1      25.913  23.604  27.086  0.00  0.00    +0.000 C 
BRANCH  11  12
ATOM     12  C   UNL     1      27.298  23.654  26.604  0.00  0.00    +0.000 C 
ATOM     13  N   UNL     1      27.736  24.005  25.466  0.00  0.00    +0.000 NA
BRANCH  13  14
ATOM     14  C   UNL     1      29.143  24.000  25.151  0.00  0.00    +0.000 A 
ATOM     15  C   UNL     1      29.870  25.162  25.018  0.00  0.00    +0.000 A 
ATOM     16  C   UNL     1      31.226  25.135  24.732  0.00  0.00    +0.000 A 
ATOM     17  C   UNL     1      31.863  23.919  24.579  0.00  0.00    +0.000 A 
ATOM     18  C   UNL     1      31.168  22.751  24.706  0.00  0.00    +0.000 A 
ATOM     19  C   UNL     1      29.823  22.804  24.989  0.00  0.00    +0.000 A 
ENDBRANCH  13  14
ENDBRANCH  11  12
ENDBRANCH   6  11
TORSDOF 4
ENDMDL
MODEL 6
REMARK VINA RESULT:      -5.0     32.886     34.821
REMARK  Name = 
REMARK  4 active torsions:
REMARK  status: ('A' for Active; 'I' for Inactive)
REMARK    1  A    between atoms: C_6  and  C_7
REMARK    2  A    between atoms: C_7  and  C_8
REMARK    3  A    between atoms: N_9  and  C_10
REMARK    4  A    between atoms: C_16  and  N_17
REMARK                            x       y       z     vdW  Elec       q    Type
REMARK                         _______ _______ _______ _____ _____    ______ ____
ROOT
ATOM      1  C   UNL     1      15.267 -11.553  26.667  0.00  0.00    +0.000 C 
ATOM      2  C   UNL     1      16.180 -10.508  27.215  0.00  0.00    +0.000 A 
ATOM      3  N   UNL     1      16.911 -10.592  28.352  0.00  0.00    +0.000 NA
ATOM      4  N   UNL     1      17.596  -9.481  28.517  0.00  0.00    +0.000 N 
ATOM      5  C   UNL     1      18.487  -9.238  29.634  0.00  0.00    +0.000 C 
ATOM      6  C   UNL     1      17.336  -8.629  27.489  0.00  0.00    +0.000 A 
ATOM      7  C   UNL     1      16.445  -9.268  26.664  0.00  0.00    +0.000 A 
ENDROOT
BRANCH   7   8
ATOM      8  N   UNL     1      15.890  -8.766  25.461  0.00  0.00    +0.000 N 
ATOM      9  O   UNL     1      14.858  -8.074  25.479  0.00  0.00    +0.000 OA
ATOM     10  O   UNL     1      16.476  -9.029  24.240  0.00  0.00    +0.000 OA
ENDBRANCH   7   8
BRANCH   6  11
ATOM     11  C   UNL     1      17.960  -7.300  27.379  0.00  0.00    +0.000 C 
BRANCH  11  12
ATOM     12  C   UNL     1      19.216  -7.247  26.622  0.00  0.00    +0.000 C 
ATOM     13  N   UNL     1      20.073  -8.162  26.432  0.00  0.00    +0.000 NA
BRANCH  13  14
ATOM     14  C   UNL     1      21.266  -7.946  25.653  0.00  0.00    +0.000 A 
ATOM     15  C   UNL     1      21.592  -6.710  25.138  0.00  0.00    +0.000 A 
ATOM     16  C   UNL     1      22.754  -6.518  24.405  0.00  0.00    +0.000 A 
ATOM     17  C   UNL     1      23.603  -7.586  24.188  0.00  0.00    +0.000 A 
ATOM     18  C   UNL     1      23.305  -8.822  24.687  0.00  0.00    +0.000 A 
ATOM     19  C   UNL     1      22.147  -8.987  25.409  0.00  0.00    +0.000 A 
ENDBRANCH  13  14
ENDBRANCH  11  12
ENDBRANCH   6  11
TORSDOF 4
ENDMDL
MODEL 7
REMARK VINA RESULT:      -4.9      4.917      7.043
REMARK  Name = 
REMARK  4 active torsions:
REMARK  status: ('A' for Active; 'I' for Inactive)
REMARK    1  A    between atoms: C_6  and  C_7
REMARK    2  A    between atoms: C_7  and  C_8
REMARK    3  A    between atoms: N_9  and  C_10
REMARK    4  A    between atoms: C_16  and  N_17
REMARK                            x       y       z     vdW  Elec       q    Type
REMARK                         _______ _______ _______ _____ _____    ______ ____
ROOT
ATOM      1  C   UNL     1      30.591  24.859  33.034  0.00  0.00    +0.000 C 
ATOM      2  C   UNL     1      29.418  24.466  32.199  0.00  0.00    +0.000 A 
ATOM      3  N   UNL     1      28.242  25.130  32.097  0.00  0.00    +0.000 NA
ATOM      4  N   UNL     1      27.445  24.488  31.271  0.00  0.00    +0.000 N 
ATOM      5  C   UNL     1      26.106  24.928  30.931  0.00  0.00    +0.000 C 
ATOM      6  C   UNL     1      28.074  23.377  30.803  0.00  0.00    +0.000 A 
ATOM      7  C   UNL     1      29.318  23.355  31.382  0.00  0.00    +0.000 A 
ENDROOT
BRANCH   7   8
ATOM      8  N   UNL     1      30.329  22.382  31.187  0.00  0.00    +0.000 N 
ATOM      9  O   UNL     1      30.504  21.475  32.018  0.00  0.00    +0.000 OA
ATOM     10  O   UNL     1      31.145  22.413  30.076  0.00  0.00    +0.000 OA
ENDBRANCH   7   8
BRANCH   6  11
ATOM     11  C   UNL     1      27.447  22.449  29.847  0.00  0.00    +0.000 C 
BRANCH  11  12
ATOM     12  C   UNL     1      27.783  22.666  28.435  0.00  0.00    +0.000 C 
ATOM     13  N   UNL     1      28.706  22.138  27.743  0.00  0.00    +0.000 NA
BRANCH  13  14
ATOM     14  C   UNL     1      28.902  22.460  26.352  0.00  0.00    +0.000 A 
ATOM     15  C   UNL     1      27.878  22.922  25.555  0.00  0.00    +0.000 A 
ATOM     16  C   UNL     1      28.091  23.244  24.223  0.00  0.00    +0.000 A 
ATOM     17  C   UNL     1      29.355  23.100  23.684  0.00  0.00    +0.000 A 
ATOM     18  C   UNL     1      30.389  22.645  24.451  0.00  0.00    +0.000 A 
ATOM     19  C   UNL     1      30.152  22.332  25.769  0.00  0.00    +0.000 A 
ENDBRANCH  13  14
ENDBRANCH  11  12
ENDBRANCH   6  11
TORSDOF 4
ENDMDL
MODEL 8
REMARK VINA RESULT:      -4.8      4.662      6.613
REMARK  Name = 
REMARK  4 active torsions:
REMARK  status: ('A' for Active; 'I' for Inactive)
REMARK    1  A    between atoms: C_6  and  C_7
REMARK    2  A    between atoms: C_7  and  C_8
REMARK    3  A    between atoms: N_9  and  C_10
REMARK    4  A    between atoms: C_16  and  N_17
REMARK                            x       y       z     vdW  Elec       q    Type
REMARK                         _______ _______ _______ _____ _____    ______ ____
ROOT
ATOM      1  C   UNL     1      28.336  26.593  32.584  0.00  0.00    +0.000 C 
ATOM      2  C   UNL     1      28.479  25.231  31.993  0.00  0.00    +0.000 A 
ATOM      3  N   UNL     1      29.503  24.368  32.193  0.00  0.00    +0.000 NA
ATOM      4  N   UNL     1      29.288  23.265  31.510  0.00  0.00    +0.000 N 
ATOM      5  C   UNL     1      30.189  22.128  31.502  0.00  0.00    +0.000 C 
ATOM      6  C   UNL     1      28.111  23.368  30.837  0.00  0.00    +0.000 A 
ATOM      7  C   UNL     1      27.593  24.603  31.135  0.00  0.00    +0.000 A 
ENDROOT
BRANCH   7   8
ATOM      8  N   UNL     1      26.375  25.151  30.664  0.00  0.00    +0.000 N 
ATOM      9  O   UNL     1      25.326  25.021  31.318  0.00  0.00    +0.000 OA
ATOM     10  O   UNL     1      26.317  25.843  29.473  0.00  0.00    +0.000 OA
ENDBRANCH   7   8
BRANCH   6  11
ATOM     11  C   UNL     1      27.582  22.289  29.986  0.00  0.00    +0.000 C 
BRANCH  11  12
ATOM     12  C   UNL     1      27.865  22.412  28.552  0.00  0.00    +0.000 C 
ATOM     13  N   UNL     1      28.971  22.640  27.972  0.00  0.00    +0.000 NA
BRANCH  13  14
ATOM     14  C   UNL     1      29.080  22.729  26.538  0.00  0.00    +0.000 A 
ATOM     15  C   UNL     1      28.026  23.122  25.744  0.00  0.00    +0.000 A 
ATOM     16  C   UNL     1      28.157  23.218  24.367  0.00  0.00    +0.000 A 
ATOM     17  C   UNL     1      29.369  22.916  23.778  0.00  0.00    +0.000 A 
ATOM     18  C   UNL     1      30.432  22.524  24.541  0.00  0.00    +0.000 A 
ATOM     19  C   UNL     1      30.276  22.436  25.904  0.00  0.00    +0.000 A 
ENDBRANCH  13  14
ENDBRANCH  11  12
ENDBRANCH   6  11
TORSDOF 4
ENDMDL
MODEL 9
REMARK VINA RESULT:      -4.7      3.595      6.795
REMARK  Name = 
REMARK  4 active torsions:
REMARK  status: ('A' for Active; 'I' for Inactive)
REMARK    1  A    between atoms: C_6  and  C_7
REMARK    2  A    between atoms: C_7  and  C_8
REMARK    3  A    between atoms: N_9  and  C_10
REMARK    4  A    between atoms: C_16  and  N_17
REMARK                            x       y       z     vdW  Elec       q    Type
REMARK                         _______ _______ _______ _____ _____    ______ ____
ROOT
ATOM      1  C   UNL     1      29.588  25.687  22.620  0.00  0.00    +0.000 C 
ATOM      2  C   UNL     1      28.575  24.819  23.288  0.00  0.00    +0.000 A 
ATOM      3  N   UNL     1      27.364  24.466  22.795  0.00  0.00    +0.000 NA
ATOM      4  N   UNL     1      26.745  23.694  23.661  0.00  0.00    +0.000 N 
ATOM      5  C   UNL     1      25.424  23.134  23.447  0.00  0.00    +0.000 C 
ATOM      6  C   UNL     1      27.532  23.514  24.755  0.00  0.00    +0.000 A 
ATOM      7  C   UNL     1      28.688  24.218  24.529  0.00  0.00    +0.000 A 
ENDROOT
BRANCH   7   8
ATOM      8  N   UNL     1      29.804  24.320  25.394  0.00  0.00    +0.000 N 
ATOM      9  O   UNL     1      29.860  25.216  26.254  0.00  0.00    +0.000 OA
ATOM     10  O   UNL     1      30.857  23.433  25.310  0.00  0.00    +0.000 OA
ENDBRANCH   7   8
BRANCH   6  11
ATOM     11  C   UNL     1      27.124  22.687  25.903  0.00  0.00    +0.000 C 
BRANCH  11  12
ATOM     12  C   UNL     1      26.654  23.421  27.082  0.00  0.00    +0.000 C 
ATOM     13  N   UNL     1      25.738  24.296  27.166  0.00  0.00    +0.000 NA
BRANCH  13  14
ATOM     14  C   UNL     1      25.393  24.927  28.415  0.00  0.00    +0.000 A 
ATOM     15  C   UNL     1      24.450  25.928  28.496  0.00  0.00    +0.000 A 
ATOM     16  C   UNL     1      24.120  26.511  29.710  0.00  0.00    +0.000 A 
ATOM     17  C   UNL     1      24.747  26.079  30.863  0.00  0.00    +0.000 A 
ATOM     18  C   UNL     1      25.686  25.087  30.813  0.00  0.00    +0.000 A 
ATOM     19  C   UNL     1      25.996  24.526  29.596  0.00  0.00    +0.000 A 
ENDBRANCH  13  14
ENDBRANCH  11  12
ENDBRANCH   6  11
TORSDOF 4
ENDMDL
MODEL 10
REMARK VINA RESULT:      -4.7      4.520      6.615
REMARK  Name = 
REMARK  4 active torsions:
REMARK  status: ('A' for Active; 'I' for Inactive)
REMARK    1  A    between atoms: C_6  and  C_7
REMARK    2  A    between atoms: C_7  and  C_8
REMARK    3  A    between atoms: N_9  and  C_10
REMARK    4  A    between atoms: C_16  and  N_17
REMARK                            x       y       z     vdW  Elec       q    Type
REMARK                         _______ _______ _______ _____ _____    ______ ____
ROOT
ATOM      1  C   UNL     1      28.722  24.245  31.781  0.00  0.00    +0.000 C 
ATOM      2  C   UNL     1      27.815  24.798  30.733  0.00  0.00    +0.000 A 
ATOM      3  N   UNL     1      27.668  26.103  30.402  0.00  0.00    +0.000 NA
ATOM      4  N   UNL     1      26.781  26.213  29.437  0.00  0.00    +0.000 N 
ATOM      5  C   UNL     1      26.386  27.475  28.841  0.00  0.00    +0.000 C 
ATOM      6  C   UNL     1      26.317  24.980  29.101  0.00  0.00    +0.000 A 
ATOM      7  C   UNL     1      26.964  24.081  29.913  0.00  0.00    +0.000 A 
ENDROOT
BRANCH   7   8
ATOM      8  N   UNL     1      26.804  22.674  29.920  0.00  0.00    +0.000 N 
ATOM      9  O   UNL     1      27.451  21.959  29.137  0.00  0.00    +0.000 OA
ATOM     10  O   UNL     1      25.930  22.059  30.792  0.00  0.00    +0.000 OA
ENDBRANCH   7   8
BRANCH   6  11
ATOM     11  C   UNL     1      25.318  24.766  28.041  0.00  0.00    +0.000 C 
BRANCH  11  12
ATOM     12  C   UNL     1      25.856  24.528  26.697  0.00  0.00    +0.000 C 
ATOM     13  N   UNL     1      27.010  24.124  26.358  0.00  0.00    +0.000 NA
BRANCH  13  14
ATOM     14  C   UNL     1      27.383  23.938  24.978  0.00  0.00    +0.000 A 
ATOM     15  C   UNL     1      26.614  24.415  23.939  0.00  0.00    +0.000 A 
ATOM     16  C   UNL     1      26.999  24.241  22.619  0.00  0.00    +0.000 A 
ATOM     17  C   UNL     1      28.178  23.577  22.337  0.00  0.00    +0.000 A 
ATOM     18  C   UNL     1      28.960  23.094  23.347  0.00  0.00    +0.000 A 
ATOM     19  C   UNL     1      28.556  23.279  24.649  0.00  0.00    +0.000 A 
ENDBRANCH  13  14
ENDBRANCH  11  12
ENDBRANCH   6  11
TORSDOF 4
ENDMDL
