MODEL 1
REMARK VINA RESULT:      -8.3      0.000      0.000
REMARK  Name = 
REMARK  7 active torsions:
REMARK  status: ('A' for Active; 'I' for Inactive)
REMARK    1  A    between atoms: O_2  and  C_3
REMARK    2  A    between atoms: C_6  and  C_7
REMARK    3  A    between atoms: C_9  and  C_10
REMARK    4  A    between atoms: N_12  and  C_13
REMARK    5  A    between atoms: C_13  and  C_14
REMARK    6  A    between atoms: C_14  and  C_15
REMARK    7  A    between atoms: C_29  and  O_30
REMARK                            x       y       z     vdW  Elec       q    Type
REMARK                         _______ _______ _______ _____ _____    ______ ____
ROOT
ATOM      1  C   UNL     1      38.751  -0.623  14.369  0.00  0.00    +0.000 A 
ATOM      2  C   UNL     1      38.809   0.754  14.426  0.00  0.00    +0.000 A 
ATOM      3  C   UNL     1      37.867   1.503  15.082  0.00  0.00    +0.000 A 
ATOM      4  C   UNL     1      36.820   0.862  15.711  0.00  0.00    +0.000 A 
ATOM      5  C   UNL     1      35.843   1.590  16.387  0.00  0.00    +0.000 A 
ATOM      6  C   UNL     1      34.804   0.945  17.011  0.00  0.00    +0.000 A 
ATOM      7  C   UNL     1      34.760  -0.428  16.946  0.00  0.00    +0.000 A 
ATOM      8  C   UNL     1      35.711  -1.176  16.285  0.00  0.00    +0.000 A 
ATOM      9  C   UNL     1      36.768  -0.511  15.650  0.00  0.00    +0.000 A 
ATOM     10  N   UNL     1      37.716  -1.196  14.996  0.00  0.00    +0.000 NA
ENDROOT
BRANCH   1  14
ATOM     11  C   UNL     1      41.667  -2.896  12.335  0.00  0.00    +0.000 A 
ATOM     12  C   UNL     1      41.909  -2.486  13.627  0.00  0.00    +0.000 A 
ATOM     13  C   UNL     1      40.933  -1.733  14.287  0.00  0.00    +0.000 A 
ATOM     14  C   UNL     1      39.768  -1.414  13.663  0.00  0.00    +0.000 A 
ATOM     15  C   UNL     1      39.563  -1.838  12.383  0.00  0.00    +0.000 A 
ATOM     16  C   UNL     1      40.499  -2.584  11.690  0.00  0.00    +0.000 A 
BRANCH  11  18
ATOM     17  C   UNL     1      43.958  -3.641  12.103  0.00  0.00    +0.000 C 
ATOM     18  O   UNL     1      42.626  -3.638  11.680  0.00  0.00    +0.000 OA
ENDBRANCH  11  18
BRANCH  16  19
ATOM     19  O   UNL     1      40.222  -2.978  10.393  0.00  0.00    +0.000 OA
ATOM     20  C   UNL     1      40.556  -2.161   9.291  0.00  0.00    +0.000 C 
ENDBRANCH  16  19
ENDBRANCH   1  14
BRANCH   3  21
ATOM     21  C   UNL     1      37.930   2.968  15.140  0.00  0.00    +0.000 C 
ATOM     22  O   UNL     1      37.384   3.625  14.218  0.00  0.00    +0.000 OA
ATOM     23  N   UNL     1      38.589   3.629  16.205  0.00  0.00    +0.000 NA
BRANCH  23  24
ATOM     24  C   UNL     1      38.671   5.079  16.290  0.00  0.00    +0.000 C 
BRANCH  24  25
ATOM     25  C   UNL     1      38.521   5.548  17.724  0.00  0.00    +0.000 C 
BRANCH  25  26
ATOM     26  C   UNL     1      39.872   5.946  18.193  0.00  0.00    +0.000 A 
ATOM     27  C   UNL     1      40.927   6.165  17.326  0.00  0.00    +0.000 A 
ATOM     28  C   UNL     1      42.135   6.531  17.882  0.00  0.00    +0.000 A 
ATOM     29  C   UNL     1      42.309   6.678  19.241  0.00  0.00    +0.000 A 
ATOM     30  C   UNL     1      41.259   6.460  20.090  0.00  0.00    +0.000 A 
ATOM     31  C   UNL     1      40.053   6.095  19.543  0.00  0.00    +0.000 A 
ENDBRANCH  25  26
ENDBRANCH  24  25
ENDBRANCH  23  24
ENDBRANCH   3  21
TORSDOF 7
ENDMDL
MODEL 2
REMARK VINA RESULT:      -8.1      2.440      8.681
REMARK  Name = 
REMARK  7 active torsions:
REMARK  status: ('A' for Active; 'I' for Inactive)
REMARK    1  A    between atoms: O_2  and  C_3
REMARK    2  A    between atoms: C_6  and  C_7
REMARK    3  A    between atoms: C_9  and  C_10
REMARK    4  A    between atoms: N_12  and  C_13
REMARK    5  A    between atoms: C_13  and  C_14
REMARK    6  A    between atoms: C_14  and  C_15
REMARK    7  A    between atoms: C_29  and  O_30
REMARK                            x       y       z     vdW  Elec       q    Type
REMARK                         _______ _______ _______ _____ _____    ______ ____
ROOT
ATOM      1  C   UNL     1      37.825   3.732  16.512  0.00  0.00    +0.000 A 
ATOM      2  C   UNL     1      38.502   3.058  15.518  0.00  0.00    +0.000 A 
ATOM      3  C   UNL     1      38.131   1.809  15.092  0.00  0.00    +0.000 A 
ATOM      4  C   UNL     1      37.041   1.198  15.676  0.00  0.00    +0.000 A 
ATOM      5  C   UNL     1      36.634  -0.070  15.270  0.00  0.00    +0.000 A 
ATOM      6  C   UNL     1      35.547  -0.671  15.856  0.00  0.00    +0.000 A 
ATOM      7  C   UNL     1      34.882   0.013  16.845  0.00  0.00    +0.000 A 
ATOM      8  C   UNL     1      35.260   1.269  17.270  0.00  0.00    +0.000 A 
ATOM      9  C   UNL     1      36.370   1.876  16.667  0.00  0.00    +0.000 A 
ATOM     10  N   UNL     1      36.775   3.096  17.046  0.00  0.00    +0.000 NA
ENDROOT
BRANCH   1  14
ATOM     11  C   UNL     1      39.000   7.574  17.803  0.00  0.00    +0.000 A 
ATOM     12  C   UNL     1      38.477   7.416  16.539  0.00  0.00    +0.000 A 
ATOM     13  C   UNL     1      38.093   6.136  16.127  0.00  0.00    +0.000 A 
ATOM     14  C   UNL     1      38.234   5.071  16.959  0.00  0.00    +0.000 A 
ATOM     15  C   UNL     1      38.756   5.266  18.204  0.00  0.00    +0.000 A 
ATOM     16  C   UNL     1      39.150   6.512  18.656  0.00  0.00    +0.000 A 
BRANCH  11  18
ATOM     17  C   UNL     1      40.111   9.682  17.378  0.00  0.00    +0.000 C 
ATOM     18  O   UNL     1      39.381   8.834  18.214  0.00  0.00    +0.000 OA
ENDBRANCH  11  18
BRANCH  16  19
ATOM     19  O   UNL     1      39.672   6.634  19.931  0.00  0.00    +0.000 OA
ATOM     20  C   UNL     1      41.038   6.386  20.192  0.00  0.00    +0.000 C 
ENDBRANCH  16  19
ENDBRANCH   1  14
BRANCH   3  21
ATOM     21  C   UNL     1      38.853   1.094  14.034  0.00  0.00    +0.000 C 
ATOM     22  O   UNL     1      38.452   1.217  12.849  0.00  0.00    +0.000 OA
ATOM     23  N   UNL     1      39.974   0.283  14.335  0.00  0.00    +0.000 NA
BRANCH  23  24
ATOM     24  C   UNL     1      40.712  -0.440  13.309  0.00  0.00    +0.000 C 
BRANCH  24  25
ATOM     25  C   UNL     1      41.038  -1.848  13.765  0.00  0.00    +0.000 C 
BRANCH  25  26
ATOM     26  C   UNL     1      39.756  -2.484  14.157  0.00  0.00    +0.000 A 
ATOM     27  C   UNL     1      38.751  -2.756  13.246  0.00  0.00    +0.000 A 
ATOM     28  C   UNL     1      37.604  -3.351  13.730  0.00  0.00    +0.000 A 
ATOM     29  C   UNL     1      37.442  -3.671  15.061  0.00  0.00    +0.000 A 
ATOM     30  C   UNL     1      38.443  -3.398  15.953  0.00  0.00    +0.000 A 
ATOM     31  C   UNL     1      39.587  -2.806  15.478  0.00  0.00    +0.000 A 
ENDBRANCH  25  26
ENDBRANCH  24  25
ENDBRANCH  23  24
ENDBRANCH   3  21
TORSDOF 7
ENDMDL
MODEL 3
REMARK VINA RESULT:      -8.0      3.805      8.694
REMARK  Name = 
REMARK  7 active torsions:
REMARK  status: ('A' for Active; 'I' for Inactive)
REMARK    1  A    between atoms: O_2  and  C_3
REMARK    2  A    between atoms: C_6  and  C_7
REMARK    3  A    between atoms: C_9  and  C_10
REMARK    4  A    between atoms: N_12  and  C_13
REMARK    5  A    between atoms: C_13  and  C_14
REMARK    6  A    between atoms: C_14  and  C_15
REMARK    7  A    between atoms: C_29  and  O_30
REMARK                            x       y       z     vdW  Elec       q    Type
REMARK                         _______ _______ _______ _____ _____    ______ ____
ROOT
ATOM      1  C   UNL     1      38.880   5.600  17.050  0.00  0.00    +0.000 A 
ATOM      2  C   UNL     1      38.411   4.304  17.006  0.00  0.00    +0.000 A 
ATOM      3  C   UNL     1      37.472   3.892  16.095  0.00  0.00    +0.000 A 
ATOM      4  C   UNL     1      36.974   4.802  15.187  0.00  0.00    +0.000 A 
ATOM      5  C   UNL     1      36.019   4.421  14.248  0.00  0.00    +0.000 A 
ATOM      6  C   UNL     1      35.528   5.334  13.347  0.00  0.00    +0.000 A 
ATOM      7  C   UNL     1      36.005   6.622  13.403  0.00  0.00    +0.000 A 
ATOM      8  C   UNL     1      36.949   7.030  14.321  0.00  0.00    +0.000 A 
ATOM      9  C   UNL     1      37.446   6.093  15.237  0.00  0.00    +0.000 A 
ATOM     10  N   UNL     1      38.365   6.444  16.147  0.00  0.00    +0.000 NA
ENDROOT
BRANCH   1  14
ATOM     11  C   UNL     1      41.777   6.830  19.861  0.00  0.00    +0.000 A 
ATOM     12  C   UNL     1      40.474   6.644  20.269  0.00  0.00    +0.000 A 
ATOM     13  C   UNL     1      39.527   6.236  19.324  0.00  0.00    +0.000 A 
ATOM     14  C   UNL     1      39.886   6.028  18.030  0.00  0.00    +0.000 A 
ATOM     15  C   UNL     1      41.185   6.222  17.663  0.00  0.00    +0.000 A 
ATOM     16  C   UNL     1      42.158   6.626  18.561  0.00  0.00    +0.000 A 
BRANCH  11  18
ATOM     17  C   UNL     1      43.378   6.308  21.599  0.00  0.00    +0.000 C 
ATOM     18  O   UNL     1      42.715   7.232  20.788  0.00  0.00    +0.000 OA
ENDBRANCH  11  18
BRANCH  16  19
ATOM     19  O   UNL     1      43.455   6.802  18.116  0.00  0.00    +0.000 OA
ATOM     20  C   UNL     1      43.755   7.698  17.065  0.00  0.00    +0.000 C 
ENDBRANCH  16  19
ENDBRANCH   1  14
BRANCH   3  21
ATOM     21  C   UNL     1      36.975   2.512  16.052  0.00  0.00    +0.000 C 
ATOM     22  O   UNL     1      37.601   1.674  15.354  0.00  0.00    +0.000 OA
ATOM     23  N   UNL     1      35.819   2.130  16.774  0.00  0.00    +0.000 NA
BRANCH  23  24
ATOM     24  C   UNL     1      35.300   0.770  16.751  0.00  0.00    +0.000 C 
BRANCH  24  25
ATOM     25  C   UNL     1      35.444   0.110  18.108  0.00  0.00    +0.000 C 
BRANCH  25  26
ATOM     26  C   UNL     1      36.540  -0.885  17.991  0.00  0.00    +0.000 A 
ATOM     27  C   UNL     1      37.041  -1.302  16.771  0.00  0.00    +0.000 A 
ATOM     28  C   UNL     1      38.060  -2.230  16.791  0.00  0.00    +0.000 A 
ATOM     29  C   UNL     1      38.575  -2.738  17.965  0.00  0.00    +0.000 A 
ATOM     30  C   UNL     1      38.073  -2.319  19.166  0.00  0.00    +0.000 A 
ATOM     31  C   UNL     1      37.058  -1.393  19.153  0.00  0.00    +0.000 A 
ENDBRANCH  25  26
ENDBRANCH  24  25
ENDBRANCH  23  24
ENDBRANCH   3  21
TORSDOF 7
ENDMDL
MODEL 4
REMARK VINA RESULT:      -7.9      1.486      2.103
REMARK  Name = 
REMARK  7 active torsions:
REMARK  status: ('A' for Active; 'I' for Inactive)
REMARK    1  A    between atoms: O_2  and  C_3
REMARK    2  A    between atoms: C_6  and  C_7
REMARK    3  A    between atoms: C_9  and  C_10
REMARK    4  A    between atoms: N_12  and  C_13
REMARK    5  A    between atoms: C_13  and  C_14
REMARK    6  A    between atoms: C_14  and  C_15
REMARK    7  A    between atoms: C_29  and  O_30
REMARK                            x       y       z     vdW  Elec       q    Type
REMARK                         _______ _______ _______ _____ _____    ______ ____
ROOT
ATOM      1  C   UNL     1      37.938  -0.423  13.497  0.00  0.00    +0.000 A 
ATOM      2  C   UNL     1      37.898   0.882  13.941  0.00  0.00    +0.000 A 
ATOM      3  C   UNL     1      37.099   1.280  14.981  0.00  0.00    +0.000 A 
ATOM      4  C   UNL     1      36.304   0.347  15.612  0.00  0.00    +0.000 A 
ATOM      5  C   UNL     1      35.479   0.715  16.672  0.00  0.00    +0.000 A 
ATOM      6  C   UNL     1      34.690  -0.221  17.294  0.00  0.00    +0.000 A 
ATOM      7  C   UNL     1      34.741  -1.518  16.842  0.00  0.00    +0.000 A 
ATOM      8  C   UNL     1      35.547  -1.913  15.794  0.00  0.00    +0.000 A 
ATOM      9  C   UNL     1      36.349  -0.953  15.164  0.00  0.00    +0.000 A 
ATOM     10  N   UNL     1      37.148  -1.290  14.143  0.00  0.00    +0.000 NA
ENDROOT
BRANCH   1  14
ATOM     11  C   UNL     1      40.410  -1.606  10.287  0.00  0.00    +0.000 A 
ATOM     12  C   UNL     1      40.140  -2.501  11.299  0.00  0.00    +0.000 A 
ATOM     13  C   UNL     1      39.319  -2.093  12.355  0.00  0.00    +0.000 A 
ATOM     14  C   UNL     1      38.799  -0.837  12.381  0.00  0.00    +0.000 A 
ATOM     15  C   UNL     1      39.088   0.021  11.361  0.00  0.00    +0.000 A 
ATOM     16  C   UNL     1      39.895  -0.337  10.296  0.00  0.00    +0.000 A 
BRANCH  11  18
ATOM     17  C   UNL     1      40.901  -3.116   8.460  0.00  0.00    +0.000 C 
ATOM     18  O   UNL     1      41.219  -2.004   9.244  0.00  0.00    +0.000 OA
ENDBRANCH  11  18
BRANCH  16  19
ATOM     19  O   UNL     1      40.145   0.588   9.298  0.00  0.00    +0.000 OA
ATOM     20  C   UNL     1      39.223   0.801   8.249  0.00  0.00    +0.000 C 
ENDBRANCH  16  19
ENDBRANCH   1  14
BRANCH   3  21
ATOM     21  C   UNL     1      37.058   2.670  15.450  0.00  0.00    +0.000 C 
ATOM     22  O   UNL     1      36.267   3.468  14.884  0.00  0.00    +0.000 OA
ATOM     23  N   UNL     1      37.885   3.107  16.513  0.00  0.00    +0.000 NA
BRANCH  23  24
ATOM     24  C   UNL     1      37.868   4.478  17.002  0.00  0.00    +0.000 C 
BRANCH  24  25
ATOM     25  C   UNL     1      39.004   5.282  16.402  0.00  0.00    +0.000 C 
BRANCH  25  26
ATOM     26  C   UNL     1      39.843   5.756  17.532  0.00  0.00    +0.000 A 
ATOM     27  C   UNL     1      39.380   5.803  18.835  0.00  0.00    +0.000 A 
ATOM     28  C   UNL     1      40.253   6.261  19.799  0.00  0.00    +0.000 A 
ATOM     29  C   UNL     1      41.538   6.663  19.502  0.00  0.00    +0.000 A 
ATOM     30  C   UNL     1      41.986   6.613  18.211  0.00  0.00    +0.000 A 
ATOM     31  C   UNL     1      41.121   6.156  17.246  0.00  0.00    +0.000 A 
ENDBRANCH  25  26
ENDBRANCH  24  25
ENDBRANCH  23  24
ENDBRANCH   3  21
TORSDOF 7
ENDMDL
MODEL 5
REMARK VINA RESULT:      -7.8      3.450      9.280
REMARK  Name = 
REMARK  7 active torsions:
REMARK  status: ('A' for Active; 'I' for Inactive)
REMARK    1  A    between atoms: O_2  and  C_3
REMARK    2  A    between atoms: C_6  and  C_7
REMARK    3  A    between atoms: C_9  and  C_10
REMARK    4  A    between atoms: N_12  and  C_13
REMARK    5  A    between atoms: C_13  and  C_14
REMARK    6  A    between atoms: C_14  and  C_15
REMARK    7  A    between atoms: C_29  and  O_30
REMARK                            x       y       z     vdW  Elec       q    Type
REMARK                         _______ _______ _______ _____ _____    ______ ____
ROOT
ATOM      1  C   UNL     1      38.445   4.822  17.117  0.00  0.00    +0.000 A 
ATOM      2  C   UNL     1      37.431   3.903  17.279  0.00  0.00    +0.000 A 
ATOM      3  C   UNL     1      37.207   2.889  16.384  0.00  0.00    +0.000 A 
ATOM      4  C   UNL     1      38.022   2.780  15.277  0.00  0.00    +0.000 A 
ATOM      5  C   UNL     1      37.824   1.764  14.346  0.00  0.00    +0.000 A 
ATOM      6  C   UNL     1      38.641   1.661  13.246  0.00  0.00    +0.000 A 
ATOM      7  C   UNL     1      39.648   2.585  13.097  0.00  0.00    +0.000 A 
ATOM      8  C   UNL     1      39.869   3.602  14.002  0.00  0.00    +0.000 A 
ATOM      9  C   UNL     1      39.031   3.700  15.121  0.00  0.00    +0.000 A 
ATOM     10  N   UNL     1      39.208   4.672  16.027  0.00  0.00    +0.000 NA
ENDROOT
BRANCH   1  14
ATOM     11  C   UNL     1      39.101   7.933  19.893  0.00  0.00    +0.000 A 
ATOM     12  C   UNL     1      39.862   6.787  19.969  0.00  0.00    +0.000 A 
ATOM     13  C   UNL     1      39.632   5.766  19.041  0.00  0.00    +0.000 A 
ATOM     14  C   UNL     1      38.675   5.904  18.085  0.00  0.00    +0.000 A 
ATOM     15  C   UNL     1      37.942   7.052  18.041  0.00  0.00    +0.000 A 
ATOM     16  C   UNL     1      38.133   8.089  18.936  0.00  0.00    +0.000 A 
BRANCH  11  18
ATOM     17  C   UNL     1      40.352   9.871  20.625  0.00  0.00    +0.000 C 
ATOM     18  O   UNL     1      39.324   8.942  20.805  0.00  0.00    +0.000 OA
ENDBRANCH  11  18
BRANCH  16  19
ATOM     19  O   UNL     1      37.351   9.225  18.831  0.00  0.00    +0.000 OA
ATOM     20  C   UNL     1      37.436  10.072  17.703  0.00  0.00    +0.000 C 
ENDBRANCH  16  19
ENDBRANCH   1  14
BRANCH   3  21
ATOM     21  C   UNL     1      36.125   1.913  16.559  0.00  0.00    +0.000 C 
ATOM     22  O   UNL     1      35.007   2.162  16.041  0.00  0.00    +0.000 OA
ATOM     23  N   UNL     1      36.332   0.719  17.292  0.00  0.00    +0.000 NA
BRANCH  23  24
ATOM     24  C   UNL     1      35.280  -0.269  17.484  0.00  0.00    +0.000 C 
BRANCH  24  25
ATOM     25  C   UNL     1      35.848  -1.674  17.478  0.00  0.00    +0.000 C 
BRANCH  25  26
ATOM     26  C   UNL     1      36.798  -1.753  16.340  0.00  0.00    +0.000 A 
ATOM     27  C   UNL     1      36.380  -1.826  15.024  0.00  0.00    +0.000 A 
ATOM     28  C   UNL     1      37.357  -1.895  14.053  0.00  0.00    +0.000 A 
ATOM     29  C   UNL     1      38.702  -1.892  14.357  0.00  0.00    +0.000 A 
ATOM     30  C   UNL     1      39.105  -1.819  15.662  0.00  0.00    +0.000 A 
ATOM     31  C   UNL     1      38.136  -1.750  16.633  0.00  0.00    +0.000 A 
ENDBRANCH  25  26
ENDBRANCH  24  25
ENDBRANCH  23  24
ENDBRANCH   3  21
TORSDOF 7
ENDMDL
MODEL 6
REMARK VINA RESULT:      -7.8     24.538     28.883
REMARK  Name = 
REMARK  7 active torsions:
REMARK  status: ('A' for Active; 'I' for Inactive)
REMARK    1  A    between atoms: O_2  and  C_3
REMARK    2  A    between atoms: C_6  and  C_7
REMARK    3  A    between atoms: C_9  and  C_10
REMARK    4  A    between atoms: N_12  and  C_13
REMARK    5  A    between atoms: C_13  and  C_14
REMARK    6  A    between atoms: C_14  and  C_15
REMARK    7  A    between atoms: C_29  and  O_30
REMARK                            x       y       z     vdW  Elec       q    Type
REMARK                         _______ _______ _______ _____ _____    ______ ____
ROOT
ATOM      1  C   UNL     1      10.943  -0.709  25.757  0.00  0.00    +0.000 A 
ATOM      2  C   UNL     1      12.141  -0.773  26.437  0.00  0.00    +0.000 A 
ATOM      3  C   UNL     1      12.740   0.335  26.978  0.00  0.00    +0.000 A 
ATOM      4  C   UNL     1      12.128   1.564  26.839  0.00  0.00    +0.000 A 
ATOM      5  C   UNL     1      12.707   2.711  27.373  0.00  0.00    +0.000 A 
ATOM      6  C   UNL     1      12.091   3.931  27.231  0.00  0.00    +0.000 A 
ATOM      7  C   UNL     1      10.897   3.980  26.550  0.00  0.00    +0.000 A 
ATOM      8  C   UNL     1      10.300   2.861  26.009  0.00  0.00    +0.000 A 
ATOM      9  C   UNL     1      10.934   1.620  26.158  0.00  0.00    +0.000 A 
ATOM     10  N   UNL     1      10.390   0.506  25.650  0.00  0.00    +0.000 NA
ENDROOT
BRANCH   1  14
ATOM     11  C   UNL     1       9.135  -4.146  24.106  0.00  0.00    +0.000 A 
ATOM     12  C   UNL     1       8.343  -3.165  24.662  0.00  0.00    +0.000 A 
ATOM     13  C   UNL     1       8.958  -2.033  25.205  0.00  0.00    +0.000 A 
ATOM     14  C   UNL     1      10.311  -1.904  25.183  0.00  0.00    +0.000 A 
ATOM     15  C   UNL     1      11.063  -2.895  24.624  0.00  0.00    +0.000 A 
ATOM     16  C   UNL     1      10.500  -4.034  24.075  0.00  0.00    +0.000 A 
BRANCH  11  18
ATOM     17  C   UNL     1       7.800  -5.197  22.382  0.00  0.00    +0.000 C 
ATOM     18  O   UNL     1       8.533  -5.264  23.569  0.00  0.00    +0.000 OA
ENDBRANCH  11  18
BRANCH  16  19
ATOM     19  O   UNL     1      11.326  -4.997  23.525  0.00  0.00    +0.000 OA
ATOM     20  C   UNL     1      11.594  -5.030  22.138  0.00  0.00    +0.000 C 
ENDBRANCH  16  19
ENDBRANCH   1  14
BRANCH   3  21
ATOM     21  C   UNL     1      14.015   0.264  27.701  0.00  0.00    +0.000 C 
ATOM     22  O   UNL     1      13.986   0.070  28.943  0.00  0.00    +0.000 OA
ATOM     23  N   UNL     1      15.248   0.410  27.022  0.00  0.00    +0.000 NA
BRANCH  23  24
ATOM     24  C   UNL     1      16.529   0.345  27.710  0.00  0.00    +0.000 C 
BRANCH  24  25
ATOM     25  C   UNL     1      17.548   1.252  27.050  0.00  0.00    +0.000 C 
BRANCH  25  26
ATOM     26  C   UNL     1      18.239   0.446  26.012  0.00  0.00    +0.000 A 
ATOM     27  C   UNL     1      18.805   1.010  24.884  0.00  0.00    +0.000 A 
ATOM     28  C   UNL     1      19.420   0.158  23.991  0.00  0.00    +0.000 A 
ATOM     29  C   UNL     1      19.481  -1.205  24.193  0.00  0.00    +0.000 A 
ATOM     30  C   UNL     1      18.918  -1.753  25.312  0.00  0.00    +0.000 A 
ATOM     31  C   UNL     1      18.304  -0.909  26.205  0.00  0.00    +0.000 A 
ENDBRANCH  25  26
ENDBRANCH  24  25
ENDBRANCH  23  24
ENDBRANCH   3  21
TORSDOF 7
ENDMDL
MODEL 7
REMARK VINA RESULT:      -7.7     24.739     29.100
REMARK  Name = 
REMARK  7 active torsions:
REMARK  status: ('A' for Active; 'I' for Inactive)
REMARK    1  A    between atoms: O_2  and  C_3
REMARK    2  A    between atoms: C_6  and  C_7
REMARK    3  A    between atoms: C_9  and  C_10
REMARK    4  A    between atoms: N_12  and  C_13
REMARK    5  A    between atoms: C_13  and  C_14
REMARK    6  A    between atoms: C_14  and  C_15
REMARK    7  A    between atoms: C_29  and  O_30
REMARK                            x       y       z     vdW  Elec       q    Type
REMARK                         _______ _______ _______ _____ _____    ______ ____
ROOT
ATOM      1  C   UNL     1      10.889  -0.625  25.779  0.00  0.00    +0.000 A 
ATOM      2  C   UNL     1      12.089  -0.699  26.455  0.00  0.00    +0.000 A 
ATOM      3  C   UNL     1      12.702   0.405  26.989  0.00  0.00    +0.000 A 
ATOM      4  C   UNL     1      12.101   1.639  26.848  0.00  0.00    +0.000 A 
ATOM      5  C   UNL     1      12.694   2.783  27.377  0.00  0.00    +0.000 A 
ATOM      6  C   UNL     1      12.089   4.007  27.233  0.00  0.00    +0.000 A 
ATOM      7  C   UNL     1      10.893   4.066  26.558  0.00  0.00    +0.000 A 
ATOM      8  C   UNL     1      10.282   2.951  26.023  0.00  0.00    +0.000 A 
ATOM      9  C   UNL     1      10.905   1.705  26.173  0.00  0.00    +0.000 A 
ATOM     10  N   UNL     1      10.348   0.595  25.671  0.00  0.00    +0.000 NA
ENDROOT
BRANCH   1  14
ATOM     11  C   UNL     1       9.028  -4.043  24.146  0.00  0.00    +0.000 A 
ATOM     12  C   UNL     1      10.013  -4.198  25.097  0.00  0.00    +0.000 A 
ATOM     13  C   UNL     1      10.619  -3.055  25.628  0.00  0.00    +0.000 A 
ATOM     14  C   UNL     1      10.243  -1.816  25.212  0.00  0.00    +0.000 A 
ATOM     15  C   UNL     1       9.265  -1.702  24.269  0.00  0.00    +0.000 A 
ATOM     16  C   UNL     1       8.637  -2.803  23.714  0.00  0.00    +0.000 A 
BRANCH  11  18
ATOM     17  C   UNL     1       9.013  -5.879  22.570  0.00  0.00    +0.000 C 
ATOM     18  O   UNL     1       8.428  -5.166  23.620  0.00  0.00    +0.000 OA
ENDBRANCH  11  18
BRANCH  16  19
ATOM     19  O   UNL     1       7.653  -2.609  22.761  0.00  0.00    +0.000 OA
ATOM     20  C   UNL     1       7.844  -1.720  21.680  0.00  0.00    +0.000 C 
ENDBRANCH  16  19
ENDBRANCH   1  14
BRANCH   3  21
ATOM     21  C   UNL     1      13.979   0.323  27.706  0.00  0.00    +0.000 C 
ATOM     22  O   UNL     1      13.953   0.204  28.958  0.00  0.00    +0.000 OA
ATOM     23  N   UNL     1      15.212   0.378  27.012  0.00  0.00    +0.000 NA
BRANCH  23  24
ATOM     24  C   UNL     1      16.495   0.300  27.694  0.00  0.00    +0.000 C 
BRANCH  24  25
ATOM     25  C   UNL     1      17.525   1.180  27.015  0.00  0.00    +0.000 C 
BRANCH  25  26
ATOM     26  C   UNL     1      18.233   0.332  26.023  0.00  0.00    +0.000 A 
ATOM     27  C   UNL     1      18.347  -1.039  26.162  0.00  0.00    +0.000 A 
ATOM     28  C   UNL     1      19.027  -1.720  25.174  0.00  0.00    +0.000 A 
ATOM     29  C   UNL     1      19.581  -1.082  24.084  0.00  0.00    +0.000 A 
ATOM     30  C   UNL     1      19.463   0.274  23.957  0.00  0.00    +0.000 A 
ATOM     31  C   UNL     1      18.786   0.958  24.937  0.00  0.00    +0.000 A 
ENDBRANCH  25  26
ENDBRANCH  24  25
ENDBRANCH  23  24
ENDBRANCH   3  21
TORSDOF 7
ENDMDL
MODEL 8
REMARK VINA RESULT:      -7.7      4.092      8.869
REMARK  Name = 
REMARK  7 active torsions:
REMARK  status: ('A' for Active; 'I' for Inactive)
REMARK    1  A    between atoms: O_2  and  C_3
REMARK    2  A    between atoms: C_6  and  C_7
REMARK    3  A    between atoms: C_9  and  C_10
REMARK    4  A    between atoms: N_12  and  C_13
REMARK    5  A    between atoms: C_13  and  C_14
REMARK    6  A    between atoms: C_14  and  C_15
REMARK    7  A    between atoms: C_29  and  O_30
REMARK                            x       y       z     vdW  Elec       q    Type
REMARK                         _______ _______ _______ _____ _____    ______ ____
ROOT
ATOM      1  C   UNL     1      36.001   3.828  13.877  0.00  0.00    +0.000 A 
ATOM      2  C   UNL     1      36.790   2.907  13.221  0.00  0.00    +0.000 A 
ATOM      3  C   UNL     1      36.925   1.614  13.654  0.00  0.00    +0.000 A 
ATOM      4  C   UNL     1      36.251   1.212  14.789  0.00  0.00    +0.000 A 
ATOM      5  C   UNL     1      36.366  -0.093  15.260  0.00  0.00    +0.000 A 
ATOM      6  C   UNL     1      35.691  -0.485  16.390  0.00  0.00    +0.000 A 
ATOM      7  C   UNL     1      34.907   0.444  17.034  0.00  0.00    +0.000 A 
ATOM      8  C   UNL     1      34.775   1.744  16.592  0.00  0.00    +0.000 A 
ATOM      9  C   UNL     1      35.466   2.136  15.438  0.00  0.00    +0.000 A 
ATOM     10  N   UNL     1      35.367   3.388  14.971  0.00  0.00    +0.000 NA
ENDROOT
BRANCH   1  14
ATOM     11  C   UNL     1      35.603   7.803  12.516  0.00  0.00    +0.000 A 
ATOM     12  C   UNL     1      35.942   6.813  11.621  0.00  0.00    +0.000 A 
ATOM     13  C   UNL     1      36.070   5.501  12.089  0.00  0.00    +0.000 A 
ATOM     14  C   UNL     1      35.863   5.211  13.401  0.00  0.00    +0.000 A 
ATOM     15  C   UNL     1      35.528   6.218  14.257  0.00  0.00    +0.000 A 
ATOM     16  C   UNL     1      35.391   7.530  13.842  0.00  0.00    +0.000 A 
BRANCH  11  18
ATOM     17  C   UNL     1      34.599   9.421  11.022  0.00  0.00    +0.000 C 
ATOM     18  O   UNL     1      35.476   9.098  12.061  0.00  0.00    +0.000 OA
ENDBRANCH  11  18
BRANCH  16  19
ATOM     19  O   UNL     1      35.049   8.499  14.768  0.00  0.00    +0.000 OA
ATOM     20  C   UNL     1      33.704   8.713  15.144  0.00  0.00    +0.000 C 
ENDBRANCH  16  19
ENDBRANCH   1  14
BRANCH   3  21
ATOM     21  C   UNL     1      37.767   0.636  12.955  0.00  0.00    +0.000 C 
ATOM     22  O   UNL     1      37.297   0.064  11.938  0.00  0.00    +0.000 OA
ATOM     23  N   UNL     1      39.074   0.339  13.410  0.00  0.00    +0.000 NA
BRANCH  23  24
ATOM     24  C   UNL     1      39.933  -0.626  12.738  0.00  0.00    +0.000 C 
BRANCH  24  25
ATOM     25  C   UNL     1      40.474  -1.646  13.720  0.00  0.00    +0.000 C 
BRANCH  25  26
ATOM     26  C   UNL     1      39.310  -2.405  14.241  0.00  0.00    +0.000 A 
ATOM     27  C   UNL     1      38.331  -2.929  13.415  0.00  0.00    +0.000 A 
ATOM     28  C   UNL     1      37.298  -3.616  14.016  0.00  0.00    +0.000 A 
ATOM     29  C   UNL     1      37.221  -3.788  15.382  0.00  0.00    +0.000 A 
ATOM     30  C   UNL     1      38.193  -3.267  16.190  0.00  0.00    +0.000 A 
ATOM     31  C   UNL     1      39.225  -2.581  15.597  0.00  0.00    +0.000 A 
ENDBRANCH  25  26
ENDBRANCH  24  25
ENDBRANCH  23  24
ENDBRANCH   3  21
TORSDOF 7
ENDMDL
MODEL 9
REMARK VINA RESULT:      -7.7      1.781      2.796
REMARK  Name = 
REMARK  7 active torsions:
REMARK  status: ('A' for Active; 'I' for Inactive)
REMARK    1  A    between atoms: O_2  and  C_3
REMARK    2  A    between atoms: C_6  and  C_7
REMARK    3  A    between atoms: C_9  and  C_10
REMARK    4  A    between atoms: N_12  and  C_13
REMARK    5  A    between atoms: C_13  and  C_14
REMARK    6  A    between atoms: C_14  and  C_15
REMARK    7  A    between atoms: C_29  and  O_30
REMARK                            x       y       z     vdW  Elec       q    Type
REMARK                         _______ _______ _______ _____ _____    ______ ____
ROOT
ATOM      1  C   UNL     1      40.563  -1.151  14.288  0.00  0.00    +0.000 A 
ATOM      2  C   UNL     1      40.274   0.195  14.211  0.00  0.00    +0.000 A 
ATOM      3  C   UNL     1      39.062   0.710  14.591  0.00  0.00    +0.000 A 
ATOM      4  C   UNL     1      38.090  -0.144  15.069  0.00  0.00    +0.000 A 
ATOM      5  C   UNL     1      36.846   0.342  15.464  0.00  0.00    +0.000 A 
ATOM      6  C   UNL     1      35.885  -0.515  15.939  0.00  0.00    +0.000 A 
ATOM      7  C   UNL     1      36.187  -1.855  16.011  0.00  0.00    +0.000 A 
ATOM      8  C   UNL     1      37.409  -2.367  15.627  0.00  0.00    +0.000 A 
ATOM      9  C   UNL     1      38.385  -1.486  15.143  0.00  0.00    +0.000 A 
ATOM     10  N   UNL     1      39.587  -1.937  14.759  0.00  0.00    +0.000 NA
ENDROOT
BRANCH   1  14
ATOM     11  C   UNL     1      44.311  -2.695  13.115  0.00  0.00    +0.000 A 
ATOM     12  C   UNL     1      43.201  -2.953  12.342  0.00  0.00    +0.000 A 
ATOM     13  C   UNL     1      41.967  -2.434  12.745  0.00  0.00    +0.000 A 
ATOM     14  C   UNL     1      41.866  -1.690  13.878  0.00  0.00    +0.000 A 
ATOM     15  C   UNL     1      42.987  -1.455  14.618  0.00  0.00    +0.000 A 
ATOM     16  C   UNL     1      44.229  -1.948  14.261  0.00  0.00    +0.000 A 
BRANCH  11  18
ATOM     17  C   UNL     1      45.640  -4.484  12.172  0.00  0.00    +0.000 C 
ATOM     18  O   UNL     1      45.530  -3.205  12.723  0.00  0.00    +0.000 OA
ENDBRANCH  11  18
BRANCH  16  19
ATOM     19  O   UNL     1      45.322  -1.669  15.062  0.00  0.00    +0.000 OA
ATOM     20  C   UNL     1      45.655  -2.492  16.161  0.00  0.00    +0.000 C 
ENDBRANCH  16  19
ENDBRANCH   1  14
BRANCH   3  21
ATOM     21  C   UNL     1      38.757   2.143  14.507  0.00  0.00    +0.000 C 
ATOM     22  O   UNL     1      38.259   2.585  13.440  0.00  0.00    +0.000 OA
ATOM     23  N   UNL     1      39.015   3.010  15.597  0.00  0.00    +0.000 NA
BRANCH  23  24
ATOM     24  C   UNL     1      38.725   4.435  15.545  0.00  0.00    +0.000 C 
BRANCH  24  25
ATOM     25  C   UNL     1      38.215   4.934  16.881  0.00  0.00    +0.000 C 
BRANCH  25  26
ATOM     26  C   UNL     1      39.374   5.526  17.594  0.00  0.00    +0.000 A 
ATOM     27  C   UNL     1      40.537   5.900  16.945  0.00  0.00    +0.000 A 
ATOM     28  C   UNL     1      41.546   6.439  17.714  0.00  0.00    +0.000 A 
ATOM     29  C   UNL     1      41.425   6.610  19.078  0.00  0.00    +0.000 A 
ATOM     30  C   UNL     1      40.271   6.237  19.710  0.00  0.00    +0.000 A 
ATOM     31  C   UNL     1      39.263   5.700  18.949  0.00  0.00    +0.000 A 
ENDBRANCH  25  26
ENDBRANCH  24  25
ENDBRANCH  23  24
ENDBRANCH   3  21
TORSDOF 7
ENDMDL
MODEL 10
REMARK VINA RESULT:      -7.5      1.845      2.664
REMARK  Name = 
REMARK  7 active torsions:
REMARK  status: ('A' for Active; 'I' for Inactive)
REMARK    1  A    between atoms: O_2  and  C_3
REMARK    2  A    between atoms: C_6  and  C_7
REMARK    3  A    between atoms: C_9  and  C_10
REMARK    4  A    between atoms: N_12  and  C_13
REMARK    5  A    between atoms: C_13  and  C_14
REMARK    6  A    between atoms: C_14  and  C_15
REMARK    7  A    between atoms: C_29  and  O_30
REMARK                            x       y       z     vdW  Elec       q    Type
REMARK                         _______ _______ _______ _____ _____    ______ ____
ROOT
ATOM      1  C   UNL     1      39.808  -2.178  14.331  0.00  0.00    +0.000 A 
ATOM      2  C   UNL     1      39.038  -1.035  14.278  0.00  0.00    +0.000 A 
ATOM      3  C   UNL     1      38.221  -0.650  15.309  0.00  0.00    +0.000 A 
ATOM      4  C   UNL     1      38.161  -1.431  16.445  0.00  0.00    +0.000 A 
ATOM      5  C   UNL     1      37.342  -1.073  17.512  0.00  0.00    +0.000 A 
ATOM      6  C   UNL     1      37.288  -1.856  18.639  0.00  0.00    +0.000 A 
ATOM      7  C   UNL     1      38.061  -2.992  18.678  0.00  0.00    +0.000 A 
ATOM      8  C   UNL     1      38.881  -3.374  17.637  0.00  0.00    +0.000 A 
ATOM      9  C   UNL     1      38.931  -2.570  16.490  0.00  0.00    +0.000 A 
ATOM     10  N   UNL     1      39.714  -2.900  15.454  0.00  0.00    +0.000 NA
ENDROOT
BRANCH   1  14
ATOM     11  C   UNL     1      42.307  -3.329  11.131  0.00  0.00    +0.000 A 
ATOM     12  C   UNL     1      42.813  -3.310  12.412  0.00  0.00    +0.000 A 
ATOM     13  C   UNL     1      41.971  -2.926  13.461  0.00  0.00    +0.000 A 
ATOM     14  C   UNL     1      40.680  -2.579  13.219  0.00  0.00    +0.000 A 
ATOM     15  C   UNL     1      40.214  -2.609  11.937  0.00  0.00    +0.000 A 
ATOM     16  C   UNL     1      41.008  -2.981  10.868  0.00  0.00    +0.000 A 
BRANCH  11  18
ATOM     17  C   UNL     1      44.007  -2.797   9.493  0.00  0.00    +0.000 C 
ATOM     18  O   UNL     1      43.133  -3.706  10.094  0.00  0.00    +0.000 OA
ENDBRANCH  11  18
BRANCH  16  19
ATOM     19  O   UNL     1      40.466  -2.989   9.595  0.00  0.00    +0.000 OA
ATOM     20  C   UNL     1      40.447  -1.821   8.799  0.00  0.00    +0.000 C 
ENDBRANCH  16  19
ENDBRANCH   1  14
BRANCH   3  21
ATOM     21  C   UNL     1      37.402   0.566  15.250  0.00  0.00    +0.000 C 
ATOM     22  O   UNL     1      36.248   0.485  14.756  0.00  0.00    +0.000 OA
ATOM     23  N   UNL     1      37.895   1.802  15.734  0.00  0.00    +0.000 NA
BRANCH  23  24
ATOM     24  C   UNL     1      37.109   3.026  15.689  0.00  0.00    +0.000 C 
BRANCH  24  25
ATOM     25  C   UNL     1      37.923   4.174  15.126  0.00  0.00    +0.000 C 
BRANCH  25  26
ATOM     26  C   UNL     1      38.663   4.779  16.262  0.00  0.00    +0.000 A 
ATOM     27  C   UNL     1      38.239   4.664  17.573  0.00  0.00    +0.000 A 
ATOM     28  C   UNL     1      39.011   5.268  18.543  0.00  0.00    +0.000 A 
ATOM     29  C   UNL     1      40.163   5.965  18.242  0.00  0.00    +0.000 A 
ATOM     30  C   UNL     1      40.574   6.072  16.942  0.00  0.00    +0.000 A 
ATOM     31  C   UNL     1      39.809   5.472  15.972  0.00  0.00    +0.000 A 
ENDBRANCH  25  26
ENDBRANCH  24  25
ENDBRANCH  23  24
ENDBRANCH   3  21
TORSDOF 7
ENDMDL
