MODEL 1
REMARK VINA RESULT:      -6.1      0.000      0.000
REMARK  Name = 
REMARK  3 active torsions:
REMARK  status: ('A' for Active; 'I' for Inactive)
REMARK    1  A    between atoms: C_6  and  C_7
REMARK    2  A    between atoms: N_9  and  C_10
REMARK    3  A    between atoms: C_10  and  C_11
REMARK                            x       y       z     vdW  Elec       q    Type
REMARK                         _______ _______ _______ _____ _____    ______ ____
ROOT
ATOM      1  N   UNL     1      33.815   0.148  37.589  0.00  0.00    +0.000 NA
ATOM      2  C   UNL     1      33.944   1.369  36.822  0.00  0.00    +0.000 A 
ATOM      3  S   UNL     1      34.392   2.927  37.347  0.00  0.00    +0.000 S 
ATOM      4  C   UNL     1      34.296   3.753  35.864  0.00  0.00    +0.000 A 
ATOM      5  C   UNL     1      33.911   2.777  34.984  0.00  0.00    +0.000 A 
ATOM      6  C   UNL     1      33.729   1.544  35.478  0.00  0.00    +0.000 A 
ATOM      7  C   UNL     1      33.755   3.289  33.557  0.00  0.00    +0.000 C 
ATOM      8  C   UNL     1      32.792   4.456  33.649  0.00  0.00    +0.000 C 
ATOM      9  C   UNL     1      33.339   5.580  34.487  0.00  0.00    +0.000 C 
ATOM     10  C   UNL     1      34.512   5.155  35.344  0.00  0.00    +0.000 C 
ENDROOT
BRANCH   6  11
ATOM     11  C   UNL     1      33.309   0.388  34.637  0.00  0.00    +0.000 C 
ATOM     12  O   UNL     1      32.137   0.266  34.210  0.00  0.00    +0.000 OA
ATOM     13  N   UNL     1      34.214  -0.642  34.269  0.00  0.00    +0.000 NA
BRANCH  13  14
ATOM     14  C   UNL     1      33.822  -1.773  33.452  0.00  0.00    +0.000 C 
BRANCH  14  15
ATOM     15  C   UNL     1      33.496  -2.886  34.383  0.00  0.00    +0.000 A 
ATOM     16  C   UNL     1      32.214  -3.373  34.556  0.00  0.00    +0.000 A 
ATOM     17  C   UNL     1      32.044  -4.414  35.454  0.00  0.00    +0.000 A 
ATOM     18  C   UNL     1      33.125  -4.922  36.133  0.00  0.00    +0.000 A 
ATOM     19  N   UNL     1      34.347  -4.436  35.949  0.00  0.00    +0.000 NA
ATOM     20  C   UNL     1      34.548  -3.433  35.091  0.00  0.00    +0.000 A 
ENDBRANCH  14  15
ENDBRANCH  13  14
ENDBRANCH   6  11
TORSDOF 3
ENDMDL
MODEL 2
REMARK VINA RESULT:      -6.0     17.103     18.909
REMARK  Name = 
REMARK  3 active torsions:
REMARK  status: ('A' for Active; 'I' for Inactive)
REMARK    1  A    between atoms: C_6  and  C_7
REMARK    2  A    between atoms: N_9  and  C_10
REMARK    3  A    between atoms: C_10  and  C_11
REMARK                            x       y       z     vdW  Elec       q    Type
REMARK                         _______ _______ _______ _____ _____    ______ ____
ROOT
ATOM      1  N   UNL     1      21.985 -12.096  24.343  0.00  0.00    +0.000 NA
ATOM      2  C   UNL     1      22.653 -10.873  23.950  0.00  0.00    +0.000 A 
ATOM      3  S   UNL     1      24.250 -10.650  23.399  0.00  0.00    +0.000 S 
ATOM      4  C   UNL     1      24.225  -8.966  23.167  0.00  0.00    +0.000 A 
ATOM      5  C   UNL     1      22.952  -8.616  23.531  0.00  0.00    +0.000 A 
ATOM      6  C   UNL     1      22.138  -9.601  23.936  0.00  0.00    +0.000 A 
ATOM      7  C   UNL     1      22.686  -7.120  23.405  0.00  0.00    +0.000 C 
ATOM      8  C   UNL     1      23.771  -6.445  24.220  0.00  0.00    +0.000 C 
ATOM      9  C   UNL     1      25.145  -6.719  23.672  0.00  0.00    +0.000 C 
ATOM     10  C   UNL     1      25.171  -7.882  22.704  0.00  0.00    +0.000 C 
ENDROOT
BRANCH   6  11
ATOM     11  C   UNL     1      20.731  -9.366  24.362  0.00  0.00    +0.000 C 
ATOM     12  O   UNL     1      19.779  -9.369  23.547  0.00  0.00    +0.000 OA
ATOM     13  N   UNL     1      20.385  -9.124  25.718  0.00  0.00    +0.000 NA
BRANCH  13  14
ATOM     14  C   UNL     1      19.021  -8.892  26.149  0.00  0.00    +0.000 C 
BRANCH  14  15
ATOM     15  C   UNL     1      18.868  -7.424  26.328  0.00  0.00    +0.000 A 
ATOM     16  C   UNL     1      19.790  -6.507  25.862  0.00  0.00    +0.000 A 
ATOM     17  C   UNL     1      19.530  -5.166  26.093  0.00  0.00    +0.000 A 
ATOM     18  C   UNL     1      18.390  -4.791  26.763  0.00  0.00    +0.000 A 
ATOM     19  N   UNL     1      17.520  -5.693  27.202  0.00  0.00    +0.000 NA
ATOM     20  C   UNL     1      17.739  -6.993  26.996  0.00  0.00    +0.000 A 
ENDBRANCH  14  15
ENDBRANCH  13  14
ENDBRANCH   6  11
TORSDOF 3
ENDMDL
MODEL 3
REMARK VINA RESULT:      -5.9     24.728     28.296
REMARK  Name = 
REMARK  3 active torsions:
REMARK  status: ('A' for Active; 'I' for Inactive)
REMARK    1  A    between atoms: C_6  and  C_7
REMARK    2  A    between atoms: N_9  and  C_10
REMARK    3  A    between atoms: C_10  and  C_11
REMARK                            x       y       z     vdW  Elec       q    Type
REMARK                         _______ _______ _______ _____ _____    ______ ____
ROOT
ATOM      1  N   UNL     1      25.685  24.602  24.468  0.00  0.00    +0.000 NA
ATOM      2  C   UNL     1      26.838  23.922  25.019  0.00  0.00    +0.000 A 
ATOM      3  S   UNL     1      27.115  23.396  26.616  0.00  0.00    +0.000 S 
ATOM      4  C   UNL     1      28.661  22.718  26.416  0.00  0.00    +0.000 A 
ATOM      5  C   UNL     1      28.926  22.923  25.088  0.00  0.00    +0.000 A 
ATOM      6  C   UNL     1      27.984  23.545  24.364  0.00  0.00    +0.000 A 
ATOM      7  C   UNL     1      30.289  22.388  24.662  0.00  0.00    +0.000 C 
ATOM      8  C   UNL     1      31.288  23.034  25.600  0.00  0.00    +0.000 C 
ATOM      9  C   UNL     1      31.062  22.637  27.034  0.00  0.00    +0.000 C 
ATOM     10  C   UNL     1      29.699  22.020  27.263  0.00  0.00    +0.000 C 
ENDROOT
BRANCH   6  11
ATOM     11  C   UNL     1      28.138  23.834  22.911  0.00  0.00    +0.000 C 
ATOM     12  O   UNL     1      27.534  23.175  22.034  0.00  0.00    +0.000 OA
ATOM     13  N   UNL     1      28.979  24.875  22.437  0.00  0.00    +0.000 NA
BRANCH  13  14
ATOM     14  C   UNL     1      29.140  25.169  21.026  0.00  0.00    +0.000 C 
BRANCH  14  15
ATOM     15  C   UNL     1      28.958  26.636  20.867  0.00  0.00    +0.000 A 
ATOM     16  C   UNL     1      29.741  27.407  20.030  0.00  0.00    +0.000 A 
ATOM     17  C   UNL     1      29.468  28.764  19.971  0.00  0.00    +0.000 A 
ATOM     18  C   UNL     1      28.452  29.295  20.729  0.00  0.00    +0.000 A 
ATOM     19  N   UNL     1      27.714  28.533  21.528  0.00  0.00    +0.000 NA
ATOM     20  C   UNL     1      27.950  27.221  21.607  0.00  0.00    +0.000 A 
ENDBRANCH  14  15
ENDBRANCH  13  14
ENDBRANCH   6  11
TORSDOF 3
ENDMDL
MODEL 4
REMARK VINA RESULT:      -5.9     22.245     24.535
REMARK  Name = 
REMARK  3 active torsions:
REMARK  status: ('A' for Active; 'I' for Inactive)
REMARK    1  A    between atoms: C_6  and  C_7
REMARK    2  A    between atoms: N_9  and  C_10
REMARK    3  A    between atoms: C_10  and  C_11
REMARK                            x       y       z     vdW  Elec       q    Type
REMARK                         _______ _______ _______ _____ _____    ______ ____
ROOT
ATOM      1  N   UNL     1      28.488  24.182  29.035  0.00  0.00    +0.000 NA
ATOM      2  C   UNL     1      29.558  23.356  29.554  0.00  0.00    +0.000 A 
ATOM      3  S   UNL     1      29.819  22.809  31.146  0.00  0.00    +0.000 S 
ATOM      4  C   UNL     1      31.252  21.928  30.901  0.00  0.00    +0.000 A 
ATOM      5  C   UNL     1      31.494  22.086  29.563  0.00  0.00    +0.000 A 
ATOM      6  C   UNL     1      30.619  22.824  28.865  0.00  0.00    +0.000 A 
ATOM      7  C   UNL     1      32.756  21.369  29.096  0.00  0.00    +0.000 C 
ATOM      8  C   UNL     1      33.866  21.881  29.992  0.00  0.00    +0.000 C 
ATOM      9  C   UNL     1      33.640  21.527  31.437  0.00  0.00    +0.000 C 
ATOM     10  C   UNL     1      32.216  21.101  31.720  0.00  0.00    +0.000 C 
ENDROOT
BRANCH   6  11
ATOM     11  C   UNL     1      30.759  23.080  27.404  0.00  0.00    +0.000 C 
ATOM     12  O   UNL     1      31.584  23.906  26.948  0.00  0.00    +0.000 OA
ATOM     13  N   UNL     1      29.964  22.403  26.443  0.00  0.00    +0.000 NA
BRANCH  13  14
ATOM     14  C   UNL     1      30.086  22.641  25.018  0.00  0.00    +0.000 C 
BRANCH  14  15
ATOM     15  C   UNL     1      28.717  22.909  24.505  0.00  0.00    +0.000 A 
ATOM     16  C   UNL     1      27.597  22.923  25.316  0.00  0.00    +0.000 A 
ATOM     17  C   UNL     1      26.378  23.187  24.714  0.00  0.00    +0.000 A 
ATOM     18  C   UNL     1      26.313  23.422  23.361  0.00  0.00    +0.000 A 
ATOM     19  N   UNL     1      27.404  23.401  22.604  0.00  0.00    +0.000 NA
ATOM     20  C   UNL     1      28.596  23.151  23.151  0.00  0.00    +0.000 A 
ENDBRANCH  14  15
ENDBRANCH  13  14
ENDBRANCH   6  11
TORSDOF 3
ENDMDL
MODEL 5
REMARK VINA RESULT:      -5.9     20.420     22.210
REMARK  Name = 
REMARK  3 active torsions:
REMARK  status: ('A' for Active; 'I' for Inactive)
REMARK    1  A    between atoms: C_6  and  C_7
REMARK    2  A    between atoms: N_9  and  C_10
REMARK    3  A    between atoms: C_10  and  C_11
REMARK                            x       y       z     vdW  Elec       q    Type
REMARK                         _______ _______ _______ _____ _____    ______ ____
ROOT
ATOM      1  N   UNL     1      29.057   7.266  13.435  0.00  0.00    +0.000 NA
ATOM      2  C   UNL     1      28.584   7.145  14.798  0.00  0.00    +0.000 A 
ATOM      3  S   UNL     1      29.440   7.353  16.256  0.00  0.00    +0.000 S 
ATOM      4  C   UNL     1      28.184   7.036  17.357  0.00  0.00    +0.000 A 
ATOM      5  C   UNL     1      27.113   6.772  16.547  0.00  0.00    +0.000 A 
ATOM      6  C   UNL     1      27.318   6.827  15.223  0.00  0.00    +0.000 A 
ATOM      7  C   UNL     1      25.841   6.451  17.324  0.00  0.00    +0.000 C 
ATOM      8  C   UNL     1      26.211   5.312  18.253  0.00  0.00    +0.000 C 
ATOM      9  C   UNL     1      27.272   5.709  19.244  0.00  0.00    +0.000 C 
ATOM     10  C   UNL     1      27.990   6.983  18.855  0.00  0.00    +0.000 C 
ENDROOT
BRANCH   6  11
ATOM     11  C   UNL     1      26.245   6.562  14.225  0.00  0.00    +0.000 C 
ATOM     12  O   UNL     1      25.661   7.487  13.613  0.00  0.00    +0.000 OA
ATOM     13  N   UNL     1      25.821   5.244  13.908  0.00  0.00    +0.000 NA
BRANCH  13  14
ATOM     14  C   UNL     1      24.778   4.969  12.940  0.00  0.00    +0.000 C 
BRANCH  14  15
ATOM     15  C   UNL     1      23.724   4.197  13.649  0.00  0.00    +0.000 A 
ATOM     16  C   UNL     1      22.466   3.975  13.120  0.00  0.00    +0.000 A 
ATOM     17  C   UNL     1      21.574   3.239  13.882  0.00  0.00    +0.000 A 
ATOM     18  C   UNL     1      21.952   2.760  15.114  0.00  0.00    +0.000 A 
ATOM     19  N   UNL     1      23.167   2.988  15.600  0.00  0.00    +0.000 NA
ATOM     20  C   UNL     1      24.052   3.693  14.892  0.00  0.00    +0.000 A 
ENDBRANCH  14  15
ENDBRANCH  13  14
ENDBRANCH   6  11
TORSDOF 3
ENDMDL
MODEL 6
REMARK VINA RESULT:      -5.7      4.849      8.510
REMARK  Name = 
REMARK  3 active torsions:
REMARK  status: ('A' for Active; 'I' for Inactive)
REMARK    1  A    between atoms: C_6  and  C_7
REMARK    2  A    between atoms: N_9  and  C_10
REMARK    3  A    between atoms: C_10  and  C_11
REMARK                            x       y       z     vdW  Elec       q    Type
REMARK                         _______ _______ _______ _____ _____    ______ ____
ROOT
ATOM      1  N   UNL     1      31.166  -8.210  34.274  0.00  0.00    +0.000 NA
ATOM      2  C   UNL     1      31.691  -7.719  33.017  0.00  0.00    +0.000 A 
ATOM      3  S   UNL     1      31.584  -8.412  31.464  0.00  0.00    +0.000 S 
ATOM      4  C   UNL     1      32.438  -7.236  30.581  0.00  0.00    +0.000 A 
ATOM      5  C   UNL     1      32.789  -6.319  31.536  0.00  0.00    +0.000 A 
ATOM      6  C   UNL     1      32.404  -6.568  32.796  0.00  0.00    +0.000 A 
ATOM      7  C   UNL     1      33.582  -5.145  30.972  0.00  0.00    +0.000 C 
ATOM      8  C   UNL     1      34.758  -5.762  30.243  0.00  0.00    +0.000 C 
ATOM      9  C   UNL     1      34.322  -6.624  29.089  0.00  0.00    +0.000 C 
ATOM     10  C   UNL     1      32.855  -6.989  29.150  0.00  0.00    +0.000 C 
ENDROOT
BRANCH   6  11
ATOM     11  C   UNL     1      32.717  -5.659  33.934  0.00  0.00    +0.000 C 
ATOM     12  O   UNL     1      33.697  -5.853  34.691  0.00  0.00    +0.000 OA
ATOM     13  N   UNL     1      31.923  -4.519  34.226  0.00  0.00    +0.000 NA
BRANCH  13  14
ATOM     14  C   UNL     1      32.214  -3.625  35.330  0.00  0.00    +0.000 C 
BRANCH  14  15
ATOM     15  C   UNL     1      32.655  -2.335  34.736  0.00  0.00    +0.000 A 
ATOM     16  C   UNL     1      33.587  -2.253  33.718  0.00  0.00    +0.000 A 
ATOM     17  C   UNL     1      33.912  -0.990  33.252  0.00  0.00    +0.000 A 
ATOM     18  C   UNL     1      33.317   0.121  33.799  0.00  0.00    +0.000 A 
ATOM     19  N   UNL     1      32.425   0.015  34.777  0.00  0.00    +0.000 NA
ATOM     20  C   UNL     1      32.087  -1.187  35.250  0.00  0.00    +0.000 A 
ENDBRANCH  14  15
ENDBRANCH  13  14
ENDBRANCH   6  11
TORSDOF 3
ENDMDL
MODEL 7
REMARK VINA RESULT:      -5.6     19.570     20.851
REMARK  Name = 
REMARK  3 active torsions:
REMARK  status: ('A' for Active; 'I' for Inactive)
REMARK    1  A    between atoms: C_6  and  C_7
REMARK    2  A    between atoms: N_9  and  C_10
REMARK    3  A    between atoms: C_10  and  C_11
REMARK                            x       y       z     vdW  Elec       q    Type
REMARK                         _______ _______ _______ _____ _____    ______ ____
ROOT
ATOM      1  N   UNL     1      26.167   1.445  16.454  0.00  0.00    +0.000 NA
ATOM      2  C   UNL     1      26.616   2.822  16.432  0.00  0.00    +0.000 A 
ATOM      3  S   UNL     1      27.917   3.515  15.580  0.00  0.00    +0.000 S 
ATOM      4  C   UNL     1      27.753   5.127  16.095  0.00  0.00    +0.000 A 
ATOM      5  C   UNL     1      26.670   5.082  16.931  0.00  0.00    +0.000 A 
ATOM      6  C   UNL     1      26.081   3.890  17.107  0.00  0.00    +0.000 A 
ATOM      7  C   UNL     1      26.322   6.440  17.530  0.00  0.00    +0.000 C 
ATOM      8  C   UNL     1      27.595   6.930  18.191  0.00  0.00    +0.000 C 
ATOM      9  C   UNL     1      28.708   7.132  17.198  0.00  0.00    +0.000 C 
ATOM     10  C   UNL     1      28.443   6.453  15.873  0.00  0.00    +0.000 C 
ENDROOT
BRANCH   6  11
ATOM     11  C   UNL     1      24.896   3.694  17.988  0.00  0.00    +0.000 C 
ATOM     12  O   UNL     1      24.998   3.633  19.236  0.00  0.00    +0.000 OA
ATOM     13  N   UNL     1      23.583   3.565  17.466  0.00  0.00    +0.000 NA
BRANCH  13  14
ATOM     14  C   UNL     1      22.420   3.373  18.309  0.00  0.00    +0.000 C 
BRANCH  14  15
ATOM     15  C   UNL     1      21.471   2.517  17.549  0.00  0.00    +0.000 A 
ATOM     16  C   UNL     1      20.110   2.505  17.786  0.00  0.00    +0.000 A 
ATOM     17  C   UNL     1      19.335   1.662  17.007  0.00  0.00    +0.000 A 
ATOM     18  C   UNL     1      19.924   0.878  16.044  0.00  0.00    +0.000 A 
ATOM     19  N   UNL     1      21.235   0.907  15.836  0.00  0.00    +0.000 NA
ATOM     20  C   UNL     1      22.012   1.709  16.568  0.00  0.00    +0.000 A 
ENDBRANCH  14  15
ENDBRANCH  13  14
ENDBRANCH   6  11
TORSDOF 3
ENDMDL
MODEL 8
REMARK VINA RESULT:      -5.6     16.932     19.133
REMARK  Name = 
REMARK  3 active torsions:
REMARK  status: ('A' for Active; 'I' for Inactive)
REMARK    1  A    between atoms: C_6  and  C_7
REMARK    2  A    between atoms: N_9  and  C_10
REMARK    3  A    between atoms: C_10  and  C_11
REMARK                            x       y       z     vdW  Elec       q    Type
REMARK                         _______ _______ _______ _____ _____    ______ ____
ROOT
ATOM      1  N   UNL     1      17.851 -10.852  24.014  0.00  0.00    +0.000 NA
ATOM      2  C   UNL     1      18.107  -9.662  24.798  0.00  0.00    +0.000 A 
ATOM      3  S   UNL     1      17.026  -8.741  25.738  0.00  0.00    +0.000 S 
ATOM      4  C   UNL     1      18.102  -7.553  26.305  0.00  0.00    +0.000 A 
ATOM      5  C   UNL     1      19.295  -7.911  25.737  0.00  0.00    +0.000 A 
ATOM      6  C   UNL     1      19.299  -9.002  24.957  0.00  0.00    +0.000 A 
ATOM      7  C   UNL     1      20.438  -6.972  26.107  0.00  0.00    +0.000 C 
ATOM      8  C   UNL     1      19.962  -5.585  25.726  0.00  0.00    +0.000 C 
ATOM      9  C   UNL     1      18.746  -5.167  26.508  0.00  0.00    +0.000 C 
ATOM     10  C   UNL     1      18.058  -6.329  27.190  0.00  0.00    +0.000 C 
ENDROOT
BRANCH   6  11
ATOM     11  C   UNL     1      20.524  -9.506  24.276  0.00  0.00    +0.000 C 
ATOM     12  O   UNL     1      21.131 -10.530  24.668  0.00  0.00    +0.000 OA
ATOM     13  N   UNL     1      21.075  -8.855  23.141  0.00  0.00    +0.000 NA
BRANCH  13  14
ATOM     14  C   UNL     1      22.267  -9.332  22.467  0.00  0.00    +0.000 C 
BRANCH  14  15
ATOM     15  C   UNL     1      23.380  -8.433  22.870  0.00  0.00    +0.000 A 
ATOM     16  C   UNL     1      23.182  -7.238  23.535  0.00  0.00    +0.000 A 
ATOM     17  C   UNL     1      24.304  -6.492  23.855  0.00  0.00    +0.000 A 
ATOM     18  C   UNL     1      25.555  -6.946  23.510  0.00  0.00    +0.000 A 
ATOM     19  N   UNL     1      25.719  -8.098  22.870  0.00  0.00    +0.000 NA
ATOM     20  C   UNL     1      24.659  -8.843  22.547  0.00  0.00    +0.000 A 
ENDBRANCH  14  15
ENDBRANCH  13  14
ENDBRANCH   6  11
TORSDOF 3
ENDMDL
MODEL 9
REMARK VINA RESULT:      -5.5     19.759     21.240
REMARK  Name = 
REMARK  3 active torsions:
REMARK  status: ('A' for Active; 'I' for Inactive)
REMARK    1  A    between atoms: C_6  and  C_7
REMARK    2  A    between atoms: N_9  and  C_10
REMARK    3  A    between atoms: C_10  and  C_11
REMARK                            x       y       z     vdW  Elec       q    Type
REMARK                         _______ _______ _______ _____ _____    ______ ____
ROOT
ATOM      1  N   UNL     1      27.363   2.305  16.532  0.00  0.00    +0.000 NA
ATOM      2  C   UNL     1      26.007   1.968  16.914  0.00  0.00    +0.000 A 
ATOM      3  S   UNL     1      25.172   0.496  16.727  0.00  0.00    +0.000 S 
ATOM      4  C   UNL     1      23.682   0.937  17.416  0.00  0.00    +0.000 A 
ATOM      5  C   UNL     1      23.877   2.243  17.780  0.00  0.00    +0.000 A 
ATOM      6  C   UNL     1      25.079   2.778  17.520  0.00  0.00    +0.000 A 
ATOM      7  C   UNL     1      22.651   2.870  18.433  0.00  0.00    +0.000 C 
ATOM      8  C   UNL     1      21.518   2.664  17.449  0.00  0.00    +0.000 C 
ATOM      9  C   UNL     1      21.225   1.206  17.217  0.00  0.00    +0.000 C 
ATOM     10  C   UNL     1      22.340   0.301  17.693  0.00  0.00    +0.000 C 
ENDROOT
BRANCH   6  11
ATOM     11  C   UNL     1      25.430   4.185  17.860  0.00  0.00    +0.000 C 
ATOM     12  O   UNL     1      25.840   4.513  18.998  0.00  0.00    +0.000 OA
ATOM     13  N   UNL     1      25.320   5.237  16.913  0.00  0.00    +0.000 NA
BRANCH  13  14
ATOM     14  C   UNL     1      25.657   6.612  17.227  0.00  0.00    +0.000 C 
BRANCH  14  15
ATOM     15  C   UNL     1      26.937   6.912  16.533  0.00  0.00    +0.000 A 
ATOM     16  C   UNL     1      27.017   7.176  15.179  0.00  0.00    +0.000 A 
ATOM     17  C   UNL     1      28.270   7.442  14.654  0.00  0.00    +0.000 A 
ATOM     18  C   UNL     1      29.375   7.436  15.471  0.00  0.00    +0.000 A 
ATOM     19  N   UNL     1      29.272   7.178  16.770  0.00  0.00    +0.000 NA
ATOM     20  C   UNL     1      28.079   6.918  17.309  0.00  0.00    +0.000 A 
ENDBRANCH  14  15
ENDBRANCH  13  14
ENDBRANCH   6  11
TORSDOF 3
ENDMDL
MODEL 10
REMARK VINA RESULT:      -5.5     24.866     27.626
REMARK  Name = 
REMARK  3 active torsions:
REMARK  status: ('A' for Active; 'I' for Inactive)
REMARK    1  A    between atoms: C_6  and  C_7
REMARK    2  A    between atoms: N_9  and  C_10
REMARK    3  A    between atoms: C_10  and  C_11
REMARK                            x       y       z     vdW  Elec       q    Type
REMARK                         _______ _______ _______ _____ _____    ______ ____
ROOT
ATOM      1  N   UNL     1      25.320  25.888  24.893  0.00  0.00    +0.000 NA
ATOM      2  C   UNL     1      25.770  24.998  25.941  0.00  0.00    +0.000 A 
ATOM      3  S   UNL     1      25.253  24.894  27.560  0.00  0.00    +0.000 S 
ATOM      4  C   UNL     1      26.260  23.631  28.089  0.00  0.00    +0.000 A 
ATOM      5  C   UNL     1      26.985  23.317  26.971  0.00  0.00    +0.000 A 
ATOM      6  C   UNL     1      26.734  24.023  25.859  0.00  0.00    +0.000 A 
ATOM      7  C   UNL     1      27.980  22.185  27.203  0.00  0.00    +0.000 C 
ATOM      8  C   UNL     1      28.822  22.621  28.385  0.00  0.00    +0.000 C 
ATOM      9  C   UNL     1      28.002  22.783  29.637  0.00  0.00    +0.000 C 
ATOM     10  C   UNL     1      26.517  22.856  29.360  0.00  0.00    +0.000 C 
ENDROOT
BRANCH   6  11
ATOM     11  C   UNL     1      27.447  23.791  24.572  0.00  0.00    +0.000 C 
ATOM     12  O   UNL     1      26.937  23.130  23.638  0.00  0.00    +0.000 OA
ATOM     13  N   UNL     1      28.748  24.305  24.330  0.00  0.00    +0.000 NA
BRANCH  13  14
ATOM     14  C   UNL     1      29.456  24.087  23.084  0.00  0.00    +0.000 C 
BRANCH  14  15
ATOM     15  C   UNL     1      29.374  25.356  22.313  0.00  0.00    +0.000 A 
ATOM     16  C   UNL     1      29.333  25.398  20.933  0.00  0.00    +0.000 A 
ATOM     17  C   UNL     1      29.256  26.645  20.335  0.00  0.00    +0.000 A 
ATOM     18  C   UNL     1      29.223  27.780  21.110  0.00  0.00    +0.000 A 
ATOM     19  N   UNL     1      29.264  27.712  22.435  0.00  0.00    +0.000 NA
ATOM     20  C   UNL     1      29.338  26.527  23.044  0.00  0.00    +0.000 A 
ENDBRANCH  14  15
ENDBRANCH  13  14
ENDBRANCH   6  11
TORSDOF 3
ENDMDL
