MODEL 1
REMARK VINA RESULT:      -8.4      0.000      0.000
REMARK  Name = 
REMARK  8 active torsions:
REMARK  status: ('A' for Active; 'I' for Inactive)
REMARK    1  A    between atoms: C_2  and  C_3
REMARK    2  A    between atoms: C_3  and  C_6
REMARK    3  A    between atoms: C_9  and  O_10
REMARK    4  A    between atoms: O_10  and  C_11
REMARK    5  A    between atoms: C_14  and  N_15
REMARK    6  A    between atoms: C_16  and  C_18
REMARK    7  A    between atoms: C_18  and  O_19
REMARK    8  A    between atoms: O_19  and  C_20
REMARK                            x       y       z     vdW  Elec       q    Type
REMARK                         _______ _______ _______ _____ _____    ______ ____
ROOT
ATOM      1  C   UNL     1      38.944   5.104  16.402  0.00  0.00    +0.000 A 
ATOM      2  C   UNL     1      39.522   4.755  15.192  0.00  0.00    +0.000 A 
ATOM      3  C   UNL     1      39.110   3.621  14.507  0.00  0.00    +0.000 A 
ATOM      4  C   UNL     1      38.116   2.797  14.995  0.00  0.00    +0.000 A 
ATOM      5  C   UNL     1      37.553   3.170  16.212  0.00  0.00    +0.000 A 
ATOM      6  C   UNL     1      37.938   4.287  16.916  0.00  0.00    +0.000 A 
ENDROOT
BRANCH   4   7
ATOM      7  N   UNL     1      37.640   1.633  14.337  0.00  0.00    +0.000 NA
ATOM      8  C   UNL     1      38.334   0.387  14.365  0.00  0.00    +0.000 C 
ATOM      9  O   UNL     1      39.411   0.357  15.017  0.00  0.00    +0.000 OA
BRANCH   8  10
ATOM     10  C   UNL     1      37.780  -0.806  13.642  0.00  0.00    +0.000 C 
BRANCH  10  11
ATOM     11  O   UNL     1      36.768  -1.379  14.446  0.00  0.00    +0.000 OA
BRANCH  11  12
ATOM     12  C   UNL     1      37.214  -1.927  15.658  0.00  0.00    +0.000 A 
ATOM     13  N   UNL     1      38.073  -2.970  15.721  0.00  0.00    +0.000 NA
ATOM     14  C   UNL     1      38.478  -3.470  16.901  0.00  0.00    +0.000 A 
ATOM     15  N   UNL     1      38.037  -2.942  18.064  0.00  0.00    +0.000 NA
ATOM     16  C   UNL     1      37.184  -1.908  18.073  0.00  0.00    +0.000 A 
ATOM     17  C   UNL     1      36.699  -1.335  19.231  0.00  0.00    +0.000 A 
ATOM     18  C   UNL     1      35.813  -0.270  19.191  0.00  0.00    +0.000 A 
ATOM     19  C   UNL     1      35.404   0.231  17.976  0.00  0.00    +0.000 A 
ATOM     20  C   UNL     1      35.898  -0.351  16.824  0.00  0.00    +0.000 A 
ATOM     21  C   UNL     1      36.778  -1.409  16.850  0.00  0.00    +0.000 A 
ENDBRANCH  11  12
ENDBRANCH  10  11
ENDBRANCH   8  10
ENDBRANCH   4   7
BRANCH   1  22
ATOM     22  O   UNL     1      39.325   6.214  17.093  0.00  0.00    +0.000 OA
BRANCH  22  26
ATOM     23  C   UNL     1      42.441   6.625  19.805  0.00  0.00    +0.000 A 
ATOM     24  C   UNL     1      41.172   6.382  20.278  0.00  0.00    +0.000 A 
ATOM     25  C   UNL     1      40.146   6.247  19.363  0.00  0.00    +0.000 A 
ATOM     26  C   UNL     1      40.297   6.335  18.013  0.00  0.00    +0.000 A 
ATOM     27  C   UNL     1      41.592   6.582  17.552  0.00  0.00    +0.000 A 
ATOM     28  C   UNL     1      42.633   6.720  18.442  0.00  0.00    +0.000 A 
BRANCH  23  29
ATOM     29  C   UNL     1      43.631   6.803  20.701  0.00  0.00    +0.000 C 
ATOM     30  C   UNL     1      44.892   6.584  19.915  0.00  0.00    +0.000 C 
ATOM     31  C   UNL     1      43.632   8.170  21.321  0.00  0.00    +0.000 C 
BRANCH  29  33
ATOM     32  C   UNL     1      44.837   4.966  21.832  0.00  0.00    +0.000 C 
ATOM     33  C   UNL     1      43.544   5.721  21.784  0.00  0.00    +0.000 C 
ENDBRANCH  29  33
ENDBRANCH  23  29
ENDBRANCH  22  26
ENDBRANCH   1  22
TORSDOF 8
ENDMDL
MODEL 2
REMARK VINA RESULT:      -8.1      1.573      2.638
REMARK  Name = 
REMARK  8 active torsions:
REMARK  status: ('A' for Active; 'I' for Inactive)
REMARK    1  A    between atoms: C_2  and  C_3
REMARK    2  A    between atoms: C_3  and  C_6
REMARK    3  A    between atoms: C_9  and  O_10
REMARK    4  A    between atoms: O_10  and  C_11
REMARK    5  A    between atoms: C_14  and  N_15
REMARK    6  A    between atoms: C_16  and  C_18
REMARK    7  A    between atoms: C_18  and  O_19
REMARK    8  A    between atoms: O_19  and  C_20
REMARK                            x       y       z     vdW  Elec       q    Type
REMARK                         _______ _______ _______ _____ _____    ______ ____
ROOT
ATOM      1  C   UNL     1      40.026   6.011  17.673  0.00  0.00    +0.000 A 
ATOM      2  C   UNL     1      39.054   5.303  18.361  0.00  0.00    +0.000 A 
ATOM      3  C   UNL     1      38.295   4.332  17.723  0.00  0.00    +0.000 A 
ATOM      4  C   UNL     1      38.473   4.031  16.388  0.00  0.00    +0.000 A 
ATOM      5  C   UNL     1      39.454   4.757  15.721  0.00  0.00    +0.000 A 
ATOM      6  C   UNL     1      40.223   5.725  16.323  0.00  0.00    +0.000 A 
ENDROOT
BRANCH   4   7
ATOM      7  N   UNL     1      37.741   3.041  15.682  0.00  0.00    +0.000 NA
ATOM      8  C   UNL     1      36.526   3.320  14.989  0.00  0.00    +0.000 C 
ATOM      9  O   UNL     1      36.119   4.511  15.024  0.00  0.00    +0.000 OA
BRANCH   8  10
ATOM     10  C   UNL     1      35.796   2.226  14.266  0.00  0.00    +0.000 C 
BRANCH  10  11
ATOM     11  O   UNL     1      35.289   1.322  15.228  0.00  0.00    +0.000 OA
BRANCH  11  12
ATOM     12  C   UNL     1      36.062   0.168  15.422  0.00  0.00    +0.000 A 
ATOM     13  N   UNL     1      36.595  -0.540  14.401  0.00  0.00    +0.000 NA
ATOM     14  C   UNL     1      37.331  -1.642  14.624  0.00  0.00    +0.000 A 
ATOM     15  N   UNL     1      37.562  -2.077  15.883  0.00  0.00    +0.000 NA
ATOM     16  C   UNL     1      37.063  -1.422  16.941  0.00  0.00    +0.000 A 
ATOM     17  C   UNL     1      37.262  -1.824  18.245  0.00  0.00    +0.000 A 
ATOM     18  C   UNL     1      36.721  -1.118  19.308  0.00  0.00    +0.000 A 
ATOM     19  C   UNL     1      35.967   0.008  19.065  0.00  0.00    +0.000 A 
ATOM     20  C   UNL     1      35.775   0.401  17.754  0.00  0.00    +0.000 A 
ATOM     21  C   UNL     1      36.308  -0.292  16.691  0.00  0.00    +0.000 A 
ENDBRANCH  11  12
ENDBRANCH  10  11
ENDBRANCH   8  10
ENDBRANCH   4   7
BRANCH   1  22
ATOM     22  O   UNL     1      40.789   6.965  18.275  0.00  0.00    +0.000 OA
BRANCH  22  26
ATOM     23  C   UNL     1      44.168   6.427  20.627  0.00  0.00    +0.000 A 
ATOM     24  C   UNL     1      44.323   6.781  19.306  0.00  0.00    +0.000 A 
ATOM     25  C   UNL     1      43.188   6.957  18.537  0.00  0.00    +0.000 A 
ATOM     26  C   UNL     1      41.914   6.807  18.992  0.00  0.00    +0.000 A 
ATOM     27  C   UNL     1      41.778   6.448  20.334  0.00  0.00    +0.000 A 
ATOM     28  C   UNL     1      42.891   6.267  21.124  0.00  0.00    +0.000 A 
BRANCH  23  29
ATOM     29  C   UNL     1      45.323   6.194  21.556  0.00  0.00    +0.000 C 
ATOM     30  C   UNL     1      46.143   7.448  21.665  0.00  0.00    +0.000 C 
ATOM     31  C   UNL     1      44.840   5.765  22.910  0.00  0.00    +0.000 C 
BRANCH  29  33
ATOM     32  C   UNL     1      46.008   3.823  21.682  0.00  0.00    +0.000 C 
ATOM     33  C   UNL     1      46.193   5.102  20.924  0.00  0.00    +0.000 C 
ENDBRANCH  29  33
ENDBRANCH  23  29
ENDBRANCH  22  26
ENDBRANCH   1  22
TORSDOF 8
ENDMDL
MODEL 3
REMARK VINA RESULT:      -8.1      1.363      2.102
REMARK  Name = 
REMARK  8 active torsions:
REMARK  status: ('A' for Active; 'I' for Inactive)
REMARK    1  A    between atoms: C_2  and  C_3
REMARK    2  A    between atoms: C_3  and  C_6
REMARK    3  A    between atoms: C_9  and  O_10
REMARK    4  A    between atoms: O_10  and  C_11
REMARK    5  A    between atoms: C_14  and  N_15
REMARK    6  A    between atoms: C_16  and  C_18
REMARK    7  A    between atoms: C_18  and  O_19
REMARK    8  A    between atoms: O_19  and  C_20
REMARK                            x       y       z     vdW  Elec       q    Type
REMARK                         _______ _______ _______ _____ _____    ______ ____
ROOT
ATOM      1  C   UNL     1      39.556   5.774  16.938  0.00  0.00    +0.000 A 
ATOM      2  C   UNL     1      38.587   5.025  17.586  0.00  0.00    +0.000 A 
ATOM      3  C   UNL     1      37.924   3.998  16.929  0.00  0.00    +0.000 A 
ATOM      4  C   UNL     1      38.198   3.679  15.615  0.00  0.00    +0.000 A 
ATOM      5  C   UNL     1      39.175   4.446  14.988  0.00  0.00    +0.000 A 
ATOM      6  C   UNL     1      39.850   5.470  15.610  0.00  0.00    +0.000 A 
ENDROOT
BRANCH   4   7
ATOM      7  N   UNL     1      37.567   2.632  14.893  0.00  0.00    +0.000 NA
ATOM      8  C   UNL     1      38.207   1.389  14.611  0.00  0.00    +0.000 C 
ATOM      9  O   UNL     1      39.381   1.249  15.042  0.00  0.00    +0.000 OA
BRANCH   8  10
ATOM     10  C   UNL     1      37.487   0.324  13.837  0.00  0.00    +0.000 C 
BRANCH  10  11
ATOM     11  O   UNL     1      37.410  -0.835  14.644  0.00  0.00    +0.000 OA
BRANCH  11  12
ATOM     12  C   UNL     1      36.653  -0.692  15.815  0.00  0.00    +0.000 A 
ATOM     13  N   UNL     1      35.490  -0.002  15.859  0.00  0.00    +0.000 NA
ATOM     14  C   UNL     1      34.790   0.115  17.000  0.00  0.00    +0.000 A 
ATOM     15  N   UNL     1      35.230  -0.456  18.143  0.00  0.00    +0.000 NA
ATOM     16  C   UNL     1      36.374  -1.154  18.170  0.00  0.00    +0.000 A 
ATOM     17  C   UNL     1      36.872  -1.752  19.309  0.00  0.00    +0.000 A 
ATOM     18  C   UNL     1      38.064  -2.459  19.290  0.00  0.00    +0.000 A 
ATOM     19  C   UNL     1      38.772  -2.569  18.115  0.00  0.00    +0.000 A 
ATOM     20  C   UNL     1      38.263  -1.966  16.980  0.00  0.00    +0.000 A 
ATOM     21  C   UNL     1      37.080  -1.262  16.987  0.00  0.00    +0.000 A 
ENDBRANCH  11  12
ENDBRANCH  10  11
ENDBRANCH   8  10
ENDBRANCH   4   7
BRANCH   1  22
ATOM     22  O   UNL     1      40.226   6.784  17.560  0.00  0.00    +0.000 OA
BRANCH  22  26
ATOM     23  C   UNL     1      43.484   6.572  20.125  0.00  0.00    +0.000 A 
ATOM     24  C   UNL     1      42.221   6.355  20.629  0.00  0.00    +0.000 A 
ATOM     25  C   UNL     1      41.148   6.428  19.762  0.00  0.00    +0.000 A 
ATOM     26  C   UNL     1      41.245   6.700  18.432  0.00  0.00    +0.000 A 
ATOM     27  C   UNL     1      42.533   6.917  17.939  0.00  0.00    +0.000 A 
ATOM     28  C   UNL     1      43.621   6.849  18.780  0.00  0.00    +0.000 A 
BRANCH  23  29
ATOM     29  C   UNL     1      44.723   6.532  20.969  0.00  0.00    +0.000 C 
ATOM     30  C   UNL     1      45.870   6.002  20.158  0.00  0.00    +0.000 C 
ATOM     31  C   UNL     1      45.047   7.896  21.505  0.00  0.00    +0.000 C 
BRANCH  29  33
ATOM     32  C   UNL     1      45.117   4.244  21.818  0.00  0.00    +0.000 C 
ATOM     33  C   UNL     1      44.452   5.553  22.118  0.00  0.00    +0.000 C 
ENDBRANCH  29  33
ENDBRANCH  23  29
ENDBRANCH  22  26
ENDBRANCH   1  22
TORSDOF 8
ENDMDL
MODEL 4
REMARK VINA RESULT:      -8.0      1.543      3.058
REMARK  Name = 
REMARK  8 active torsions:
REMARK  status: ('A' for Active; 'I' for Inactive)
REMARK    1  A    between atoms: C_2  and  C_3
REMARK    2  A    between atoms: C_3  and  C_6
REMARK    3  A    between atoms: C_9  and  O_10
REMARK    4  A    between atoms: O_10  and  C_11
REMARK    5  A    between atoms: C_14  and  N_15
REMARK    6  A    between atoms: C_16  and  C_18
REMARK    7  A    between atoms: C_18  and  O_19
REMARK    8  A    between atoms: O_19  and  C_20
REMARK                            x       y       z     vdW  Elec       q    Type
REMARK                         _______ _______ _______ _____ _____    ______ ____
ROOT
ATOM      1  C   UNL     1      38.741   4.848  15.921  0.00  0.00    +0.000 A 
ATOM      2  C   UNL     1      37.444   4.664  16.373  0.00  0.00    +0.000 A 
ATOM      3  C   UNL     1      36.760   3.486  16.110  0.00  0.00    +0.000 A 
ATOM      4  C   UNL     1      37.334   2.454  15.396  0.00  0.00    +0.000 A 
ATOM      5  C   UNL     1      38.636   2.665  14.954  0.00  0.00    +0.000 A 
ATOM      6  C   UNL     1      39.343   3.820  15.197  0.00  0.00    +0.000 A 
ENDROOT
BRANCH   4   7
ATOM      7  N   UNL     1      36.693   1.221  15.107  0.00  0.00    +0.000 NA
ATOM      8  C   UNL     1      36.512   0.195  16.081  0.00  0.00    +0.000 C 
ATOM      9  O   UNL     1      36.949   0.432  17.237  0.00  0.00    +0.000 OA
BRANCH   8  10
ATOM     10  C   UNL     1      35.831  -1.091  15.709  0.00  0.00    +0.000 C 
BRANCH  10  11
ATOM     11  O   UNL     1      36.632  -1.755  14.753  0.00  0.00    +0.000 OA
BRANCH  11  12
ATOM     12  C   UNL     1      37.773  -2.385  15.271  0.00  0.00    +0.000 A 
ATOM     13  N   UNL     1      37.716  -3.334  16.233  0.00  0.00    +0.000 NA
ATOM     14  C   UNL     1      38.831  -3.916  16.707  0.00  0.00    +0.000 A 
ATOM     15  N   UNL     1      40.047  -3.570  16.232  0.00  0.00    +0.000 NA
ATOM     16  C   UNL     1      40.176  -2.637  15.278  0.00  0.00    +0.000 A 
ATOM     17  C   UNL     1      41.393  -2.242  14.761  0.00  0.00    +0.000 A 
ATOM     18  C   UNL     1      41.477  -1.268  13.779  0.00  0.00    +0.000 A 
ATOM     19  C   UNL     1      40.327  -0.678  13.304  0.00  0.00    +0.000 A 
ATOM     20  C   UNL     1      39.114  -1.083  13.829  0.00  0.00    +0.000 A 
ATOM     21  C   UNL     1      39.018  -2.049  14.804  0.00  0.00    +0.000 A 
ENDBRANCH  11  12
ENDBRANCH  10  11
ENDBRANCH   8  10
ENDBRANCH   4   7
BRANCH   1  22
ATOM     22  O   UNL     1      39.439   5.991  16.169  0.00  0.00    +0.000 OA
BRANCH  22  26
ATOM     23  C   UNL     1      42.308   6.614  19.104  0.00  0.00    +0.000 A 
ATOM     24  C   UNL     1      42.692   6.618  17.782  0.00  0.00    +0.000 A 
ATOM     25  C   UNL     1      41.725   6.411  16.818  0.00  0.00    +0.000 A 
ATOM     26  C   UNL     1      40.406   6.201  17.078  0.00  0.00    +0.000 A 
ATOM     27  C   UNL     1      40.036   6.200  18.424  0.00  0.00    +0.000 A 
ATOM     28  C   UNL     1      40.978   6.406  19.406  0.00  0.00    +0.000 A 
BRANCH  23  29
ATOM     29  C   UNL     1      43.268   6.815  20.239  0.00  0.00    +0.000 C 
ATOM     30  C   UNL     1      43.091   8.191  20.814  0.00  0.00    +0.000 C 
ATOM     31  C   UNL     1      43.063   5.774  21.301  0.00  0.00    +0.000 C 
BRANCH  29  33
ATOM     32  C   UNL     1      45.552   5.939  20.596  0.00  0.00    +0.000 C 
ATOM     33  C   UNL     1      44.682   6.715  19.654  0.00  0.00    +0.000 C 
ENDBRANCH  29  33
ENDBRANCH  23  29
ENDBRANCH  22  26
ENDBRANCH   1  22
TORSDOF 8
ENDMDL
MODEL 5
REMARK VINA RESULT:      -7.9      2.327      3.894
REMARK  Name = 
REMARK  8 active torsions:
REMARK  status: ('A' for Active; 'I' for Inactive)
REMARK    1  A    between atoms: C_2  and  C_3
REMARK    2  A    between atoms: C_3  and  C_6
REMARK    3  A    between atoms: C_9  and  O_10
REMARK    4  A    between atoms: O_10  and  C_11
REMARK    5  A    between atoms: C_14  and  N_15
REMARK    6  A    between atoms: C_16  and  C_18
REMARK    7  A    between atoms: C_18  and  O_19
REMARK    8  A    between atoms: O_19  and  C_20
REMARK                            x       y       z     vdW  Elec       q    Type
REMARK                         _______ _______ _______ _____ _____    ______ ____
ROOT
ATOM      1  C   UNL     1      37.080   3.896  15.194  0.00  0.00    +0.000 A 
ATOM      2  C   UNL     1      35.715   3.663  15.245  0.00  0.00    +0.000 A 
ATOM      3  C   UNL     1      35.212   2.369  15.224  0.00  0.00    +0.000 A 
ATOM      4  C   UNL     1      36.041   1.268  15.153  0.00  0.00    +0.000 A 
ATOM      5  C   UNL     1      37.406   1.530  15.102  0.00  0.00    +0.000 A 
ATOM      6  C   UNL     1      37.937   2.798  15.121  0.00  0.00    +0.000 A 
ENDROOT
BRANCH   4   7
ATOM      7  N   UNL     1      35.591  -0.078  15.143  0.00  0.00    +0.000 NA
ATOM      8  C   UNL     1      35.441  -0.855  16.329  0.00  0.00    +0.000 C 
ATOM      9  O   UNL     1      35.726  -0.285  17.415  0.00  0.00    +0.000 OA
BRANCH   8  10
ATOM     10  C   UNL     1      34.965  -2.276  16.250  0.00  0.00    +0.000 C 
BRANCH  10  11
ATOM     11  O   UNL     1      35.825  -2.982  15.377  0.00  0.00    +0.000 OA
BRANCH  11  12
ATOM     12  C   UNL     1      37.088  -3.285  15.906  0.00  0.00    +0.000 A 
ATOM     13  N   UNL     1      37.256  -3.945  17.075  0.00  0.00    +0.000 NA
ATOM     14  C   UNL     1      38.483  -4.217  17.552  0.00  0.00    +0.000 A 
ATOM     15  N   UNL     1      39.589  -3.840  16.874  0.00  0.00    +0.000 NA
ATOM     16  C   UNL     1      39.494  -3.183  15.709  0.00  0.00    +0.000 A 
ATOM     17  C   UNL     1      40.589  -2.769  14.980  0.00  0.00    +0.000 A 
ATOM     18  C   UNL     1      40.442  -2.087  13.782  0.00  0.00    +0.000 A 
ATOM     19  C   UNL     1      39.179  -1.812  13.306  0.00  0.00    +0.000 A 
ATOM     20  C   UNL     1      38.090  -2.232  14.046  0.00  0.00    +0.000 A 
ATOM     21  C   UNL     1      38.224  -2.910  15.236  0.00  0.00    +0.000 A 
ENDBRANCH  11  12
ENDBRANCH  10  11
ENDBRANCH   8  10
ENDBRANCH   4   7
BRANCH   1  22
ATOM     22  O   UNL     1      37.601   5.154  15.218  0.00  0.00    +0.000 OA
BRANCH  22  26
ATOM     23  C   UNL     1      39.374   7.010  18.481  0.00  0.00    +0.000 A 
ATOM     24  C   UNL     1      39.004   7.774  17.398  0.00  0.00    +0.000 A 
ATOM     25  C   UNL     1      38.414   7.141  16.321  0.00  0.00    +0.000 A 
ATOM     26  C   UNL     1      38.167   5.805  16.248  0.00  0.00    +0.000 A 
ATOM     27  C   UNL     1      38.550   5.047  17.357  0.00  0.00    +0.000 A 
ATOM     28  C   UNL     1      39.139   5.651  18.444  0.00  0.00    +0.000 A 
BRANCH  23  29
ATOM     29  C   UNL     1      40.035   7.581  19.701  0.00  0.00    +0.000 C 
ATOM     30  C   UNL     1      40.918   6.541  20.331  0.00  0.00    +0.000 C 
ATOM     31  C   UNL     1      40.832   8.804  19.353  0.00  0.00    +0.000 C 
BRANCH  29  33
ATOM     32  C   UNL     1      38.864   9.418  20.870  0.00  0.00    +0.000 C 
ATOM     33  C   UNL     1      38.919   7.931  20.693  0.00  0.00    +0.000 C 
ENDBRANCH  29  33
ENDBRANCH  23  29
ENDBRANCH  22  26
ENDBRANCH   1  22
TORSDOF 8
ENDMDL
MODEL 6
REMARK VINA RESULT:      -7.8      1.621      2.819
REMARK  Name = 
REMARK  8 active torsions:
REMARK  status: ('A' for Active; 'I' for Inactive)
REMARK    1  A    between atoms: C_2  and  C_3
REMARK    2  A    between atoms: C_3  and  C_6
REMARK    3  A    between atoms: C_9  and  O_10
REMARK    4  A    between atoms: O_10  and  C_11
REMARK    5  A    between atoms: C_14  and  N_15
REMARK    6  A    between atoms: C_16  and  C_18
REMARK    7  A    between atoms: C_18  and  O_19
REMARK    8  A    between atoms: O_19  and  C_20
REMARK                            x       y       z     vdW  Elec       q    Type
REMARK                         _______ _______ _______ _____ _____    ______ ____
ROOT
ATOM      1  C   UNL     1      40.418   6.286  17.910  0.00  0.00    +0.000 A 
ATOM      2  C   UNL     1      40.398   6.103  16.536  0.00  0.00    +0.000 A 
ATOM      3  C   UNL     1      39.459   5.271  15.943  0.00  0.00    +0.000 A 
ATOM      4  C   UNL     1      38.512   4.595  16.685  0.00  0.00    +0.000 A 
ATOM      5  C   UNL     1      38.555   4.796  18.061  0.00  0.00    +0.000 A 
ATOM      6  C   UNL     1      39.471   5.613  18.681  0.00  0.00    +0.000 A 
ENDROOT
BRANCH   4   7
ATOM      7  N   UNL     1      37.518   3.744  16.138  0.00  0.00    +0.000 NA
ATOM      8  C   UNL     1      37.828   2.562  15.402  0.00  0.00    +0.000 C 
ATOM      9  O   UNL     1      39.048   2.294  15.255  0.00  0.00    +0.000 OA
BRANCH   8  10
ATOM     10  C   UNL     1      36.728   1.706  14.843  0.00  0.00    +0.000 C 
BRANCH  10  11
ATOM     11  O   UNL     1      37.043   0.353  15.107  0.00  0.00    +0.000 OA
BRANCH  11  12
ATOM     12  C   UNL     1      36.745  -0.081  16.408  0.00  0.00    +0.000 A 
ATOM     13  N   UNL     1      35.807   0.510  17.183  0.00  0.00    +0.000 NA
ATOM     14  C   UNL     1      35.549   0.068  18.425  0.00  0.00    +0.000 A 
ATOM     15  N   UNL     1      36.221  -0.986  18.938  0.00  0.00    +0.000 NA
ATOM     16  C   UNL     1      37.163  -1.618  18.223  0.00  0.00    +0.000 A 
ATOM     17  C   UNL     1      37.883  -2.694  18.700  0.00  0.00    +0.000 A 
ATOM     18  C   UNL     1      38.853  -3.312  17.926  0.00  0.00    +0.000 A 
ATOM     19  C   UNL     1      39.109  -2.847  16.656  0.00  0.00    +0.000 A 
ATOM     20  C   UNL     1      38.381  -1.769  16.190  0.00  0.00    +0.000 A 
ATOM     21  C   UNL     1      37.415  -1.147  16.949  0.00  0.00    +0.000 A 
ENDBRANCH  11  12
ENDBRANCH  10  11
ENDBRANCH   8  10
ENDBRANCH   4   7
BRANCH   1  22
ATOM     22  O   UNL     1      41.324   7.100  18.518  0.00  0.00    +0.000 OA
BRANCH  22  26
ATOM     23  C   UNL     1      44.556   6.111  20.930  0.00  0.00    +0.000 A 
ATOM     24  C   UNL     1      43.281   5.968  21.429  0.00  0.00    +0.000 A 
ATOM     25  C   UNL     1      42.217   6.300  20.614  0.00  0.00    +0.000 A 
ATOM     26  C   UNL     1      42.333   6.763  19.339  0.00  0.00    +0.000 A 
ATOM     27  C   UNL     1      43.634   6.902  18.850  0.00  0.00    +0.000 A 
ATOM     28  C   UNL     1      44.714   6.577  19.641  0.00  0.00    +0.000 A 
BRANCH  23  29
ATOM     29  C   UNL     1      45.789   5.797  21.724  0.00  0.00    +0.000 C 
ATOM     30  C   UNL     1      46.080   4.325  21.643  0.00  0.00    +0.000 C 
ATOM     31  C   UNL     1      46.962   6.590  21.225  0.00  0.00    +0.000 C 
BRANCH  29  33
ATOM     32  C   UNL     1      45.759   4.954  24.047  0.00  0.00    +0.000 C 
ATOM     33  C   UNL     1      45.484   6.148  23.185  0.00  0.00    +0.000 C 
ENDBRANCH  29  33
ENDBRANCH  23  29
ENDBRANCH  22  26
ENDBRANCH   1  22
TORSDOF 8
ENDMDL
MODEL 7
REMARK VINA RESULT:      -7.7      6.945     11.441
REMARK  Name = 
REMARK  8 active torsions:
REMARK  status: ('A' for Active; 'I' for Inactive)
REMARK    1  A    between atoms: C_2  and  C_3
REMARK    2  A    between atoms: C_3  and  C_6
REMARK    3  A    between atoms: C_9  and  O_10
REMARK    4  A    between atoms: O_10  and  C_11
REMARK    5  A    between atoms: C_14  and  N_15
REMARK    6  A    between atoms: C_16  and  C_18
REMARK    7  A    between atoms: C_18  and  O_19
REMARK    8  A    between atoms: O_19  and  C_20
REMARK                            x       y       z     vdW  Elec       q    Type
REMARK                         _______ _______ _______ _____ _____    ______ ____
ROOT
ATOM      1  C   UNL     1      44.277   6.540  21.819  0.00  0.00    +0.000 A 
ATOM      2  C   UNL     1      44.128   7.417  22.882  0.00  0.00    +0.000 A 
ATOM      3  C   UNL     1      44.483   7.041  24.170  0.00  0.00    +0.000 A 
ATOM      4  C   UNL     1      44.996   5.791  24.448  0.00  0.00    +0.000 A 
ATOM      5  C   UNL     1      45.136   4.930  23.363  0.00  0.00    +0.000 A 
ATOM      6  C   UNL     1      44.794   5.271  22.075  0.00  0.00    +0.000 A 
ENDROOT
BRANCH   4   7
ATOM      7  N   UNL     1      45.392   5.352  25.738  0.00  0.00    +0.000 NA
ATOM      8  C   UNL     1      44.511   4.675  26.631  0.00  0.00    +0.000 C 
ATOM      9  O   UNL     1      43.339   4.472  26.220  0.00  0.00    +0.000 OA
BRANCH   8  10
ATOM     10  C   UNL     1      44.990   4.241  27.987  0.00  0.00    +0.000 C 
BRANCH  10  11
ATOM     11  O   UNL     1      44.416   5.099  28.954  0.00  0.00    +0.000 OA
BRANCH  11  12
ATOM     12  C   UNL     1      43.309   4.569  29.633  0.00  0.00    +0.000 A 
ATOM     13  N   UNL     1      43.352   3.396  30.305  0.00  0.00    +0.000 NA
ATOM     14  C   UNL     1      42.271   2.918  30.944  0.00  0.00    +0.000 A 
ATOM     15  N   UNL     1      41.104   3.599  30.934  0.00  0.00    +0.000 NA
ATOM     16  C   UNL     1      40.992   4.767  30.286  0.00  0.00    +0.000 A 
ATOM     17  C   UNL     1      39.824   5.500  30.239  0.00  0.00    +0.000 A 
ATOM     18  C   UNL     1      39.755   6.702  29.551  0.00  0.00    +0.000 A 
ATOM     19  C   UNL     1      40.869   7.178  28.899  0.00  0.00    +0.000 A 
ATOM     20  C   UNL     1      42.033   6.436  28.954  0.00  0.00    +0.000 A 
ATOM     21  C   UNL     1      42.115   5.242  29.634  0.00  0.00    +0.000 A 
ENDBRANCH  11  12
ENDBRANCH  10  11
ENDBRANCH   8  10
ENDBRANCH   4   7
BRANCH   1  22
ATOM     22  O   UNL     1      43.942   6.884  20.545  0.00  0.00    +0.000 OA
BRANCH  22  26
ATOM     23  C   UNL     1      40.457   6.211  18.390  0.00  0.00    +0.000 A 
ATOM     24  C   UNL     1      40.395   6.255  19.764  0.00  0.00    +0.000 A 
ATOM     25  C   UNL     1      41.563   6.481  20.466  0.00  0.00    +0.000 A 
ATOM     26  C   UNL     1      42.785   6.667  19.897  0.00  0.00    +0.000 A 
ATOM     27  C   UNL     1      42.828   6.618  18.502  0.00  0.00    +0.000 A 
ATOM     28  C   UNL     1      41.679   6.396  17.777  0.00  0.00    +0.000 A 
BRANCH  23  29
ATOM     29  C   UNL     1      39.260   5.960  17.521  0.00  0.00    +0.000 C 
ATOM     30  C   UNL     1      38.583   4.690  17.951  0.00  0.00    +0.000 C 
ATOM     31  C   UNL     1      38.302   7.112  17.587  0.00  0.00    +0.000 C 
BRANCH  29  33
ATOM     32  C   UNL     1      39.259   4.473  15.546  0.00  0.00    +0.000 C 
ATOM     33  C   UNL     1      39.777   5.770  16.090  0.00  0.00    +0.000 C 
ENDBRANCH  29  33
ENDBRANCH  23  29
ENDBRANCH  22  26
ENDBRANCH   1  22
TORSDOF 8
ENDMDL
MODEL 8
REMARK VINA RESULT:      -7.6      2.050      3.482
REMARK  Name = 
REMARK  8 active torsions:
REMARK  status: ('A' for Active; 'I' for Inactive)
REMARK    1  A    between atoms: C_2  and  C_3
REMARK    2  A    between atoms: C_3  and  C_6
REMARK    3  A    between atoms: C_9  and  O_10
REMARK    4  A    between atoms: O_10  and  C_11
REMARK    5  A    between atoms: C_14  and  N_15
REMARK    6  A    between atoms: C_16  and  C_18
REMARK    7  A    between atoms: C_18  and  O_19
REMARK    8  A    between atoms: O_19  and  C_20
REMARK                            x       y       z     vdW  Elec       q    Type
REMARK                         _______ _______ _______ _____ _____    ______ ____
ROOT
ATOM      1  C   UNL     1      40.604   6.704  18.544  0.00  0.00    +0.000 A 
ATOM      2  C   UNL     1      40.883   6.411  17.218  0.00  0.00    +0.000 A 
ATOM      3  C   UNL     1      40.117   5.491  16.516  0.00  0.00    +0.000 A 
ATOM      4  C   UNL     1      39.053   4.834  17.099  0.00  0.00    +0.000 A 
ATOM      5  C   UNL     1      38.794   5.146  18.429  0.00  0.00    +0.000 A 
ATOM      6  C   UNL     1      39.533   6.052  19.154  0.00  0.00    +0.000 A 
ENDROOT
BRANCH   4   7
ATOM      7  N   UNL     1      38.224   3.896  16.431  0.00  0.00    +0.000 NA
ATOM      8  C   UNL     1      37.244   4.275  15.467  0.00  0.00    +0.000 C 
ATOM      9  O   UNL     1      37.142   5.505  15.221  0.00  0.00    +0.000 OA
BRANCH   8  10
ATOM     10  C   UNL     1      36.393   3.233  14.800  0.00  0.00    +0.000 C 
BRANCH  10  11
ATOM     11  O   UNL     1      36.227   2.155  15.700  0.00  0.00    +0.000 OA
BRANCH  11  12
ATOM     12  C   UNL     1      36.500   0.888  15.164  0.00  0.00    +0.000 A 
ATOM     13  N   UNL     1      37.342   0.697  14.123  0.00  0.00    +0.000 NA
ATOM     14  C   UNL     1      37.579  -0.532  13.633  0.00  0.00    +0.000 A 
ATOM     15  N   UNL     1      36.981  -1.618  14.171  0.00  0.00    +0.000 NA
ATOM     16  C   UNL     1      36.135  -1.499  15.205  0.00  0.00    +0.000 A 
ATOM     17  C   UNL     1      35.494  -2.573  15.787  0.00  0.00    +0.000 A 
ATOM     18  C   UNL     1      34.622  -2.401  16.851  0.00  0.00    +0.000 A 
ATOM     19  C   UNL     1      34.386  -1.136  17.341  0.00  0.00    +0.000 A 
ATOM     20  C   UNL     1      35.035  -0.069  16.749  0.00  0.00    +0.000 A 
ATOM     21  C   UNL     1      35.903  -0.227  15.693  0.00  0.00    +0.000 A 
ENDBRANCH  11  12
ENDBRANCH  10  11
ENDBRANCH   8  10
ENDBRANCH   4   7
BRANCH   1  22
ATOM     22  O   UNL     1      41.335   7.605  19.256  0.00  0.00    +0.000 OA
BRANCH  22  26
ATOM     23  C   UNL     1      44.069   7.067  22.334  0.00  0.00    +0.000 A 
ATOM     24  C   UNL     1      43.480   5.962  21.762  0.00  0.00    +0.000 A 
ATOM     25  C   UNL     1      42.574   6.158  20.738  0.00  0.00    +0.000 A 
ATOM     26  C   UNL     1      42.214   7.375  20.245  0.00  0.00    +0.000 A 
ATOM     27  C   UNL     1      42.822   8.483  20.838  0.00  0.00    +0.000 A 
ATOM     28  C   UNL     1      43.730   8.317  21.859  0.00  0.00    +0.000 A 
BRANCH  23  29
ATOM     29  C   UNL     1      45.056   6.981  23.460  0.00  0.00    +0.000 C 
ATOM     30  C   UNL     1      45.370   5.540  23.746  0.00  0.00    +0.000 C 
ATOM     31  C   UNL     1      46.311   7.734  23.128  0.00  0.00    +0.000 C 
BRANCH  29  33
ATOM     32  C   UNL     1      43.937   6.475  25.605  0.00  0.00    +0.000 C 
ATOM     33  C   UNL     1      44.379   7.582  24.697  0.00  0.00    +0.000 C 
ENDBRANCH  29  33
ENDBRANCH  23  29
ENDBRANCH  22  26
ENDBRANCH   1  22
TORSDOF 8
ENDMDL
MODEL 9
REMARK VINA RESULT:      -7.6      6.493      8.957
REMARK  Name = 
REMARK  8 active torsions:
REMARK  status: ('A' for Active; 'I' for Inactive)
REMARK    1  A    between atoms: C_2  and  C_3
REMARK    2  A    between atoms: C_3  and  C_6
REMARK    3  A    between atoms: C_9  and  O_10
REMARK    4  A    between atoms: O_10  and  C_11
REMARK    5  A    between atoms: C_14  and  N_15
REMARK    6  A    between atoms: C_16  and  C_18
REMARK    7  A    between atoms: C_18  and  O_19
REMARK    8  A    between atoms: O_19  and  C_20
REMARK                            x       y       z     vdW  Elec       q    Type
REMARK                         _______ _______ _______ _____ _____    ______ ____
ROOT
ATOM      1  C   UNL     1      37.697   4.767  14.180  0.00  0.00    +0.000 A 
ATOM      2  C   UNL     1      38.117   4.659  12.864  0.00  0.00    +0.000 A 
ATOM      3  C   UNL     1      37.337   5.149  11.825  0.00  0.00    +0.000 A 
ATOM      4  C   UNL     1      36.121   5.759  12.054  0.00  0.00    +0.000 A 
ATOM      5  C   UNL     1      35.723   5.854  13.384  0.00  0.00    +0.000 A 
ATOM      6  C   UNL     1      36.471   5.380  14.436  0.00  0.00    +0.000 A 
ENDROOT
BRANCH   4   7
ATOM      7  N   UNL     1      35.285   6.293  11.039  0.00  0.00    +0.000 NA
ATOM      8  C   UNL     1      35.453   7.605  10.506  0.00  0.00    +0.000 C 
ATOM      9  O   UNL     1      36.397   8.289  10.980  0.00  0.00    +0.000 OA
BRANCH   8  10
ATOM     10  C   UNL     1      34.530   8.113   9.437  0.00  0.00    +0.000 C 
BRANCH  10  11
ATOM     11  O   UNL     1      33.756   7.026   8.967  0.00  0.00    +0.000 OA
BRANCH  11  12
ATOM     12  C   UNL     1      33.660   6.927   7.571  0.00  0.00    +0.000 A 
ATOM     13  N   UNL     1      32.973   7.815   6.817  0.00  0.00    +0.000 NA
ATOM     14  C   UNL     1      32.902   7.688   5.481  0.00  0.00    +0.000 A 
ATOM     15  N   UNL     1      33.519   6.665   4.849  0.00  0.00    +0.000 NA
ATOM     16  C   UNL     1      34.217   5.750   5.537  0.00  0.00    +0.000 A 
ATOM     17  C   UNL     1      34.860   4.683   4.944  0.00  0.00    +0.000 A 
ATOM     18  C   UNL     1      35.565   3.757   5.697  0.00  0.00    +0.000 A 
ATOM     19  C   UNL     1      35.628   3.898   7.065  0.00  0.00    +0.000 A 
ATOM     20  C   UNL     1      34.980   4.971   7.647  0.00  0.00    +0.000 A 
ATOM     21  C   UNL     1      34.277   5.896   6.910  0.00  0.00    +0.000 A 
ENDBRANCH  11  12
ENDBRANCH  10  11
ENDBRANCH   8  10
ENDBRANCH   4   7
BRANCH   1  22
ATOM     22  O   UNL     1      38.444   4.300  15.218  0.00  0.00    +0.000 OA
BRANCH  22  26
ATOM     23  C   UNL     1      40.043   6.364  18.447  0.00  0.00    +0.000 A 
ATOM     24  C   UNL     1      40.623   6.511  17.206  0.00  0.00    +0.000 A 
ATOM     25  C   UNL     1      40.078   5.818  16.143  0.00  0.00    +0.000 A 
ATOM     26  C   UNL     1      38.999   4.993  16.228  0.00  0.00    +0.000 A 
ATOM     27  C   UNL     1      38.425   4.857  17.493  0.00  0.00    +0.000 A 
ATOM     28  C   UNL     1      38.947   5.536  18.571  0.00  0.00    +0.000 A 
BRANCH  23  29
ATOM     29  C   UNL     1      40.553   7.053  19.678  0.00  0.00    +0.000 C 
ATOM     30  C   UNL     1      41.435   8.203  19.284  0.00  0.00    +0.000 C 
ATOM     31  C   UNL     1      39.415   7.534  20.530  0.00  0.00    +0.000 C 
BRANCH  29  33
ATOM     32  C   UNL     1      42.836   6.473  20.425  0.00  0.00    +0.000 C 
ATOM     33  C   UNL     1      41.404   6.033  20.443  0.00  0.00    +0.000 C 
ENDBRANCH  29  33
ENDBRANCH  23  29
ENDBRANCH  22  26
ENDBRANCH   1  22
TORSDOF 8
ENDMDL
MODEL 10
REMARK VINA RESULT:      -7.6     23.673     28.311
REMARK  Name = 
REMARK  8 active torsions:
REMARK  status: ('A' for Active; 'I' for Inactive)
REMARK    1  A    between atoms: C_2  and  C_3
REMARK    2  A    between atoms: C_3  and  C_6
REMARK    3  A    between atoms: C_9  and  O_10
REMARK    4  A    between atoms: O_10  and  C_11
REMARK    5  A    between atoms: C_14  and  N_15
REMARK    6  A    between atoms: C_16  and  C_18
REMARK    7  A    between atoms: C_18  and  O_19
REMARK    8  A    between atoms: O_19  and  C_20
REMARK                            x       y       z     vdW  Elec       q    Type
REMARK                         _______ _______ _______ _____ _____    ______ ____
ROOT
ATOM      1  C   UNL     1      11.573  -0.053  27.324  0.00  0.00    +0.000 A 
ATOM      2  C   UNL     1      12.197   1.184  27.297  0.00  0.00    +0.000 A 
ATOM      3  C   UNL     1      13.575   1.289  27.424  0.00  0.00    +0.000 A 
ATOM      4  C   UNL     1      14.378   0.178  27.581  0.00  0.00    +0.000 A 
ATOM      5  C   UNL     1      13.727  -1.051  27.605  0.00  0.00    +0.000 A 
ATOM      6  C   UNL     1      12.364  -1.191  27.482  0.00  0.00    +0.000 A 
ENDROOT
BRANCH   4   7
ATOM      7  N   UNL     1      15.792   0.218  27.701  0.00  0.00    +0.000 NA
ATOM      8  C   UNL     1      16.668   0.122  26.580  0.00  0.00    +0.000 C 
ATOM      9  O   UNL     1      16.127   0.002  25.451  0.00  0.00    +0.000 OA
BRANCH   8  10
ATOM     10  C   UNL     1      18.156   0.164  26.776  0.00  0.00    +0.000 C 
BRANCH  10  11
ATOM     11  O   UNL     1      18.747  -0.750  25.873  0.00  0.00    +0.000 OA
BRANCH  11  12
ATOM     12  C   UNL     1      19.362  -0.166  24.756  0.00  0.00    +0.000 A 
ATOM     13  N   UNL     1      19.639   1.156  24.677  0.00  0.00    +0.000 NA
ATOM     14  C   UNL     1      20.228   1.682  23.589  0.00  0.00    +0.000 A 
ATOM     15  N   UNL     1      20.564   0.901  22.539  0.00  0.00    +0.000 NA
ATOM     16  C   UNL     1      20.318  -0.417  22.552  0.00  0.00    +0.000 A 
ATOM     17  C   UNL     1      20.634  -1.258  21.505  0.00  0.00    +0.000 A 
ATOM     18  C   UNL     1      20.354  -2.614  21.561  0.00  0.00    +0.000 A 
ATOM     19  C   UNL     1      19.748  -3.139  22.680  0.00  0.00    +0.000 A 
ATOM     20  C   UNL     1      19.437  -2.287  23.721  0.00  0.00    +0.000 A 
ATOM     21  C   UNL     1      19.710  -0.938  23.678  0.00  0.00    +0.000 A 
ENDBRANCH  11  12
ENDBRANCH  10  11
ENDBRANCH   8  10
ENDBRANCH   4   7
BRANCH   1  22
ATOM     22  O   UNL     1      10.224  -0.187  27.196  0.00  0.00    +0.000 OA
BRANCH  22  26
ATOM     23  C   UNL     1       8.091  -1.520  23.894  0.00  0.00    +0.000 A 
ATOM     24  C   UNL     1       8.322  -2.390  24.936  0.00  0.00    +0.000 A 
ATOM     25  C   UNL     1       9.032  -1.930  26.027  0.00  0.00    +0.000 A 
ATOM     26  C   UNL     1       9.526  -0.668  26.154  0.00  0.00    +0.000 A 
ATOM     27  C   UNL     1       9.281   0.199  25.087  0.00  0.00    +0.000 A 
ATOM     28  C   UNL     1       8.575  -0.232  23.987  0.00  0.00    +0.000 A 
BRANCH  23  29
ATOM     29  C   UNL     1       7.345  -1.908  22.651  0.00  0.00    +0.000 C 
ATOM     30  C   UNL     1       8.320  -2.310  21.582  0.00  0.00    +0.000 C 
ATOM     31  C   UNL     1       6.385  -3.027  22.931  0.00  0.00    +0.000 C 
BRANCH  29  33
ATOM     32  C   UNL     1       5.169  -0.735  22.636  0.00  0.00    +0.000 C 
ATOM     33  C   UNL     1       6.592  -0.660  22.173  0.00  0.00    +0.000 C 
ENDBRANCH  29  33
ENDBRANCH  23  29
ENDBRANCH  22  26
ENDBRANCH   1  22
TORSDOF 8
ENDMDL
