MODEL 1
REMARK VINA RESULT:      -8.3      0.000      0.000
REMARK  Name = 
REMARK  8 active torsions:
REMARK  status: ('A' for Active; 'I' for Inactive)
REMARK    1  A    between atoms: C_6  and  C_7
REMARK    2  A    between atoms: C_10  and  N_11
REMARK    3  A    between atoms: C_12  and  C_14
REMARK    4  A    between atoms: C_14  and  O_15
REMARK    5  A    between atoms: O_15  and  C_16
REMARK    6  A    between atoms: C_16  and  C_18
REMARK    7  A    between atoms: C_23  and  C_24
REMARK    8  A    between atoms: C_24  and  C_25
REMARK                            x       y       z     vdW  Elec       q    Type
REMARK                         _______ _______ _______ _____ _____    ______ ____
ROOT
ATOM      1  O   UNL     1      38.012   3.461  16.534  0.00  0.00    +0.000 OA
ENDROOT
BRANCH   1   2
ATOM      2  C   UNL     1      38.376   4.734  16.203  0.00  0.00    +0.000 C 
ATOM      3  O   UNL     1      37.447   5.477  15.725  0.00  0.00    +0.000 OA
BRANCH   2   4
ATOM      4  C   UNL     1      39.674   5.341  16.329  0.00  0.00    +0.000 A 
ATOM      5  C   UNL     1      40.495   5.523  15.207  0.00  0.00    +0.000 A 
ATOM      6  C   UNL     1      41.703   6.169  15.288  0.00  0.00    +0.000 A 
ATOM      7  C   UNL     1      42.130   6.655  16.503  0.00  0.00    +0.000 A 
ATOM      8  C   UNL     1      41.357   6.495  17.623  0.00  0.00    +0.000 A 
ATOM      9  C   UNL     1      40.121   5.827  17.513  0.00  0.00    +0.000 A 
BRANCH   9  10
ATOM     10  C   UNL     1      39.401   5.627  18.795  0.00  0.00    +0.000 C 
BRANCH  10  11
ATOM     11  C   UNL     1      38.871   6.917  19.283  0.00  0.00    +0.000 A 
ATOM     12  C   UNL     1      37.843   7.567  18.575  0.00  0.00    +0.000 A 
ATOM     13  C   UNL     1      37.320   8.770  19.003  0.00  0.00    +0.000 A 
ATOM     14  C   UNL     1      37.809   9.366  20.156  0.00  0.00    +0.000 A 
ATOM     15  C   UNL     1      38.818   8.752  20.873  0.00  0.00    +0.000 A 
ATOM     16  C   UNL     1      39.300   7.559  20.403  0.00  0.00    +0.000 A 
ENDBRANCH  10  11
ENDBRANCH   9  10
ENDBRANCH   2   4
ENDBRANCH   1   2
BRANCH   1  17
ATOM     17  C   UNL     1      36.690   3.020  16.722  0.00  0.00    +0.000 C 
BRANCH  17  19
ATOM     18  N   UNL     1      36.844   0.522  16.561  0.00  0.00    +0.000 NA
ATOM     19  C   UNL     1      36.414   1.749  16.027  0.00  0.00    +0.000 C 
ATOM     20  O   UNL     1      35.789   1.766  14.947  0.00  0.00    +0.000 OA
BRANCH  18  27
ATOM     21  C   UNL     1      34.458  -0.880  17.184  0.00  0.00    +0.000 C 
ATOM     22  C   UNL     1      35.483  -1.425  16.257  0.00  0.00    +0.000 A 
ATOM     23  C   UNL     1      35.228  -2.670  15.696  0.00  0.00    +0.000 A 
ATOM     24  C   UNL     1      36.163  -3.213  14.824  0.00  0.00    +0.000 A 
ATOM     25  C   UNL     1      37.300  -2.536  14.531  0.00  0.00    +0.000 A 
ATOM     26  C   UNL     1      37.540  -1.298  15.097  0.00  0.00    +0.000 A 
ATOM     27  C   UNL     1      36.628  -0.739  15.964  0.00  0.00    +0.000 A 
BRANCH  26  28
ATOM     28  C   UNL     1      38.773  -0.562  14.780  0.00  0.00    +0.000 C 
ATOM     29  C   UNL     1      38.696   0.127  13.434  0.00  0.00    +0.000 C 
ATOM     30  C   UNL     1      40.024  -1.404  14.911  0.00  0.00    +0.000 C 
ENDBRANCH  26  28
ENDBRANCH  18  27
ENDBRANCH  17  19
ENDBRANCH   1  17
TORSDOF 8
ENDMDL
MODEL 2
REMARK VINA RESULT:      -8.0      1.049      2.509
REMARK  Name = 
REMARK  8 active torsions:
REMARK  status: ('A' for Active; 'I' for Inactive)
REMARK    1  A    between atoms: C_6  and  C_7
REMARK    2  A    between atoms: C_10  and  N_11
REMARK    3  A    between atoms: C_12  and  C_14
REMARK    4  A    between atoms: C_14  and  O_15
REMARK    5  A    between atoms: O_15  and  C_16
REMARK    6  A    between atoms: C_16  and  C_18
REMARK    7  A    between atoms: C_23  and  C_24
REMARK    8  A    between atoms: C_24  and  C_25
REMARK                            x       y       z     vdW  Elec       q    Type
REMARK                         _______ _______ _______ _____ _____    ______ ____
ROOT
ATOM      1  O   UNL     1      37.952   4.236  15.357  0.00  0.00    +0.000 OA
ENDROOT
BRANCH   1   2
ATOM      2  C   UNL     1      38.501   5.475  15.520  0.00  0.00    +0.000 C 
ATOM      3  O   UNL     1      37.722   6.468  15.296  0.00  0.00    +0.000 OA
BRANCH   2   4
ATOM      4  C   UNL     1      39.846   5.798  15.917  0.00  0.00    +0.000 A 
ATOM      5  C   UNL     1      40.829   6.082  14.960  0.00  0.00    +0.000 A 
ATOM      6  C   UNL     1      42.097   6.469  15.313  0.00  0.00    +0.000 A 
ATOM      7  C   UNL     1      42.423   6.584  16.646  0.00  0.00    +0.000 A 
ATOM      8  C   UNL     1      41.490   6.312  17.612  0.00  0.00    +0.000 A 
ATOM      9  C   UNL     1      40.195   5.916  17.222  0.00  0.00    +0.000 A 
BRANCH   9  10
ATOM     10  C   UNL     1      39.285   5.559  18.339  0.00  0.00    +0.000 C 
BRANCH  10  11
ATOM     11  C   UNL     1      38.784   6.786  18.993  0.00  0.00    +0.000 A 
ATOM     12  C   UNL     1      39.366   7.232  20.193  0.00  0.00    +0.000 A 
ATOM     13  C   UNL     1      38.929   8.375  20.829  0.00  0.00    +0.000 A 
ATOM     14  C   UNL     1      37.889   9.114  20.285  0.00  0.00    +0.000 A 
ATOM     15  C   UNL     1      37.295   8.702  19.106  0.00  0.00    +0.000 A 
ATOM     16  C   UNL     1      37.771   7.560  18.518  0.00  0.00    +0.000 A 
ENDBRANCH  10  11
ENDBRANCH   9  10
ENDBRANCH   2   4
ENDBRANCH   1   2
BRANCH   1  17
ATOM     17  C   UNL     1      38.672   3.063  15.072  0.00  0.00    +0.000 C 
BRANCH  17  19
ATOM     18  N   UNL     1      38.037   0.687  15.563  0.00  0.00    +0.000 NA
ATOM     19  C   UNL     1      37.793   1.893  14.884  0.00  0.00    +0.000 C 
ATOM     20  O   UNL     1      36.818   1.978  14.110  0.00  0.00    +0.000 OA
BRANCH  18  27
ATOM     21  C   UNL     1      38.680  -1.170  13.517  0.00  0.00    +0.000 C 
ATOM     22  C   UNL     1      37.552  -1.383  14.460  0.00  0.00    +0.000 A 
ATOM     23  C   UNL     1      36.808  -2.546  14.301  0.00  0.00    +0.000 A 
ATOM     24  C   UNL     1      35.745  -2.780  15.164  0.00  0.00    +0.000 A 
ATOM     25  C   UNL     1      35.445  -1.888  16.139  0.00  0.00    +0.000 A 
ATOM     26  C   UNL     1      36.194  -0.736  16.285  0.00  0.00    +0.000 A 
ATOM     27  C   UNL     1      37.253  -0.482  15.442  0.00  0.00    +0.000 A 
BRANCH  26  28
ATOM     28  C   UNL     1      35.869   0.233  17.343  0.00  0.00    +0.000 C 
ATOM     29  C   UNL     1      35.603  -0.443  18.672  0.00  0.00    +0.000 C 
ATOM     30  C   UNL     1      34.758   1.186  16.962  0.00  0.00    +0.000 C 
ENDBRANCH  26  28
ENDBRANCH  18  27
ENDBRANCH  17  19
ENDBRANCH   1  17
TORSDOF 8
ENDMDL
MODEL 3
REMARK VINA RESULT:      -7.9      1.730      2.819
REMARK  Name = 
REMARK  8 active torsions:
REMARK  status: ('A' for Active; 'I' for Inactive)
REMARK    1  A    between atoms: C_6  and  C_7
REMARK    2  A    between atoms: C_10  and  N_11
REMARK    3  A    between atoms: C_12  and  C_14
REMARK    4  A    between atoms: C_14  and  O_15
REMARK    5  A    between atoms: O_15  and  C_16
REMARK    6  A    between atoms: C_16  and  C_18
REMARK    7  A    between atoms: C_23  and  C_24
REMARK    8  A    between atoms: C_24  and  C_25
REMARK                            x       y       z     vdW  Elec       q    Type
REMARK                         _______ _______ _______ _____ _____    ______ ____
ROOT
ATOM      1  O   UNL     1      38.756   3.104  15.775  0.00  0.00    +0.000 OA
ENDROOT
BRANCH   1   2
ATOM      2  C   UNL     1      38.052   3.989  16.539  0.00  0.00    +0.000 C 
ATOM      3  O   UNL     1      37.300   3.477  17.442  0.00  0.00    +0.000 OA
BRANCH   2   4
ATOM      4  C   UNL     1      38.056   5.425  16.455  0.00  0.00    +0.000 A 
ATOM      5  C   UNL     1      37.583   6.080  15.309  0.00  0.00    +0.000 A 
ATOM      6  C   UNL     1      37.505   7.448  15.234  0.00  0.00    +0.000 A 
ATOM      7  C   UNL     1      37.901   8.208  16.311  0.00  0.00    +0.000 A 
ATOM      8  C   UNL     1      38.371   7.606  17.448  0.00  0.00    +0.000 A 
ATOM      9  C   UNL     1      38.443   6.199  17.499  0.00  0.00    +0.000 A 
BRANCH   9  10
ATOM     10  C   UNL     1      39.048   5.647  18.737  0.00  0.00    +0.000 C 
BRANCH  10  11
ATOM     11  C   UNL     1      40.455   6.083  18.848  0.00  0.00    +0.000 A 
ATOM     12  C   UNL     1      41.009   6.354  20.112  0.00  0.00    +0.000 A 
ATOM     13  C   UNL     1      42.320   6.759  20.256  0.00  0.00    +0.000 A 
ATOM     14  C   UNL     1      43.124   6.908  19.136  0.00  0.00    +0.000 A 
ATOM     15  C   UNL     1      42.609   6.650  17.879  0.00  0.00    +0.000 A 
ATOM     16  C   UNL     1      41.302   6.251  17.796  0.00  0.00    +0.000 A 
ENDBRANCH  10  11
ENDBRANCH   9  10
ENDBRANCH   2   4
ENDBRANCH   1   2
BRANCH   1  17
ATOM     17  C   UNL     1      38.333   2.589  14.537  0.00  0.00    +0.000 C 
BRANCH  17  19
ATOM     18  N   UNL     1      37.532   0.610  15.853  0.00  0.00    +0.000 NA
ATOM     19  C   UNL     1      37.489   1.388  14.684  0.00  0.00    +0.000 C 
ATOM     20  O   UNL     1      36.726   1.059  13.753  0.00  0.00    +0.000 OA
BRANCH  18  27
ATOM     21  C   UNL     1      34.951   0.889  16.996  0.00  0.00    +0.000 C 
ATOM     22  C   UNL     1      35.520  -0.432  16.629  0.00  0.00    +0.000 A 
ATOM     23  C   UNL     1      34.730  -1.549  16.872  0.00  0.00    +0.000 A 
ATOM     24  C   UNL     1      35.228  -2.803  16.543  0.00  0.00    +0.000 A 
ATOM     25  C   UNL     1      36.462  -2.928  15.996  0.00  0.00    +0.000 A 
ATOM     26  C   UNL     1      37.237  -1.808  15.761  0.00  0.00    +0.000 A 
ATOM     27  C   UNL     1      36.765  -0.554  16.079  0.00  0.00    +0.000 A 
BRANCH  26  28
ATOM     28  C   UNL     1      38.576  -1.942  15.167  0.00  0.00    +0.000 C 
ATOM     29  C   UNL     1      38.516  -2.369  13.716  0.00  0.00    +0.000 C 
ATOM     30  C   UNL     1      39.504  -2.822  15.977  0.00  0.00    +0.000 C 
ENDBRANCH  26  28
ENDBRANCH  18  27
ENDBRANCH  17  19
ENDBRANCH   1  17
TORSDOF 8
ENDMDL
MODEL 4
REMARK VINA RESULT:      -7.8      2.339      4.569
REMARK  Name = 
REMARK  8 active torsions:
REMARK  status: ('A' for Active; 'I' for Inactive)
REMARK    1  A    between atoms: C_6  and  C_7
REMARK    2  A    between atoms: C_10  and  N_11
REMARK    3  A    between atoms: C_12  and  C_14
REMARK    4  A    between atoms: C_14  and  O_15
REMARK    5  A    between atoms: O_15  and  C_16
REMARK    6  A    between atoms: C_16  and  C_18
REMARK    7  A    between atoms: C_23  and  C_24
REMARK    8  A    between atoms: C_24  and  C_25
REMARK                            x       y       z     vdW  Elec       q    Type
REMARK                         _______ _______ _______ _____ _____    ______ ____
ROOT
ATOM      1  O   UNL     1      38.115   3.461  12.346  0.00  0.00    +0.000 OA
ENDROOT
BRANCH   1   2
ATOM      2  C   UNL     1      37.364   4.162  13.244  0.00  0.00    +0.000 C 
ATOM      3  O   UNL     1      37.234   5.415  13.009  0.00  0.00    +0.000 OA
BRANCH   2   4
ATOM      4  C   UNL     1      36.700   3.663  14.419  0.00  0.00    +0.000 A 
ATOM      5  C   UNL     1      35.369   3.225  14.360  0.00  0.00    +0.000 A 
ATOM      6  C   UNL     1      34.737   2.673  15.446  0.00  0.00    +0.000 A 
ATOM      7  C   UNL     1      35.423   2.543  16.633  0.00  0.00    +0.000 A 
ATOM      8  C   UNL     1      36.724   2.962  16.731  0.00  0.00    +0.000 A 
ATOM      9  C   UNL     1      37.349   3.525  15.601  0.00  0.00    +0.000 A 
BRANCH   9  10
ATOM     10  C   UNL     1      38.726   4.028  15.832  0.00  0.00    +0.000 C 
BRANCH  10  11
ATOM     11  C   UNL     1      38.705   5.113  16.835  0.00  0.00    +0.000 A 
ATOM     12  C   UNL     1      38.210   6.383  16.488  0.00  0.00    +0.000 A 
ATOM     13  C   UNL     1      38.170   7.418  17.399  0.00  0.00    +0.000 A 
ATOM     14  C   UNL     1      38.626   7.218  18.693  0.00  0.00    +0.000 A 
ATOM     15  C   UNL     1      39.119   5.981  19.066  0.00  0.00    +0.000 A 
ATOM     16  C   UNL     1      39.135   4.990  18.120  0.00  0.00    +0.000 A 
ENDBRANCH  10  11
ENDBRANCH   9  10
ENDBRANCH   2   4
ENDBRANCH   1   2
BRANCH   1  17
ATOM     17  C   UNL     1      39.453   3.074  12.536  0.00  0.00    +0.000 C 
BRANCH  17  19
ATOM     18  N   UNL     1      39.948   1.185  14.110  0.00  0.00    +0.000 NA
ATOM     19  C   UNL     1      39.588   1.634  12.828  0.00  0.00    +0.000 C 
ATOM     20  O   UNL     1      39.378   0.803  11.921  0.00  0.00    +0.000 OA
BRANCH  18  27
ATOM     21  C   UNL     1      42.467  -0.052  13.693  0.00  0.00    +0.000 C 
ATOM     22  C   UNL     1      41.312  -0.777  14.281  0.00  0.00    +0.000 A 
ATOM     23  C   UNL     1      41.511  -2.108  14.625  0.00  0.00    +0.000 A 
ATOM     24  C   UNL     1      40.454  -2.820  15.178  0.00  0.00    +0.000 A 
ATOM     25  C   UNL     1      39.254  -2.221  15.375  0.00  0.00    +0.000 A 
ATOM     26  C   UNL     1      39.071  -0.896  15.027  0.00  0.00    +0.000 A 
ATOM     27  C   UNL     1      40.103  -0.170  14.478  0.00  0.00    +0.000 A 
BRANCH  26  28
ATOM     28  C   UNL     1      37.769  -0.246  15.240  0.00  0.00    +0.000 C 
ATOM     29  C   UNL     1      37.129  -0.665  16.548  0.00  0.00    +0.000 C 
ATOM     30  C   UNL     1      36.821  -0.406  14.072  0.00  0.00    +0.000 C 
ENDBRANCH  26  28
ENDBRANCH  18  27
ENDBRANCH  17  19
ENDBRANCH   1  17
TORSDOF 8
ENDMDL
MODEL 5
REMARK VINA RESULT:      -7.8      1.712      3.487
REMARK  Name = 
REMARK  8 active torsions:
REMARK  status: ('A' for Active; 'I' for Inactive)
REMARK    1  A    between atoms: C_6  and  C_7
REMARK    2  A    between atoms: C_10  and  N_11
REMARK    3  A    between atoms: C_12  and  C_14
REMARK    4  A    between atoms: C_14  and  O_15
REMARK    5  A    between atoms: O_15  and  C_16
REMARK    6  A    between atoms: C_16  and  C_18
REMARK    7  A    between atoms: C_23  and  C_24
REMARK    8  A    between atoms: C_24  and  C_25
REMARK                            x       y       z     vdW  Elec       q    Type
REMARK                         _______ _______ _______ _____ _____    ______ ____
ROOT
ATOM      1  O   UNL     1      38.579   3.548  15.646  0.00  0.00    +0.000 OA
ENDROOT
BRANCH   1   2
ATOM      2  C   UNL     1      39.125   4.798  15.588  0.00  0.00    +0.000 C 
ATOM      3  O   UNL     1      40.240   4.894  14.962  0.00  0.00    +0.000 OA
BRANCH   2   4
ATOM      4  C   UNL     1      38.599   6.018  16.140  0.00  0.00    +0.000 A 
ATOM      5  C   UNL     1      37.962   6.961  15.322  0.00  0.00    +0.000 A 
ATOM      6  C   UNL     1      37.383   8.095  15.835  0.00  0.00    +0.000 A 
ATOM      7  C   UNL     1      37.426   8.321  17.192  0.00  0.00    +0.000 A 
ATOM      8  C   UNL     1      38.042   7.424  18.024  0.00  0.00    +0.000 A 
ATOM      9  C   UNL     1      38.628   6.268  17.472  0.00  0.00    +0.000 A 
BRANCH   9  10
ATOM     10  C   UNL     1      39.347   5.405  18.443  0.00  0.00    +0.000 C 
BRANCH  10  11
ATOM     11  C   UNL     1      40.644   6.017  18.798  0.00  0.00    +0.000 A 
ATOM     12  C   UNL     1      40.934   6.318  20.141  0.00  0.00    +0.000 A 
ATOM     13  C   UNL     1      42.136   6.886  20.512  0.00  0.00    +0.000 A 
ATOM     14  C   UNL     1      43.091   7.172  19.548  0.00  0.00    +0.000 A 
ATOM     15  C   UNL     1      42.836   6.888  18.219  0.00  0.00    +0.000 A 
ATOM     16  C   UNL     1      41.627   6.325  17.909  0.00  0.00    +0.000 A 
ENDBRANCH  10  11
ENDBRANCH   9  10
ENDBRANCH   2   4
ENDBRANCH   1   2
BRANCH   1  17
ATOM     17  C   UNL     1      38.885   2.490  14.773  0.00  0.00    +0.000 C 
BRANCH  17  19
ATOM     18  N   UNL     1      37.982   0.271  15.514  0.00  0.00    +0.000 NA
ATOM     19  C   UNL     1      37.841   1.449  14.761  0.00  0.00    +0.000 C 
ATOM     20  O   UNL     1      36.816   1.618  14.069  0.00  0.00    +0.000 OA
BRANCH  18  27
ATOM     21  C   UNL     1      38.253  -1.875  13.679  0.00  0.00    +0.000 C 
ATOM     22  C   UNL     1      37.157  -1.817  14.680  0.00  0.00    +0.000 A 
ATOM     23  C   UNL     1      36.251  -2.870  14.685  0.00  0.00    +0.000 A 
ATOM     24  C   UNL     1      35.212  -2.851  15.607  0.00  0.00    +0.000 A 
ATOM     25  C   UNL     1      35.090  -1.823  16.481  0.00  0.00    +0.000 A 
ATOM     26  C   UNL     1      35.999  -0.782  16.463  0.00  0.00    +0.000 A 
ATOM     27  C   UNL     1      37.038  -0.778  15.559  0.00  0.00    +0.000 A 
BRANCH  26  28
ATOM     28  C   UNL     1      35.868   0.335  17.411  0.00  0.00    +0.000 C 
ATOM     29  C   UNL     1      35.664  -0.145  18.833  0.00  0.00    +0.000 C 
ATOM     30  C   UNL     1      34.821   1.348  17.002  0.00  0.00    +0.000 C 
ENDBRANCH  26  28
ENDBRANCH  18  27
ENDBRANCH  17  19
ENDBRANCH   1  17
TORSDOF 8
ENDMDL
MODEL 6
REMARK VINA RESULT:      -7.8      2.223      4.275
REMARK  Name = 
REMARK  8 active torsions:
REMARK  status: ('A' for Active; 'I' for Inactive)
REMARK    1  A    between atoms: C_6  and  C_7
REMARK    2  A    between atoms: C_10  and  N_11
REMARK    3  A    between atoms: C_12  and  C_14
REMARK    4  A    between atoms: C_14  and  O_15
REMARK    5  A    between atoms: O_15  and  C_16
REMARK    6  A    between atoms: C_16  and  C_18
REMARK    7  A    between atoms: C_23  and  C_24
REMARK    8  A    between atoms: C_24  and  C_25
REMARK                            x       y       z     vdW  Elec       q    Type
REMARK                         _______ _______ _______ _____ _____    ______ ____
ROOT
ATOM      1  O   UNL     1      36.035   2.194  13.907  0.00  0.00    +0.000 OA
ENDROOT
BRANCH   1   2
ATOM      2  C   UNL     1      35.917   3.238  14.777  0.00  0.00    +0.000 C 
ATOM      3  O   UNL     1      35.678   2.927  15.998  0.00  0.00    +0.000 OA
BRANCH   2   4
ATOM      4  C   UNL     1      36.032   4.643  14.490  0.00  0.00    +0.000 A 
ATOM      5  C   UNL     1      34.905   5.400  14.142  0.00  0.00    +0.000 A 
ATOM      6  C   UNL     1      34.974   6.756  13.939  0.00  0.00    +0.000 A 
ATOM      7  C   UNL     1      36.183   7.400  14.079  0.00  0.00    +0.000 A 
ATOM      8  C   UNL     1      37.307   6.694  14.417  0.00  0.00    +0.000 A 
ATOM      9  C   UNL     1      37.209   5.303  14.619  0.00  0.00    +0.000 A 
BRANCH   9  10
ATOM     10  C   UNL     1      38.496   4.617  14.893  0.00  0.00    +0.000 C 
BRANCH  10  11
ATOM     11  C   UNL     1      39.035   5.058  16.196  0.00  0.00    +0.000 A 
ATOM     12  C   UNL     1      40.229   5.800  16.249  0.00  0.00    +0.000 A 
ATOM     13  C   UNL     1      40.760   6.233  17.446  0.00  0.00    +0.000 A 
ATOM     14  C   UNL     1      40.113   5.936  18.637  0.00  0.00    +0.000 A 
ATOM     15  C   UNL     1      38.938   5.208  18.619  0.00  0.00    +0.000 A 
ATOM     16  C   UNL     1      38.457   4.805  17.401  0.00  0.00    +0.000 A 
ENDBRANCH  10  11
ENDBRANCH   9  10
ENDBRANCH   2   4
ENDBRANCH   1   2
BRANCH   1  17
ATOM     17  C   UNL     1      37.240   1.552  13.572  0.00  0.00    +0.000 C 
BRANCH  17  19
ATOM     18  N   UNL     1      37.264  -0.557  14.929  0.00  0.00    +0.000 NA
ATOM     19  C   UNL     1      37.768   0.730  14.678  0.00  0.00    +0.000 C 
ATOM     20  O   UNL     1      38.677   1.187  15.400  0.00  0.00    +0.000 OA
BRANCH  18  27
ATOM     21  C   UNL     1      39.479  -2.257  14.430  0.00  0.00    +0.000 C 
ATOM     22  C   UNL     1      38.770  -2.235  15.735  0.00  0.00    +0.000 A 
ATOM     23  C   UNL     1      39.239  -3.094  16.721  0.00  0.00    +0.000 A 
ATOM     24  C   UNL     1      38.602  -3.102  17.956  0.00  0.00    +0.000 A 
ATOM     25  C   UNL     1      37.545  -2.286  18.187  0.00  0.00    +0.000 A 
ATOM     26  C   UNL     1      37.090  -1.437  17.195  0.00  0.00    +0.000 A 
ATOM     27  C   UNL     1      37.705  -1.411  15.964  0.00  0.00    +0.000 A 
BRANCH  26  28
ATOM     28  C   UNL     1      35.943  -0.551  17.444  0.00  0.00    +0.000 C 
ATOM     29  C   UNL     1      36.174   0.360  18.632  0.00  0.00    +0.000 C 
ATOM     30  C   UNL     1      34.626  -1.289  17.547  0.00  0.00    +0.000 C 
ENDBRANCH  26  28
ENDBRANCH  18  27
ENDBRANCH  17  19
ENDBRANCH   1  17
TORSDOF 8
ENDMDL
MODEL 7
REMARK VINA RESULT:      -7.8      1.828      8.527
REMARK  Name = 
REMARK  8 active torsions:
REMARK  status: ('A' for Active; 'I' for Inactive)
REMARK    1  A    between atoms: C_6  and  C_7
REMARK    2  A    between atoms: C_10  and  N_11
REMARK    3  A    between atoms: C_12  and  C_14
REMARK    4  A    between atoms: C_14  and  O_15
REMARK    5  A    between atoms: O_15  and  C_16
REMARK    6  A    between atoms: C_16  and  C_18
REMARK    7  A    between atoms: C_23  and  C_24
REMARK    8  A    between atoms: C_24  and  C_25
REMARK                            x       y       z     vdW  Elec       q    Type
REMARK                         _______ _______ _______ _____ _____    ______ ____
ROOT
ATOM      1  O   UNL     1      36.617   1.390  17.545  0.00  0.00    +0.000 OA
ENDROOT
BRANCH   1   2
ATOM      2  C   UNL     1      36.109   0.294  18.180  0.00  0.00    +0.000 C 
ATOM      3  O   UNL     1      35.977   0.393  19.452  0.00  0.00    +0.000 OA
BRANCH   2   4
ATOM      4  C   UNL     1      35.701  -0.955  17.594  0.00  0.00    +0.000 A 
ATOM      5  C   UNL     1      34.361  -1.188  17.258  0.00  0.00    +0.000 A 
ATOM      6  C   UNL     1      33.958  -2.338  16.628  0.00  0.00    +0.000 A 
ATOM      7  C   UNL     1      34.893  -3.300  16.314  0.00  0.00    +0.000 A 
ATOM      8  C   UNL     1      36.213  -3.110  16.628  0.00  0.00    +0.000 A 
ATOM      9  C   UNL     1      36.599  -1.920  17.276  0.00  0.00    +0.000 A 
BRANCH   9  10
ATOM     10  C   UNL     1      38.033  -1.848  17.653  0.00  0.00    +0.000 C 
BRANCH  10  11
ATOM     11  C   UNL     1      38.876  -1.899  16.441  0.00  0.00    +0.000 A 
ATOM     12  C   UNL     1      38.839  -0.841  15.515  0.00  0.00    +0.000 A 
ATOM     13  C   UNL     1      39.616  -0.851  14.374  0.00  0.00    +0.000 A 
ATOM     14  C   UNL     1      40.458  -1.923  14.120  0.00  0.00    +0.000 A 
ATOM     15  C   UNL     1      40.517  -2.979  15.011  0.00  0.00    +0.000 A 
ATOM     16  C   UNL     1      39.724  -2.915  16.127  0.00  0.00    +0.000 A 
ENDBRANCH  10  11
ENDBRANCH   9  10
ENDBRANCH   2   4
ENDBRANCH   1   2
BRANCH   1  17
ATOM     17  C   UNL     1      35.906   2.209  16.650  0.00  0.00    +0.000 C 
BRANCH  17  19
ATOM     18  N   UNL     1      38.135   3.304  16.303  0.00  0.00    +0.000 NA
ATOM     19  C   UNL     1      36.758   3.243  16.033  0.00  0.00    +0.000 C 
ATOM     20  O   UNL     1      36.245   4.076  15.258  0.00  0.00    +0.000 OA
BRANCH  18  27
ATOM     21  C   UNL     1      39.400   2.728  13.830  0.00  0.00    +0.000 C 
ATOM     22  C   UNL     1      39.640   3.992  14.572  0.00  0.00    +0.000 A 
ATOM     23  C   UNL     1      40.524   4.899  14.001  0.00  0.00    +0.000 A 
ATOM     24  C   UNL     1      40.774   6.094  14.665  0.00  0.00    +0.000 A 
ATOM     25  C   UNL     1      40.165   6.362  15.846  0.00  0.00    +0.000 A 
ATOM     26  C   UNL     1      39.289   5.449  16.401  0.00  0.00    +0.000 A 
ATOM     27  C   UNL     1      39.024   4.259  15.762  0.00  0.00    +0.000 A 
BRANCH  26  28
ATOM     28  C   UNL     1      38.627   5.739  17.682  0.00  0.00    +0.000 C 
ATOM     29  C   UNL     1      38.031   7.131  17.714  0.00  0.00    +0.000 C 
ATOM     30  C   UNL     1      39.507   5.475  18.884  0.00  0.00    +0.000 C 
ENDBRANCH  26  28
ENDBRANCH  18  27
ENDBRANCH  17  19
ENDBRANCH   1  17
TORSDOF 8
ENDMDL
MODEL 8
REMARK VINA RESULT:      -7.7      2.331      8.350
REMARK  Name = 
REMARK  8 active torsions:
REMARK  status: ('A' for Active; 'I' for Inactive)
REMARK    1  A    between atoms: C_6  and  C_7
REMARK    2  A    between atoms: C_10  and  N_11
REMARK    3  A    between atoms: C_12  and  C_14
REMARK    4  A    between atoms: C_14  and  O_15
REMARK    5  A    between atoms: O_15  and  C_16
REMARK    6  A    between atoms: C_16  and  C_18
REMARK    7  A    between atoms: C_23  and  C_24
REMARK    8  A    between atoms: C_24  and  C_25
REMARK                            x       y       z     vdW  Elec       q    Type
REMARK                         _______ _______ _______ _____ _____    ______ ____
ROOT
ATOM      1  O   UNL     1      36.687   0.539  17.414  0.00  0.00    +0.000 OA
ENDROOT
BRANCH   1   2
ATOM      2  C   UNL     1      36.385  -0.718  17.851  0.00  0.00    +0.000 C 
ATOM      3  O   UNL     1      36.318  -0.869  19.123  0.00  0.00    +0.000 OA
BRANCH   2   4
ATOM      4  C   UNL     1      36.130  -1.891  17.058  0.00  0.00    +0.000 A 
ATOM      5  C   UNL     1      34.833  -2.196  16.622  0.00  0.00    +0.000 A 
ATOM      6  C   UNL     1      34.574  -3.264  15.801  0.00  0.00    +0.000 A 
ATOM      7  C   UNL     1      35.614  -4.066  15.387  0.00  0.00    +0.000 A 
ATOM      8  C   UNL     1      36.895  -3.802  15.793  0.00  0.00    +0.000 A 
ATOM      9  C   UNL     1      37.133  -2.700  16.638  0.00  0.00    +0.000 A 
BRANCH   9  10
ATOM     10  C   UNL     1      38.538  -2.550  17.093  0.00  0.00    +0.000 C 
BRANCH  10  11
ATOM     11  C   UNL     1      39.392  -2.124  15.964  0.00  0.00    +0.000 A 
ATOM     12  C   UNL     1      39.196  -0.864  15.372  0.00  0.00    +0.000 A 
ATOM     13  C   UNL     1      39.976  -0.430  14.320  0.00  0.00    +0.000 A 
ATOM     14  C   UNL     1      40.981  -1.245  13.822  0.00  0.00    +0.000 A 
ATOM     15  C   UNL     1      41.198  -2.490  14.383  0.00  0.00    +0.000 A 
ATOM     16  C   UNL     1      40.394  -2.869  15.425  0.00  0.00    +0.000 A 
ENDBRANCH  10  11
ENDBRANCH   9  10
ENDBRANCH   2   4
ENDBRANCH   1   2
BRANCH   1  17
ATOM     17  C   UNL     1      35.841   1.352  16.641  0.00  0.00    +0.000 C 
BRANCH  17  19
ATOM     18  N   UNL     1      37.902   2.702  16.175  0.00  0.00    +0.000 NA
ATOM     19  C   UNL     1      36.502   2.594  16.198  0.00  0.00    +0.000 C 
ATOM     20  O   UNL     1      35.803   3.565  15.839  0.00  0.00    +0.000 OA
BRANCH  18  27
ATOM     21  C   UNL     1      38.588   4.632  18.138  0.00  0.00    +0.000 C 
ATOM     22  C   UNL     1      38.954   4.787  16.708  0.00  0.00    +0.000 A 
ATOM     23  C   UNL     1      39.655   5.934  16.357  0.00  0.00    +0.000 A 
ATOM     24  C   UNL     1      40.015   6.115  15.028  0.00  0.00    +0.000 A 
ATOM     25  C   UNL     1      39.685   5.188  14.096  0.00  0.00    +0.000 A 
ATOM     26  C   UNL     1      38.986   4.053  14.460  0.00  0.00    +0.000 A 
ATOM     27  C   UNL     1      38.619   3.851  15.771  0.00  0.00    +0.000 A 
BRANCH  26  28
ATOM     28  C   UNL     1      38.627   3.046  13.449  0.00  0.00    +0.000 C 
ATOM     29  C   UNL     1      39.792   2.706  12.543  0.00  0.00    +0.000 C 
ATOM     30  C   UNL     1      37.385   3.404  12.662  0.00  0.00    +0.000 C 
ENDBRANCH  26  28
ENDBRANCH  18  27
ENDBRANCH  17  19
ENDBRANCH   1  17
TORSDOF 8
ENDMDL
MODEL 9
REMARK VINA RESULT:      -7.7      2.046      3.695
REMARK  Name = 
REMARK  8 active torsions:
REMARK  status: ('A' for Active; 'I' for Inactive)
REMARK    1  A    between atoms: C_6  and  C_7
REMARK    2  A    between atoms: C_10  and  N_11
REMARK    3  A    between atoms: C_12  and  C_14
REMARK    4  A    between atoms: C_14  and  O_15
REMARK    5  A    between atoms: O_15  and  C_16
REMARK    6  A    between atoms: C_16  and  C_18
REMARK    7  A    between atoms: C_23  and  C_24
REMARK    8  A    between atoms: C_24  and  C_25
REMARK                            x       y       z     vdW  Elec       q    Type
REMARK                         _______ _______ _______ _____ _____    ______ ____
ROOT
ATOM      1  O   UNL     1      35.509   2.258  14.380  0.00  0.00    +0.000 OA
ENDROOT
BRANCH   1   2
ATOM      2  C   UNL     1      36.102   3.482  14.271  0.00  0.00    +0.000 C 
ATOM      3  O   UNL     1      35.327   4.495  14.401  0.00  0.00    +0.000 OA
BRANCH   2   4
ATOM      4  C   UNL     1      37.491   3.772  14.031  0.00  0.00    +0.000 A 
ATOM      5  C   UNL     1      37.987   3.883  12.725  0.00  0.00    +0.000 A 
ATOM      6  C   UNL     1      39.289   4.235  12.469  0.00  0.00    +0.000 A 
ATOM      7  C   UNL     1      40.141   4.486  13.521  0.00  0.00    +0.000 A 
ATOM      8  C   UNL     1      39.694   4.385  14.812  0.00  0.00    +0.000 A 
ATOM      9  C   UNL     1      38.353   4.022  15.047  0.00  0.00    +0.000 A 
BRANCH   9  10
ATOM     10  C   UNL     1      37.990   3.852  16.477  0.00  0.00    +0.000 C 
BRANCH  10  11
ATOM     11  C   UNL     1      38.337   5.074  17.232  0.00  0.00    +0.000 A 
ATOM     12  C   UNL     1      39.003   4.972  18.467  0.00  0.00    +0.000 A 
ATOM     13  C   UNL     1      39.346   6.090  19.199  0.00  0.00    +0.000 A 
ATOM     14  C   UNL     1      39.034   7.353  18.719  0.00  0.00    +0.000 A 
ATOM     15  C   UNL     1      38.380   7.487  17.508  0.00  0.00    +0.000 A 
ATOM     16  C   UNL     1      38.063   6.343  16.825  0.00  0.00    +0.000 A 
ENDBRANCH  10  11
ENDBRANCH   9  10
ENDBRANCH   2   4
ENDBRANCH   1   2
BRANCH   1  17
ATOM     17  C   UNL     1      35.693   1.362  15.447  0.00  0.00    +0.000 C 
BRANCH  17  19
ATOM     18  N   UNL     1      37.880   0.186  15.803  0.00  0.00    +0.000 NA
ATOM     19  C   UNL     1      36.654   0.290  15.124  0.00  0.00    +0.000 C 
ATOM     20  O   UNL     1      36.371  -0.537  14.233  0.00  0.00    +0.000 OA
BRANCH  18  27
ATOM     21  C   UNL     1      39.978   0.777  13.988  0.00  0.00    +0.000 C 
ATOM     22  C   UNL     1      39.874  -0.530  14.686  0.00  0.00    +0.000 A 
ATOM     23  C   UNL     1      40.858  -1.471  14.412  0.00  0.00    +0.000 A 
ATOM     24  C   UNL     1      40.794  -2.706  15.045  0.00  0.00    +0.000 A 
ATOM     25  C   UNL     1      39.788  -2.980  15.912  0.00  0.00    +0.000 A 
ATOM     26  C   UNL     1      38.816  -2.033  16.174  0.00  0.00    +0.000 A 
ATOM     27  C   UNL     1      38.858  -0.802  15.559  0.00  0.00    +0.000 A 
BRANCH  26  28
ATOM     28  C   UNL     1      37.725  -2.329  17.114  0.00  0.00    +0.000 C 
ATOM     29  C   UNL     1      38.166  -2.205  18.558  0.00  0.00    +0.000 C 
ATOM     30  C   UNL     1      37.044  -3.654  16.844  0.00  0.00    +0.000 C 
ENDBRANCH  26  28
ENDBRANCH  18  27
ENDBRANCH  17  19
ENDBRANCH   1  17
TORSDOF 8
ENDMDL
MODEL 10
REMARK VINA RESULT:      -7.6      2.388      3.815
REMARK  Name = 
REMARK  8 active torsions:
REMARK  status: ('A' for Active; 'I' for Inactive)
REMARK    1  A    between atoms: C_6  and  C_7
REMARK    2  A    between atoms: C_10  and  N_11
REMARK    3  A    between atoms: C_12  and  C_14
REMARK    4  A    between atoms: C_14  and  O_15
REMARK    5  A    between atoms: O_15  and  C_16
REMARK    6  A    between atoms: C_16  and  C_18
REMARK    7  A    between atoms: C_23  and  C_24
REMARK    8  A    between atoms: C_24  and  C_25
REMARK                            x       y       z     vdW  Elec       q    Type
REMARK                         _______ _______ _______ _____ _____    ______ ____
ROOT
ATOM      1  O   UNL     1      36.276   2.346  14.333  0.00  0.00    +0.000 OA
ENDROOT
BRANCH   1   2
ATOM      2  C   UNL     1      35.942   3.521  14.941  0.00  0.00    +0.000 C 
ATOM      3  O   UNL     1      35.320   3.417  16.058  0.00  0.00    +0.000 OA
BRANCH   2   4
ATOM      4  C   UNL     1      36.206   4.859  14.483  0.00  0.00    +0.000 A 
ATOM      5  C   UNL     1      35.167   5.679  14.021  0.00  0.00    +0.000 A 
ATOM      6  C   UNL     1      35.380   6.983  13.652  0.00  0.00    +0.000 A 
ATOM      7  C   UNL     1      36.650   7.510  13.733  0.00  0.00    +0.000 A 
ATOM      8  C   UNL     1      37.692   6.740  14.177  0.00  0.00    +0.000 A 
ATOM      9  C   UNL     1      37.446   5.403  14.550  0.00  0.00    +0.000 A 
BRANCH   9  10
ATOM     10  C   UNL     1      38.652   4.627  14.932  0.00  0.00    +0.000 C 
BRANCH  10  11
ATOM     11  C   UNL     1      39.157   5.091  16.241  0.00  0.00    +0.000 A 
ATOM     12  C   UNL     1      40.351   5.831  16.312  0.00  0.00    +0.000 A 
ATOM     13  C   UNL     1      40.850   6.285  17.515  0.00  0.00    +0.000 A 
ATOM     14  C   UNL     1      40.170   6.012  18.693  0.00  0.00    +0.000 A 
ATOM     15  C   UNL     1      38.993   5.287  18.656  0.00  0.00    +0.000 A 
ATOM     16  C   UNL     1      38.545   4.862  17.434  0.00  0.00    +0.000 A 
ENDBRANCH  10  11
ENDBRANCH   9  10
ENDBRANCH   2   4
ENDBRANCH   1   2
BRANCH   1  17
ATOM     17  C   UNL     1      35.786   1.080  14.694  0.00  0.00    +0.000 C 
BRANCH  17  19
ATOM     18  N   UNL     1      36.238  -0.769  16.328  0.00  0.00    +0.000 NA
ATOM     19  C   UNL     1      36.668   0.385  15.651  0.00  0.00    +0.000 C 
ATOM     20  O   UNL     1      37.815   0.831  15.862  0.00  0.00    +0.000 OA
BRANCH  18  27
ATOM     21  C   UNL     1      35.837  -0.277  19.093  0.00  0.00    +0.000 C 
ATOM     22  C   UNL     1      36.827  -1.266  18.596  0.00  0.00    +0.000 A 
ATOM     23  C   UNL     1      37.566  -1.953  19.550  0.00  0.00    +0.000 A 
ATOM     24  C   UNL     1      38.502  -2.887  19.124  0.00  0.00    +0.000 A 
ATOM     25  C   UNL     1      38.687  -3.117  17.801  0.00  0.00    +0.000 A 
ATOM     26  C   UNL     1      37.945  -2.424  16.863  0.00  0.00    +0.000 A 
ATOM     27  C   UNL     1      37.011  -1.495  17.261  0.00  0.00    +0.000 A 
BRANCH  26  28
ATOM     28  C   UNL     1      38.145  -2.673  15.427  0.00  0.00    +0.000 C 
ATOM     29  C   UNL     1      37.369  -3.881  14.944  0.00  0.00    +0.000 C 
ATOM     30  C   UNL     1      39.603  -2.741  15.028  0.00  0.00    +0.000 C 
ENDBRANCH  26  28
ENDBRANCH  18  27
ENDBRANCH  17  19
ENDBRANCH   1  17
TORSDOF 8
ENDMDL
