MODEL 1
REMARK VINA RESULT:      -7.3      0.000      0.000
REMARK  Name = 
REMARK  9 active torsions:
REMARK  status: ('A' for Active; 'I' for Inactive)
REMARK    1  A    between atoms: C_2  and  O_3
REMARK    2  A    between atoms: O_3  and  C_4
REMARK    3  A    between atoms: C_4  and  C_6
REMARK    4  A    between atoms: C_7  and  C_8
REMARK    5  A    between atoms: C_15  and  N_16
REMARK    6  A    between atoms: N_16  and  C_17
REMARK    7  A    between atoms: C_17  and  C_18
REMARK    8  A    between atoms: C_26  and  O_27
REMARK    9  A    between atoms: C_29  and  O_30
REMARK                            x       y       z     vdW  Elec       q    Type
REMARK                         _______ _______ _______ _____ _____    ______ ____
ROOT
ATOM      1  C   UNL     1      38.693  -0.959  15.323  0.00  0.00    +0.000 A 
ATOM      2  C   UNL     1      37.584  -0.199  15.605  0.00  0.00    +0.000 A 
ATOM      3  C   UNL     1      37.571   1.153  15.234  0.00  0.00    +0.000 A 
ATOM      4  C   UNL     1      38.629   1.722  14.602  0.00  0.00    +0.000 A 
ATOM      5  C   UNL     1      39.737   0.964  14.318  0.00  0.00    +0.000 A 
ATOM      6  C   UNL     1      40.811   1.587  13.662  0.00  0.00    +0.000 A 
ATOM      7  C   UNL     1      41.909   0.806  13.388  0.00  0.00    +0.000 A 
ATOM      8  C   UNL     1      41.982  -0.528  13.728  0.00  0.00    +0.000 A 
ATOM      9  C   UNL     1      40.911  -1.113  14.372  0.00  0.00    +0.000 A 
ATOM     10  C   UNL     1      39.776  -0.355  14.668  0.00  0.00    +0.000 A 
ENDROOT
BRANCH   2  11
ATOM     11  C   UNL     1      36.402  -0.739  16.233  0.00  0.00    +0.000 A 
ATOM     12  C   UNL     1      35.705  -1.796  15.726  0.00  0.00    +0.000 A 
ATOM     13  C   UNL     1      34.583  -2.293  16.341  0.00  0.00    +0.000 A 
ATOM     14  C   UNL     1      34.116  -1.738  17.505  0.00  0.00    +0.000 A 
ATOM     15  C   UNL     1      34.789  -0.669  18.052  0.00  0.00    +0.000 A 
ATOM     16  C   UNL     1      35.912  -0.189  17.414  0.00  0.00    +0.000 A 
ENDBRANCH   2  11
BRANCH   1  17
ATOM     17  C   UNL     1      38.822  -2.356  15.707  0.00  0.00    +0.000 C 
ATOM     18  O   UNL     1      38.464  -3.232  14.880  0.00  0.00    +0.000 OA
BRANCH  17  19
ATOM     19  O   UNL     1      39.310  -2.811  16.903  0.00  0.00    +0.000 OA
BRANCH  19  21
ATOM     20  C   UNL     1      38.177  -2.495  19.009  0.00  0.00    +0.000 C 
ATOM     21  C   UNL     1      38.487  -3.451  17.858  0.00  0.00    +0.000 C 
ENDBRANCH  19  21
ENDBRANCH  17  19
ENDBRANCH   1  17
BRANCH   7  22
ATOM     22  O   UNL     1      43.034   1.346  12.733  0.00  0.00    +0.000 OA
ATOM     23  C   UNL     1      43.013   1.512  11.322  0.00  0.00    +0.000 C 
ENDBRANCH   7  22
BRANCH   8  24
ATOM     24  O   UNL     1      43.133  -1.260  13.417  0.00  0.00    +0.000 OA
ATOM     25  C   UNL     1      43.091  -2.629  13.092  0.00  0.00    +0.000 C 
ENDBRANCH   8  24
BRANCH   4  26
ATOM     26  N   UNL     1      38.589   3.096  14.238  0.00  0.00    +0.000 NA
BRANCH  26  27
ATOM     27  C   UNL     1      37.748   4.026  14.920  0.00  0.00    +0.000 C 
BRANCH  27  28
ATOM     28  C   UNL     1      38.535   4.639  16.024  0.00  0.00    +0.000 A 
ATOM     29  C   UNL     1      38.207   4.489  17.355  0.00  0.00    +0.000 A 
ATOM     30  C   UNL     1      38.927   5.049  18.386  0.00  0.00    +0.000 A 
ATOM     31  C   UNL     1      40.033   5.800  18.080  0.00  0.00    +0.000 A 
ATOM     32  C   UNL     1      40.399   5.978  16.770  0.00  0.00    +0.000 A 
ATOM     33  C   UNL     1      39.657   5.403  15.764  0.00  0.00    +0.000 A 
ENDBRANCH  27  28
ENDBRANCH  26  27
ENDBRANCH   4  26
TORSDOF 9
ENDMDL
MODEL 2
REMARK VINA RESULT:      -7.2      3.159      5.716
REMARK  Name = 
REMARK  9 active torsions:
REMARK  status: ('A' for Active; 'I' for Inactive)
REMARK    1  A    between atoms: C_2  and  O_3
REMARK    2  A    between atoms: O_3  and  C_4
REMARK    3  A    between atoms: C_4  and  C_6
REMARK    4  A    between atoms: C_7  and  C_8
REMARK    5  A    between atoms: C_15  and  N_16
REMARK    6  A    between atoms: N_16  and  C_17
REMARK    7  A    between atoms: C_17  and  C_18
REMARK    8  A    between atoms: C_26  and  O_27
REMARK    9  A    between atoms: C_29  and  O_30
REMARK                            x       y       z     vdW  Elec       q    Type
REMARK                         _______ _______ _______ _____ _____    ______ ____
ROOT
ATOM      1  C   UNL     1      36.241  -1.801  15.825  0.00  0.00    +0.000 A 
ATOM      2  C   UNL     1      36.807  -2.924  15.271  0.00  0.00    +0.000 A 
ATOM      3  C   UNL     1      37.551  -2.800  14.090  0.00  0.00    +0.000 A 
ATOM      4  C   UNL     1      37.724  -1.596  13.487  0.00  0.00    +0.000 A 
ATOM      5  C   UNL     1      37.161  -0.473  14.039  0.00  0.00    +0.000 A 
ATOM      6  C   UNL     1      37.363   0.753  13.388  0.00  0.00    +0.000 A 
ATOM      7  C   UNL     1      36.789   1.864  13.962  0.00  0.00    +0.000 A 
ATOM      8  C   UNL     1      36.045   1.807  15.121  0.00  0.00    +0.000 A 
ATOM      9  C   UNL     1      35.864   0.586  15.739  0.00  0.00    +0.000 A 
ATOM     10  C   UNL     1      36.431  -0.566  15.189  0.00  0.00    +0.000 A 
ENDROOT
BRANCH   2  11
ATOM     11  C   UNL     1      36.708  -4.231  15.875  0.00  0.00    +0.000 A 
ATOM     12  C   UNL     1      35.641  -5.059  15.690  0.00  0.00    +0.000 A 
ATOM     13  C   UNL     1      35.569  -6.299  16.274  0.00  0.00    +0.000 A 
ATOM     14  C   UNL     1      36.582  -6.757  17.078  0.00  0.00    +0.000 A 
ATOM     15  C   UNL     1      37.679  -5.953  17.292  0.00  0.00    +0.000 A 
ATOM     16  C   UNL     1      37.726  -4.713  16.693  0.00  0.00    +0.000 A 
ENDBRANCH   2  11
BRANCH   1  17
ATOM     17  C   UNL     1      35.413  -1.831  17.022  0.00  0.00    +0.000 C 
ATOM     18  O   UNL     1      34.190  -2.083  16.888  0.00  0.00    +0.000 OA
BRANCH  17  19
ATOM     19  O   UNL     1      35.854  -1.611  18.300  0.00  0.00    +0.000 OA
BRANCH  19  21
ATOM     20  C   UNL     1      37.704  -2.433  19.610  0.00  0.00    +0.000 C 
ATOM     21  C   UNL     1      37.219  -1.395  18.599  0.00  0.00    +0.000 C 
ENDBRANCH  19  21
ENDBRANCH  17  19
ENDBRANCH   1  17
BRANCH   7  22
ATOM     22  O   UNL     1      36.937   3.138  13.377  0.00  0.00    +0.000 OA
ATOM     23  C   UNL     1      38.189   3.807  13.459  0.00  0.00    +0.000 C 
ENDBRANCH   7  22
BRANCH   8  24
ATOM     24  O   UNL     1      35.491   2.979  15.647  0.00  0.00    +0.000 OA
ATOM     25  C   UNL     1      34.151   3.346  15.422  0.00  0.00    +0.000 C 
ENDBRANCH   8  24
BRANCH   4  26
ATOM     26  N   UNL     1      38.484  -1.500  12.289  0.00  0.00    +0.000 NA
BRANCH  26  27
ATOM     27  C   UNL     1      39.687  -2.246  12.104  0.00  0.00    +0.000 C 
BRANCH  27  28
ATOM     28  C   UNL     1      40.776  -1.558  12.849  0.00  0.00    +0.000 A 
ATOM     29  C   UNL     1      41.053  -0.214  12.707  0.00  0.00    +0.000 A 
ATOM     30  C   UNL     1      42.056   0.435  13.390  0.00  0.00    +0.000 A 
ATOM     31  C   UNL     1      42.828  -0.289  14.261  0.00  0.00    +0.000 A 
ATOM     32  C   UNL     1      42.592  -1.628  14.437  0.00  0.00    +0.000 A 
ATOM     33  C   UNL     1      41.580  -2.245  13.739  0.00  0.00    +0.000 A 
ENDBRANCH  27  28
ENDBRANCH  26  27
ENDBRANCH   4  26
TORSDOF 9
ENDMDL
MODEL 3
REMARK VINA RESULT:      -7.0      4.803      9.169
REMARK  Name = 
REMARK  9 active torsions:
REMARK  status: ('A' for Active; 'I' for Inactive)
REMARK    1  A    between atoms: C_2  and  O_3
REMARK    2  A    between atoms: O_3  and  C_4
REMARK    3  A    between atoms: C_4  and  C_6
REMARK    4  A    between atoms: C_7  and  C_8
REMARK    5  A    between atoms: C_15  and  N_16
REMARK    6  A    between atoms: N_16  and  C_17
REMARK    7  A    between atoms: C_17  and  C_18
REMARK    8  A    between atoms: C_26  and  O_27
REMARK    9  A    between atoms: C_29  and  O_30
REMARK                            x       y       z     vdW  Elec       q    Type
REMARK                         _______ _______ _______ _____ _____    ______ ____
ROOT
ATOM      1  C   UNL     1      38.059   7.331  16.344  0.00  0.00    +0.000 A 
ATOM      2  C   UNL     1      38.785   6.233  16.739  0.00  0.00    +0.000 A 
ATOM      3  C   UNL     1      38.548   4.999  16.117  0.00  0.00    +0.000 A 
ATOM      4  C   UNL     1      37.619   4.870  15.135  0.00  0.00    +0.000 A 
ATOM      5  C   UNL     1      36.894   5.966  14.739  0.00  0.00    +0.000 A 
ATOM      6  C   UNL     1      35.944   5.794  13.720  0.00  0.00    +0.000 A 
ATOM      7  C   UNL     1      35.231   6.907  13.341  0.00  0.00    +0.000 A 
ATOM      8  C   UNL     1      35.418   8.147  13.914  0.00  0.00    +0.000 A 
ATOM      9  C   UNL     1      36.359   8.285  14.914  0.00  0.00    +0.000 A 
ATOM     10  C   UNL     1      37.105   7.179  15.328  0.00  0.00    +0.000 A 
ENDROOT
BRANCH   2  11
ATOM     11  C   UNL     1      39.821   6.297  17.742  0.00  0.00    +0.000 A 
ATOM     12  C   UNL     1      39.573   6.190  19.078  0.00  0.00    +0.000 A 
ATOM     13  C   UNL     1      40.575   6.253  20.014  0.00  0.00    +0.000 A 
ATOM     14  C   UNL     1      41.881   6.429  19.634  0.00  0.00    +0.000 A 
ATOM     15  C   UNL     1      42.178   6.542  18.294  0.00  0.00    +0.000 A 
ATOM     16  C   UNL     1      41.153   6.475  17.376  0.00  0.00    +0.000 A 
ENDBRANCH   2  11
BRANCH   1  17
ATOM     17  C   UNL     1      38.198   8.643  16.958  0.00  0.00    +0.000 C 
ATOM     18  O   UNL     1      39.108   9.400  16.536  0.00  0.00    +0.000 OA
BRANCH  17  19
ATOM     19  O   UNL     1      37.414   9.136  17.967  0.00  0.00    +0.000 OA
BRANCH  19  21
ATOM     20  C   UNL     1      37.652   8.942  20.359  0.00  0.00    +0.000 C 
ATOM     21  C   UNL     1      37.961   9.765  19.109  0.00  0.00    +0.000 C 
ENDBRANCH  19  21
ENDBRANCH  17  19
ENDBRANCH   1  17
BRANCH   7  22
ATOM     22  O   UNL     1      34.255   6.828  12.326  0.00  0.00    +0.000 OA
ATOM     23  C   UNL     1      34.655   6.867  10.963  0.00  0.00    +0.000 C 
ENDBRANCH   7  22
BRANCH   8  24
ATOM     24  O   UNL     1      34.655   9.234  13.477  0.00  0.00    +0.000 OA
ATOM     25  C   UNL     1      34.044  10.135  14.370  0.00  0.00    +0.000 C 
ENDBRANCH   8  24
BRANCH   4  26
ATOM     26  N   UNL     1      37.399   3.607  14.522  0.00  0.00    +0.000 NA
BRANCH  26  27
ATOM     27  C   UNL     1      37.986   2.412  15.039  0.00  0.00    +0.000 C 
BRANCH  27  28
ATOM     28  C   UNL     1      36.902   1.587  15.638  0.00  0.00    +0.000 A 
ATOM     29  C   UNL     1      35.858   2.126  16.360  0.00  0.00    +0.000 A 
ATOM     30  C   UNL     1      34.849   1.375  16.919  0.00  0.00    +0.000 A 
ATOM     31  C   UNL     1      34.877   0.014  16.754  0.00  0.00    +0.000 A 
ATOM     32  C   UNL     1      35.896  -0.569  16.044  0.00  0.00    +0.000 A 
ATOM     33  C   UNL     1      36.888   0.212  15.498  0.00  0.00    +0.000 A 
ENDBRANCH  27  28
ENDBRANCH  26  27
ENDBRANCH   4  26
TORSDOF 9
ENDMDL
MODEL 4
REMARK VINA RESULT:      -6.8      2.046      5.785
REMARK  Name = 
REMARK  9 active torsions:
REMARK  status: ('A' for Active; 'I' for Inactive)
REMARK    1  A    between atoms: C_2  and  O_3
REMARK    2  A    between atoms: O_3  and  C_4
REMARK    3  A    between atoms: C_4  and  C_6
REMARK    4  A    between atoms: C_7  and  C_8
REMARK    5  A    between atoms: C_15  and  N_16
REMARK    6  A    between atoms: N_16  and  C_17
REMARK    7  A    between atoms: C_17  and  C_18
REMARK    8  A    between atoms: C_26  and  O_27
REMARK    9  A    between atoms: C_29  and  O_30
REMARK                            x       y       z     vdW  Elec       q    Type
REMARK                         _______ _______ _______ _____ _____    ______ ____
ROOT
ATOM      1  C   UNL     1      39.432  -0.207  14.680  0.00  0.00    +0.000 A 
ATOM      2  C   UNL     1      40.425   0.619  14.213  0.00  0.00    +0.000 A 
ATOM      3  C   UNL     1      40.187   1.999  14.141  0.00  0.00    +0.000 A 
ATOM      4  C   UNL     1      38.998   2.531  14.523  0.00  0.00    +0.000 A 
ATOM      5  C   UNL     1      38.005   1.707  14.991  0.00  0.00    +0.000 A 
ATOM      6  C   UNL     1      36.790   2.293  15.379  0.00  0.00    +0.000 A 
ATOM      7  C   UNL     1      35.812   1.447  15.845  0.00  0.00    +0.000 A 
ATOM      8  C   UNL     1      35.985   0.083  15.939  0.00  0.00    +0.000 A 
ATOM      9  C   UNL     1      37.191  -0.465  15.550  0.00  0.00    +0.000 A 
ATOM     10  C   UNL     1      38.211   0.360  15.072  0.00  0.00    +0.000 A 
ENDROOT
BRANCH   2  11
ATOM     11  C   UNL     1      41.731   0.138  13.830  0.00  0.00    +0.000 A 
ATOM     12  C   UNL     1      42.611  -0.414  14.713  0.00  0.00    +0.000 A 
ATOM     13  C   UNL     1      43.848  -0.865  14.325  0.00  0.00    +0.000 A 
ATOM     14  C   UNL     1      44.249  -0.777  13.017  0.00  0.00    +0.000 A 
ATOM     15  C   UNL     1      43.392  -0.227  12.090  0.00  0.00    +0.000 A 
ATOM     16  C   UNL     1      42.156   0.218  12.506  0.00  0.00    +0.000 A 
ENDBRANCH   2  11
BRANCH   1  17
ATOM     17  C   UNL     1      39.565  -1.654  14.750  0.00  0.00    +0.000 C 
ATOM     18  O   UNL     1      39.805  -2.173  15.869  0.00  0.00    +0.000 OA
BRANCH  17  19
ATOM     19  O   UNL     1      39.446  -2.516  13.692  0.00  0.00    +0.000 OA
BRANCH  19  21
ATOM     20  C   UNL     1      39.936  -2.419  11.333  0.00  0.00    +0.000 C 
ATOM     21  C   UNL     1      38.931  -2.107  12.441  0.00  0.00    +0.000 C 
ENDBRANCH  19  21
ENDBRANCH  17  19
ENDBRANCH   1  17
BRANCH   7  22
ATOM     22  O   UNL     1      34.559   1.947  16.256  0.00  0.00    +0.000 OA
ATOM     23  C   UNL     1      34.060   3.148  15.682  0.00  0.00    +0.000 C 
ENDBRANCH   7  22
BRANCH   8  24
ATOM     24  O   UNL     1      34.944  -0.716  16.423  0.00  0.00    +0.000 OA
ATOM     25  C   UNL     1      35.112  -2.086  16.703  0.00  0.00    +0.000 C 
ENDBRANCH   8  24
BRANCH   4  26
ATOM     26  N   UNL     1      38.782   3.934  14.439  0.00  0.00    +0.000 NA
BRANCH  26  27
ATOM     27  C   UNL     1      39.839   4.868  14.665  0.00  0.00    +0.000 C 
BRANCH  27  28
ATOM     28  C   UNL     1      39.828   5.236  16.106  0.00  0.00    +0.000 A 
ATOM     29  C   UNL     1      40.789   6.039  16.685  0.00  0.00    +0.000 A 
ATOM     30  C   UNL     1      40.791   6.388  18.017  0.00  0.00    +0.000 A 
ATOM     31  C   UNL     1      39.786   5.914  18.819  0.00  0.00    +0.000 A 
ATOM     32  C   UNL     1      38.807   5.112  18.290  0.00  0.00    +0.000 A 
ATOM     33  C   UNL     1      38.835   4.783  16.954  0.00  0.00    +0.000 A 
ENDBRANCH  27  28
ENDBRANCH  26  27
ENDBRANCH   4  26
TORSDOF 9
ENDMDL
MODEL 5
REMARK VINA RESULT:      -6.8      2.560      5.190
REMARK  Name = 
REMARK  9 active torsions:
REMARK  status: ('A' for Active; 'I' for Inactive)
REMARK    1  A    between atoms: C_2  and  O_3
REMARK    2  A    between atoms: O_3  and  C_4
REMARK    3  A    between atoms: C_4  and  C_6
REMARK    4  A    between atoms: C_7  and  C_8
REMARK    5  A    between atoms: C_15  and  N_16
REMARK    6  A    between atoms: N_16  and  C_17
REMARK    7  A    between atoms: C_17  and  C_18
REMARK    8  A    between atoms: C_26  and  O_27
REMARK    9  A    between atoms: C_29  and  O_30
REMARK                            x       y       z     vdW  Elec       q    Type
REMARK                         _______ _______ _______ _____ _____    ______ ____
ROOT
ATOM      1  C   UNL     1      37.009  -0.442  15.316  0.00  0.00    +0.000 A 
ATOM      2  C   UNL     1      37.186  -1.627  14.644  0.00  0.00    +0.000 A 
ATOM      3  C   UNL     1      37.865  -1.621  13.417  0.00  0.00    +0.000 A 
ATOM      4  C   UNL     1      38.350  -0.471  12.885  0.00  0.00    +0.000 A 
ATOM      5  C   UNL     1      38.176   0.714  13.555  0.00  0.00    +0.000 A 
ATOM      6  C   UNL     1      38.693   1.882  12.974  0.00  0.00    +0.000 A 
ATOM      7  C   UNL     1      38.506   3.056  13.665  0.00  0.00    +0.000 A 
ATOM      8  C   UNL     1      37.847   3.115  14.875  0.00  0.00    +0.000 A 
ATOM      9  C   UNL     1      37.349   1.950  15.422  0.00  0.00    +0.000 A 
ATOM     10  C   UNL     1      37.518   0.736  14.751  0.00  0.00    +0.000 A 
ENDROOT
BRANCH   2  11
ATOM     11  C   UNL     1      36.741  -2.898  15.164  0.00  0.00    +0.000 A 
ATOM     12  C   UNL     1      37.496  -3.668  15.997  0.00  0.00    +0.000 A 
ATOM     13  C   UNL     1      37.051  -4.874  16.480  0.00  0.00    +0.000 A 
ATOM     14  C   UNL     1      35.812  -5.354  16.137  0.00  0.00    +0.000 A 
ATOM     15  C   UNL     1      35.016  -4.608  15.298  0.00  0.00    +0.000 A 
ATOM     16  C   UNL     1      35.487  -3.402  14.828  0.00  0.00    +0.000 A 
ENDBRANCH   2  11
BRANCH   1  17
ATOM     17  C   UNL     1      36.280  -0.337  16.570  0.00  0.00    +0.000 C 
ATOM     18  O   UNL     1      35.025  -0.301  16.524  0.00  0.00    +0.000 OA
BRANCH  17  19
ATOM     19  O   UNL     1      36.845  -0.277  17.817  0.00  0.00    +0.000 OA
BRANCH  19  21
ATOM     20  C   UNL     1      37.425  -2.023  19.375  0.00  0.00    +0.000 C 
ATOM     21  C   UNL     1      36.356  -1.038  18.903  0.00  0.00    +0.000 C 
ENDBRANCH  19  21
ENDBRANCH  17  19
ENDBRANCH   1  17
BRANCH   7  22
ATOM     22  O   UNL     1      38.990   4.279  13.158  0.00  0.00    +0.000 OA
ATOM     23  C   UNL     1      38.390   4.845  12.001  0.00  0.00    +0.000 C 
ENDBRANCH   7  22
BRANCH   8  24
ATOM     24  O   UNL     1      37.694   4.346  15.521  0.00  0.00    +0.000 OA
ATOM     25  C   UNL     1      38.079   4.548  16.860  0.00  0.00    +0.000 C 
ENDBRANCH   8  24
BRANCH   4  26
ATOM     26  N   UNL     1      39.034  -0.493  11.638  0.00  0.00    +0.000 NA
BRANCH  26  27
ATOM     27  C   UNL     1      40.182  -1.318  11.430  0.00  0.00    +0.000 C 
BRANCH  27  28
ATOM     28  C   UNL     1      41.228  -0.908  12.405  0.00  0.00    +0.000 A 
ATOM     29  C   UNL     1      41.882   0.305  12.342  0.00  0.00    +0.000 A 
ATOM     30  C   UNL     1      42.851   0.697  13.237  0.00  0.00    +0.000 A 
ATOM     31  C   UNL     1      43.191  -0.161  14.251  0.00  0.00    +0.000 A 
ATOM     32  C   UNL     1      42.569  -1.379  14.356  0.00  0.00    +0.000 A 
ATOM     33  C   UNL     1      41.604  -1.739  13.443  0.00  0.00    +0.000 A 
ENDBRANCH  27  28
ENDBRANCH  26  27
ENDBRANCH   4  26
TORSDOF 9
ENDMDL
MODEL 6
REMARK VINA RESULT:      -6.8      3.092      5.800
REMARK  Name = 
REMARK  9 active torsions:
REMARK  status: ('A' for Active; 'I' for Inactive)
REMARK    1  A    between atoms: C_2  and  O_3
REMARK    2  A    between atoms: O_3  and  C_4
REMARK    3  A    between atoms: C_4  and  C_6
REMARK    4  A    between atoms: C_7  and  C_8
REMARK    5  A    between atoms: C_15  and  N_16
REMARK    6  A    between atoms: N_16  and  C_17
REMARK    7  A    between atoms: C_17  and  C_18
REMARK    8  A    between atoms: C_26  and  O_27
REMARK    9  A    between atoms: C_29  and  O_30
REMARK                            x       y       z     vdW  Elec       q    Type
REMARK                         _______ _______ _______ _____ _____    ______ ____
ROOT
ATOM      1  C   UNL     1      37.319  -0.616  16.050  0.00  0.00    +0.000 A 
ATOM      2  C   UNL     1      38.411  -1.448  16.101  0.00  0.00    +0.000 A 
ATOM      3  C   UNL     1      39.558  -1.112  15.369  0.00  0.00    +0.000 A 
ATOM      4  C   UNL     1      39.610   0.015  14.614  0.00  0.00    +0.000 A 
ATOM      5  C   UNL     1      38.520   0.848  14.563  0.00  0.00    +0.000 A 
ATOM      6  C   UNL     1      38.612   2.005  13.774  0.00  0.00    +0.000 A 
ATOM      7  C   UNL     1      37.507   2.823  13.740  0.00  0.00    +0.000 A 
ATOM      8  C   UNL     1      36.350   2.548  14.437  0.00  0.00    +0.000 A 
ATOM      9  C   UNL     1      36.290   1.402  15.205  0.00  0.00    +0.000 A 
ATOM     10  C   UNL     1      37.390   0.544  15.267  0.00  0.00    +0.000 A 
ENDROOT
BRANCH   2  11
ATOM     11  C   UNL     1      38.452  -2.640  16.914  0.00  0.00    +0.000 A 
ATOM     12  C   UNL     1      38.267  -3.893  16.410  0.00  0.00    +0.000 A 
ATOM     13  C   UNL     1      38.310  -5.013  17.203  0.00  0.00    +0.000 A 
ATOM     14  C   UNL     1      38.546  -4.910  18.550  0.00  0.00    +0.000 A 
ATOM     15  C   UNL     1      38.740  -3.663  19.102  0.00  0.00    +0.000 A 
ATOM     16  C   UNL     1      38.690  -2.556  18.283  0.00  0.00    +0.000 A 
ENDBRANCH   2  11
BRANCH   1  17
ATOM     17  C   UNL     1      36.067  -0.899  16.736  0.00  0.00    +0.000 C 
ATOM     18  O   UNL     1      35.950  -0.525  17.930  0.00  0.00    +0.000 OA
BRANCH  17  19
ATOM     19  O   UNL     1      34.988  -1.542  16.190  0.00  0.00    +0.000 OA
BRANCH  19  21
ATOM     20  C   UNL     1      34.894  -3.631  14.988  0.00  0.00    +0.000 C 
ATOM     21  C   UNL     1      34.783  -2.933  16.343  0.00  0.00    +0.000 C 
ENDBRANCH  19  21
ENDBRANCH  17  19
ENDBRANCH   1  17
BRANCH   7  22
ATOM     22  O   UNL     1      37.507   4.006  12.973  0.00  0.00    +0.000 OA
ATOM     23  C   UNL     1      37.551   3.924  11.555  0.00  0.00    +0.000 C 
ENDBRANCH   7  22
BRANCH   8  24
ATOM     24  O   UNL     1      35.265   3.427  14.354  0.00  0.00    +0.000 OA
ATOM     25  C   UNL     1      34.225   3.432  15.303  0.00  0.00    +0.000 C 
ENDBRANCH   8  24
BRANCH   4  26
ATOM     26  N   UNL     1      40.786   0.331  13.880  0.00  0.00    +0.000 NA
BRANCH  26  27
ATOM     27  C   UNL     1      41.457  -0.648  13.086  0.00  0.00    +0.000 C 
BRANCH  27  28
ATOM     28  C   UNL     1      42.784  -0.913  13.704  0.00  0.00    +0.000 A 
ATOM     29  C   UNL     1      43.464   0.022  14.457  0.00  0.00    +0.000 A 
ATOM     30  C   UNL     1      44.692  -0.211  15.035  0.00  0.00    +0.000 A 
ATOM     31  C   UNL     1      45.278  -1.437  14.855  0.00  0.00    +0.000 A 
ATOM     32  C   UNL     1      44.641  -2.400  14.115  0.00  0.00    +0.000 A 
ATOM     33  C   UNL     1      43.414  -2.134  13.551  0.00  0.00    +0.000 A 
ENDBRANCH  27  28
ENDBRANCH  26  27
ENDBRANCH   4  26
TORSDOF 9
ENDMDL
MODEL 7
REMARK VINA RESULT:      -6.8      2.508      6.321
REMARK  Name = 
REMARK  9 active torsions:
REMARK  status: ('A' for Active; 'I' for Inactive)
REMARK    1  A    between atoms: C_2  and  O_3
REMARK    2  A    between atoms: O_3  and  C_4
REMARK    3  A    between atoms: C_4  and  C_6
REMARK    4  A    between atoms: C_7  and  C_8
REMARK    5  A    between atoms: C_15  and  N_16
REMARK    6  A    between atoms: N_16  and  C_17
REMARK    7  A    between atoms: C_17  and  C_18
REMARK    8  A    between atoms: C_26  and  O_27
REMARK    9  A    between atoms: C_29  and  O_30
REMARK                            x       y       z     vdW  Elec       q    Type
REMARK                         _______ _______ _______ _____ _____    ______ ____
ROOT
ATOM      1  C   UNL     1      38.875   0.879  14.632  0.00  0.00    +0.000 A 
ATOM      2  C   UNL     1      37.632   0.397  14.964  0.00  0.00    +0.000 A 
ATOM      3  C   UNL     1      37.445  -0.989  15.073  0.00  0.00    +0.000 A 
ATOM      4  C   UNL     1      38.466  -1.858  14.861  0.00  0.00    +0.000 A 
ATOM      5  C   UNL     1      39.709  -1.378  14.531  0.00  0.00    +0.000 A 
ATOM      6  C   UNL     1      40.740  -2.307  14.320  0.00  0.00    +0.000 A 
ATOM      7  C   UNL     1      41.975  -1.801  13.991  0.00  0.00    +0.000 A 
ATOM      8  C   UNL     1      42.222  -0.450  13.868  0.00  0.00    +0.000 A 
ATOM      9  C   UNL     1      41.188   0.440  14.081  0.00  0.00    +0.000 A 
ATOM     10  C   UNL     1      39.918  -0.033  14.417  0.00  0.00    +0.000 A 
ENDROOT
BRANCH   2  11
ATOM     11  C   UNL     1      36.508   1.255  15.250  0.00  0.00    +0.000 A 
ATOM     12  C   UNL     1      35.907   1.315  16.472  0.00  0.00    +0.000 A 
ATOM     13  C   UNL     1      34.839   2.140  16.721  0.00  0.00    +0.000 A 
ATOM     14  C   UNL     1      34.330   2.947  15.735  0.00  0.00    +0.000 A 
ATOM     15  C   UNL     1      34.906   2.919  14.485  0.00  0.00    +0.000 A 
ATOM     16  C   UNL     1      35.977   2.081  14.262  0.00  0.00    +0.000 A 
ENDBRANCH   2  11
BRANCH   1  17
ATOM     17  C   UNL     1      39.159   2.294  14.449  0.00  0.00    +0.000 C 
ATOM     18  O   UNL     1      39.196   2.743  13.276  0.00  0.00    +0.000 OA
BRANCH  17  19
ATOM     19  O   UNL     1      39.390   3.196  15.454  0.00  0.00    +0.000 OA
BRANCH  19  21
ATOM     20  C   UNL     1      37.981   4.349  17.036  0.00  0.00    +0.000 C 
ATOM     21  C   UNL     1      38.587   4.346  15.633  0.00  0.00    +0.000 C 
ENDBRANCH  19  21
ENDBRANCH  17  19
ENDBRANCH   1  17
BRANCH   7  22
ATOM     22  O   UNL     1      43.069  -2.659  13.760  0.00  0.00    +0.000 OA
ATOM     23  C   UNL     1      43.211  -3.291  12.496  0.00  0.00    +0.000 C 
ENDBRANCH   7  22
BRANCH   8  24
ATOM     24  O   UNL     1      43.505  -0.008  13.530  0.00  0.00    +0.000 OA
ATOM     25  C   UNL     1      43.748   0.826  12.422  0.00  0.00    +0.000 C 
ENDBRANCH   8  24
BRANCH   4  26
ATOM     26  N   UNL     1      38.248  -3.258  14.978  0.00  0.00    +0.000 NA
BRANCH  26  27
ATOM     27  C   UNL     1      37.645  -3.826  16.141  0.00  0.00    +0.000 C 
BRANCH  27  28
ATOM     28  C   UNL     1      36.380  -4.492  15.726  0.00  0.00    +0.000 A 
ATOM     29  C   UNL     1      35.983  -5.721  16.210  0.00  0.00    +0.000 A 
ATOM     30  C   UNL     1      34.816  -6.347  15.836  0.00  0.00    +0.000 A 
ATOM     31  C   UNL     1      33.998  -5.721  14.930  0.00  0.00    +0.000 A 
ATOM     32  C   UNL     1      34.351  -4.497  14.420  0.00  0.00    +0.000 A 
ATOM     33  C   UNL     1      35.525  -3.899  14.817  0.00  0.00    +0.000 A 
ENDBRANCH  27  28
ENDBRANCH  26  27
ENDBRANCH   4  26
TORSDOF 9
ENDMDL
MODEL 8
REMARK VINA RESULT:      -6.8      2.524      5.488
REMARK  Name = 
REMARK  9 active torsions:
REMARK  status: ('A' for Active; 'I' for Inactive)
REMARK    1  A    between atoms: C_2  and  O_3
REMARK    2  A    between atoms: O_3  and  C_4
REMARK    3  A    between atoms: C_4  and  C_6
REMARK    4  A    between atoms: C_7  and  C_8
REMARK    5  A    between atoms: C_15  and  N_16
REMARK    6  A    between atoms: N_16  and  C_17
REMARK    7  A    between atoms: C_17  and  C_18
REMARK    8  A    between atoms: C_26  and  O_27
REMARK    9  A    between atoms: C_29  and  O_30
REMARK                            x       y       z     vdW  Elec       q    Type
REMARK                         _______ _______ _______ _____ _____    ______ ____
ROOT
ATOM      1  C   UNL     1      38.418  -0.434  15.287  0.00  0.00    +0.000 A 
ATOM      2  C   UNL     1      39.039  -1.656  15.189  0.00  0.00    +0.000 A 
ATOM      3  C   UNL     1      40.265  -1.747  14.515  0.00  0.00    +0.000 A 
ATOM      4  C   UNL     1      40.848  -0.653  13.960  0.00  0.00    +0.000 A 
ATOM      5  C   UNL     1      40.230   0.568  14.057  0.00  0.00    +0.000 A 
ATOM      6  C   UNL     1      40.863   1.676  13.472  0.00  0.00    +0.000 A 
ATOM      7  C   UNL     1      40.225   2.888  13.584  0.00  0.00    +0.000 A 
ATOM      8  C   UNL     1      39.018   3.042  14.234  0.00  0.00    +0.000 A 
ATOM      9  C   UNL     1      38.420   1.934  14.800  0.00  0.00    +0.000 A 
ATOM     10  C   UNL     1      39.035   0.684  14.709  0.00  0.00    +0.000 A 
ENDROOT
BRANCH   2  11
ATOM     11  C   UNL     1      38.508  -2.856  15.791  0.00  0.00    +0.000 A 
ATOM     12  C   UNL     1      39.008  -3.400  16.936  0.00  0.00    +0.000 A 
ATOM     13  C   UNL     1      38.486  -4.543  17.490  0.00  0.00    +0.000 A 
ATOM     14  C   UNL     1      37.427  -5.187  16.903  0.00  0.00    +0.000 A 
ATOM     15  C   UNL     1      36.890  -4.672  15.745  0.00  0.00    +0.000 A 
ATOM     16  C   UNL     1      37.433  -3.524  15.210  0.00  0.00    +0.000 A 
ENDBRANCH   2  11
BRANCH   1  17
ATOM     17  C   UNL     1      37.125  -0.245  15.925  0.00  0.00    +0.000 C 
ATOM     18  O   UNL     1      36.093  -0.352  15.216  0.00  0.00    +0.000 OA
BRANCH  17  19
ATOM     19  O   UNL     1      36.926   0.039  17.250  0.00  0.00    +0.000 OA
BRANCH  19  21
ATOM     20  C   UNL     1      37.168  -1.356  19.203  0.00  0.00    +0.000 C 
ATOM     21  C   UNL     1      36.230  -0.838  18.113  0.00  0.00    +0.000 C 
ENDBRANCH  19  21
ENDBRANCH  17  19
ENDBRANCH   1  17
BRANCH   7  22
ATOM     22  O   UNL     1      40.786   4.055  13.027  0.00  0.00    +0.000 OA
ATOM     23  C   UNL     1      40.804   4.220  11.615  0.00  0.00    +0.000 C 
ENDBRANCH   7  22
BRANCH   8  24
ATOM     24  O   UNL     1      38.427   4.307  14.308  0.00  0.00    +0.000 OA
ATOM     25  C   UNL     1      37.969   4.856  15.521  0.00  0.00    +0.000 C 
ENDBRANCH   8  24
BRANCH   4  26
ATOM     26  N   UNL     1      42.091  -0.774  13.281  0.00  0.00    +0.000 NA
BRANCH  26  27
ATOM     27  C   UNL     1      42.904  -1.940  13.410  0.00  0.00    +0.000 C 
BRANCH  27  28
ATOM     28  C   UNL     1      44.047  -1.609  14.304  0.00  0.00    +0.000 A 
ATOM     29  C   UNL     1      45.130  -2.445  14.482  0.00  0.00    +0.000 A 
ATOM     30  C   UNL     1      46.193  -2.151  15.305  0.00  0.00    +0.000 A 
ATOM     31  C   UNL     1      46.182  -0.964  15.990  0.00  0.00    +0.000 A 
ATOM     32  C   UNL     1      45.126  -0.100  15.847  0.00  0.00    +0.000 A 
ATOM     33  C   UNL     1      44.080  -0.425  15.015  0.00  0.00    +0.000 A 
ENDBRANCH  27  28
ENDBRANCH  26  27
ENDBRANCH   4  26
TORSDOF 9
ENDMDL
MODEL 9
REMARK VINA RESULT:      -6.6     23.662     26.406
REMARK  Name = 
REMARK  9 active torsions:
REMARK  status: ('A' for Active; 'I' for Inactive)
REMARK    1  A    between atoms: C_2  and  O_3
REMARK    2  A    between atoms: O_3  and  C_4
REMARK    3  A    between atoms: C_4  and  C_6
REMARK    4  A    between atoms: C_7  and  C_8
REMARK    5  A    between atoms: C_15  and  N_16
REMARK    6  A    between atoms: N_16  and  C_17
REMARK    7  A    between atoms: C_17  and  C_18
REMARK    8  A    between atoms: C_26  and  O_27
REMARK    9  A    between atoms: C_29  and  O_30
REMARK                            x       y       z     vdW  Elec       q    Type
REMARK                         _______ _______ _______ _____ _____    ______ ____
ROOT
ATOM      1  C   UNL     1      14.662  -1.052   4.252  0.00  0.00    +0.000 A 
ATOM      2  C   UNL     1      15.647  -1.447   5.125  0.00  0.00    +0.000 A 
ATOM      3  C   UNL     1      16.883  -0.787   5.103  0.00  0.00    +0.000 A 
ATOM      4  C   UNL     1      17.124   0.233   4.240  0.00  0.00    +0.000 A 
ATOM      5  C   UNL     1      16.141   0.630   3.368  0.00  0.00    +0.000 A 
ATOM      6  C   UNL     1      16.426   1.689   2.491  0.00  0.00    +0.000 A 
ATOM      7  C   UNL     1      15.425   2.068   1.628  0.00  0.00    +0.000 A 
ATOM      8  C   UNL     1      14.189   1.458   1.601  0.00  0.00    +0.000 A 
ATOM      9  C   UNL     1      13.938   0.420   2.475  0.00  0.00    +0.000 A 
ATOM     10  C   UNL     1      14.928   0.004   3.369  0.00  0.00    +0.000 A 
ENDROOT
BRANCH   2  11
ATOM     11  C   UNL     1      15.455  -2.490   6.103  0.00  0.00    +0.000 A 
ATOM     12  C   UNL     1      14.584  -2.383   7.147  0.00  0.00    +0.000 A 
ATOM     13  C   UNL     1      14.418  -3.390   8.066  0.00  0.00    +0.000 A 
ATOM     14  C   UNL     1      15.132  -4.557   7.966  0.00  0.00    +0.000 A 
ATOM     15  C   UNL     1      16.024  -4.708   6.927  0.00  0.00    +0.000 A 
ATOM     16  C   UNL     1      16.171  -3.682   6.020  0.00  0.00    +0.000 A 
ENDBRANCH   2  11
BRANCH   1  17
ATOM     17  C   UNL     1      13.364  -1.703   4.166  0.00  0.00    +0.000 C 
ATOM     18  O   UNL     1      12.437  -1.272   4.897  0.00  0.00    +0.000 OA
BRANCH  17  19
ATOM     19  O   UNL     1      13.054  -2.754   3.345  0.00  0.00    +0.000 OA
BRANCH  19  21
ATOM     20  C   UNL     1      14.332  -4.780   3.061  0.00  0.00    +0.000 C 
ATOM     21  C   UNL     1      13.162  -4.099   3.770  0.00  0.00    +0.000 C 
ENDBRANCH  19  21
ENDBRANCH  17  19
ENDBRANCH   1  17
BRANCH   7  22
ATOM     22  O   UNL     1      15.622   3.121   0.712  0.00  0.00    +0.000 OA
ATOM     23  C   UNL     1      16.622   3.002  -0.291  0.00  0.00    +0.000 C 
ENDBRANCH   7  22
BRANCH   8  24
ATOM     24  O   UNL     1      13.219   1.898   0.695  0.00  0.00    +0.000 OA
ATOM     25  C   UNL     1      12.881   1.169  -0.461  0.00  0.00    +0.000 C 
ENDBRANCH   8  24
BRANCH   4  26
ATOM     26  N   UNL     1      18.387   0.885   4.238  0.00  0.00    +0.000 NA
BRANCH  26  27
ATOM     27  C   UNL     1      19.605   0.156   4.078  0.00  0.00    +0.000 C 
BRANCH  27  28
ATOM     28  C   UNL     1      19.998   0.223   2.644  0.00  0.00    +0.000 A 
ATOM     29  C   UNL     1      19.873   1.366   1.882  0.00  0.00    +0.000 A 
ATOM     30  C   UNL     1      20.233   1.441   0.556  0.00  0.00    +0.000 A 
ATOM     31  C   UNL     1      20.743   0.322  -0.049  0.00  0.00    +0.000 A 
ATOM     32  C   UNL     1      20.885  -0.839   0.667  0.00  0.00    +0.000 A 
ATOM     33  C   UNL     1      20.516  -0.880   1.992  0.00  0.00    +0.000 A 
ENDBRANCH  27  28
ENDBRANCH  26  27
ENDBRANCH   4  26
TORSDOF 9
ENDMDL
MODEL 10
REMARK VINA RESULT:      -6.6      2.743      5.867
REMARK  Name = 
REMARK  9 active torsions:
REMARK  status: ('A' for Active; 'I' for Inactive)
REMARK    1  A    between atoms: C_2  and  O_3
REMARK    2  A    between atoms: O_3  and  C_4
REMARK    3  A    between atoms: C_4  and  C_6
REMARK    4  A    between atoms: C_7  and  C_8
REMARK    5  A    between atoms: C_15  and  N_16
REMARK    6  A    between atoms: N_16  and  C_17
REMARK    7  A    between atoms: C_17  and  C_18
REMARK    8  A    between atoms: C_26  and  O_27
REMARK    9  A    between atoms: C_29  and  O_30
REMARK                            x       y       z     vdW  Elec       q    Type
REMARK                         _______ _______ _______ _____ _____    ______ ____
ROOT
ATOM      1  C   UNL     1      38.880  -0.560  15.032  0.00  0.00    +0.000 A 
ATOM      2  C   UNL     1      39.392  -1.833  15.110  0.00  0.00    +0.000 A 
ATOM      3  C   UNL     1      40.672  -2.086  14.596  0.00  0.00    +0.000 A 
ATOM      4  C   UNL     1      41.412  -1.100  14.028  0.00  0.00    +0.000 A 
ATOM      5  C   UNL     1      40.903   0.173  13.951  0.00  0.00    +0.000 A 
ATOM      6  C   UNL     1      41.698   1.166  13.358  0.00  0.00    +0.000 A 
ATOM      7  C   UNL     1      41.166   2.432  13.293  0.00  0.00    +0.000 A 
ATOM      8  C   UNL     1      39.914   2.743  13.780  0.00  0.00    +0.000 A 
ATOM      9  C   UNL     1      39.156   1.746  14.358  0.00  0.00    +0.000 A 
ATOM     10  C   UNL     1      39.659   0.446  14.443  0.00  0.00    +0.000 A 
ENDROOT
BRANCH   2  11
ATOM     11  C   UNL     1      38.688  -2.924  15.738  0.00  0.00    +0.000 A 
ATOM     12  C   UNL     1      37.616  -3.546  15.170  0.00  0.00    +0.000 A 
ATOM     13  C   UNL     1      36.962  -4.583  15.788  0.00  0.00    +0.000 A 
ATOM     14  C   UNL     1      37.369  -5.039  17.016  0.00  0.00    +0.000 A 
ATOM     15  C   UNL     1      38.448  -4.439  17.627  0.00  0.00    +0.000 A 
ATOM     16  C   UNL     1      39.086  -3.401  16.985  0.00  0.00    +0.000 A 
ENDBRANCH   2  11
BRANCH   1  17
ATOM     17  C   UNL     1      37.547  -0.207  15.494  0.00  0.00    +0.000 C 
ATOM     18  O   UNL     1      36.600  -0.266  14.669  0.00  0.00    +0.000 OA
BRANCH  17  19
ATOM     19  O   UNL     1      37.223   0.186  16.765  0.00  0.00    +0.000 OA
BRANCH  19  21
ATOM     20  C   UNL     1      36.460  -1.379  18.434  0.00  0.00    +0.000 C 
ATOM     21  C   UNL     1      36.072  -0.293  17.432  0.00  0.00    +0.000 C 
ENDBRANCH  19  21
ENDBRANCH  17  19
ENDBRANCH   1  17
BRANCH   7  22
ATOM     22  O   UNL     1      41.892   3.492  12.714  0.00  0.00    +0.000 OA
ATOM     23  C   UNL     1      43.209   3.261  12.233  0.00  0.00    +0.000 C 
ENDBRANCH   7  22
BRANCH   8  24
ATOM     24  O   UNL     1      39.438   4.054  13.679  0.00  0.00    +0.000 OA
ATOM     25  C   UNL     1      38.244   4.374  13.005  0.00  0.00    +0.000 C 
ENDBRANCH   8  24
BRANCH   4  26
ATOM     26  N   UNL     1      42.707  -1.384  13.514  0.00  0.00    +0.000 NA
BRANCH  26  27
ATOM     27  C   UNL     1      42.942  -2.498  12.652  0.00  0.00    +0.000 C 
BRANCH  27  28
ATOM     28  C   UNL     1      42.192  -2.269  11.388  0.00  0.00    +0.000 A 
ATOM     29  C   UNL     1      42.437  -1.201  10.550  0.00  0.00    +0.000 A 
ATOM     30  C   UNL     1      41.751  -0.977   9.378  0.00  0.00    +0.000 A 
ATOM     31  C   UNL     1      40.767  -1.860   9.017  0.00  0.00    +0.000 A 
ATOM     32  C   UNL     1      40.486  -2.938   9.817  0.00  0.00    +0.000 A 
ATOM     33  C   UNL     1      41.191  -3.131  10.982  0.00  0.00    +0.000 A 
ENDBRANCH  27  28
ENDBRANCH  26  27
ENDBRANCH   4  26
TORSDOF 9
ENDMDL
