MODEL 1
REMARK VINA RESULT:      -6.4      0.000      0.000
REMARK  Name = 
REMARK  3 active torsions:
REMARK  status: ('A' for Active; 'I' for Inactive)
REMARK    1  A    between atoms: O_2  and  C_3
REMARK    2  A    between atoms: N_13  and  N_14
REMARK    3  A    between atoms: C_15  and  S_17
REMARK                            x       y       z     vdW  Elec       q    Type
REMARK                         _______ _______ _______ _____ _____    ______ ____
ROOT
ATOM      1  C   UNL     1      15.517  11.645  32.248  0.00  0.00    +0.000 A 
ATOM      2  C   UNL     1      16.471  10.657  32.419  0.00  0.00    +0.000 A 
ATOM      3  C   UNL     1      16.931  10.357  33.691  0.00  0.00    +0.000 A 
ATOM      4  C   UNL     1      16.414  11.065  34.756  0.00  0.00    +0.000 A 
ATOM      5  C   UNL     1      15.464  12.053  34.610  0.00  0.00    +0.000 A 
ATOM      6  C   UNL     1      15.010  12.345  33.326  0.00  0.00    +0.000 A 
ATOM      7  C   UNL     1      14.985  12.741  35.812  0.00  0.00    +0.000 C 
ATOM      8  C   UNL     1      14.794  11.830  36.994  0.00  0.00    +0.000 C 
ATOM      9  C   UNL     1      16.000  10.969  37.269  0.00  0.00    +0.000 C 
ATOM     10  C   UNL     1      16.870  10.782  36.111  0.00  0.00    +0.000 C 
ATOM     11  N   UNL     1      18.070  10.351  36.322  0.00  0.00    +0.000 NA
ENDROOT
BRANCH  11  12
ATOM     12  N   UNL     1      18.521  10.073  37.630  0.00  0.00    +0.000 NA
ATOM     13  C   UNL     1      19.786   9.781  37.726  0.00  0.00    +0.000 C 
ATOM     14  N   UNL     1      20.630   9.753  36.571  0.00  0.00    +0.000 NA
BRANCH  13  15
ATOM     15  S   UNL     1      20.555   9.399  39.293  0.00  0.00    +0.000 S 
ATOM     16  C   UNL     1      19.520   8.213  40.219  0.00  0.00    +0.000 C 
ENDBRANCH  13  15
ENDBRANCH  11  12
BRANCH   1  18
ATOM     17  C   UNL     1      14.600  13.162  30.545  0.00  0.00    +0.000 C 
ATOM     18  O   UNL     1      15.079  11.923  30.983  0.00  0.00    +0.000 OA
ENDBRANCH   1  18
TORSDOF 3
ENDMDL
MODEL 2
REMARK VINA RESULT:      -6.2     28.824     30.203
REMARK  Name = 
REMARK  3 active torsions:
REMARK  status: ('A' for Active; 'I' for Inactive)
REMARK    1  A    between atoms: O_2  and  C_3
REMARK    2  A    between atoms: N_13  and  N_14
REMARK    3  A    between atoms: C_15  and  S_17
REMARK                            x       y       z     vdW  Elec       q    Type
REMARK                         _______ _______ _______ _____ _____    ______ ____
ROOT
ATOM      1  C   UNL     1      28.425  23.828  13.378  0.00  0.00    +0.000 A 
ATOM      2  C   UNL     1      27.685  23.499  12.255  0.00  0.00    +0.000 A 
ATOM      3  C   UNL     1      28.173  22.561  11.359  0.00  0.00    +0.000 A 
ATOM      4  C   UNL     1      29.397  21.981  11.624  0.00  0.00    +0.000 A 
ATOM      5  C   UNL     1      30.150  22.293  12.734  0.00  0.00    +0.000 A 
ATOM      6  C   UNL     1      29.649  23.238  13.627  0.00  0.00    +0.000 A 
ATOM      7  C   UNL     1      31.437  21.615  12.915  0.00  0.00    +0.000 C 
ATOM      8  C   UNL     1      31.410  20.158  12.541  0.00  0.00    +0.000 C 
ATOM      9  C   UNL     1      30.822  19.917  11.173  0.00  0.00    +0.000 C 
ATOM     10  C   UNL     1      29.947  20.990  10.708  0.00  0.00    +0.000 C 
ATOM     11  N   UNL     1      29.668  21.037   9.447  0.00  0.00    +0.000 NA
ENDROOT
BRANCH  11  12
ATOM     12  N   UNL     1      30.196  20.081   8.553  0.00  0.00    +0.000 NA
ATOM     13  C   UNL     1      30.997  20.559   7.646  0.00  0.00    +0.000 C 
ATOM     14  N   UNL     1      31.302  21.956   7.587  0.00  0.00    +0.000 NA
BRANCH  13  15
ATOM     15  S   UNL     1      31.772  19.517   6.419  0.00  0.00    +0.000 S 
ATOM     16  C   UNL     1      33.298  18.783   7.102  0.00  0.00    +0.000 C 
ENDBRANCH  13  15
ENDBRANCH  11  12
BRANCH   1  18
ATOM     17  C   UNL     1      28.681  25.672  14.982  0.00  0.00    +0.000 C 
ATOM     18  O   UNL     1      27.922  24.756  14.246  0.00  0.00    +0.000 OA
ENDBRANCH   1  18
TORSDOF 3
ENDMDL
MODEL 3
REMARK VINA RESULT:      -5.8     20.112     21.212
REMARK  Name = 
REMARK  3 active torsions:
REMARK  status: ('A' for Active; 'I' for Inactive)
REMARK    1  A    between atoms: O_2  and  C_3
REMARK    2  A    between atoms: N_13  and  N_14
REMARK    3  A    between atoms: C_15  and  S_17
REMARK                            x       y       z     vdW  Elec       q    Type
REMARK                         _______ _______ _______ _____ _____    ______ ____
ROOT
ATOM      1  C   UNL     1      21.633  -6.850  24.963  0.00  0.00    +0.000 A 
ATOM      2  C   UNL     1      21.766  -8.174  25.348  0.00  0.00    +0.000 A 
ATOM      3  C   UNL     1      20.826  -8.743  26.192  0.00  0.00    +0.000 A 
ATOM      4  C   UNL     1      19.776  -7.958  26.624  0.00  0.00    +0.000 A 
ATOM      5  C   UNL     1      19.625  -6.639  26.254  0.00  0.00    +0.000 A 
ATOM      6  C   UNL     1      20.576  -6.079  25.406  0.00  0.00    +0.000 A 
ATOM      7  C   UNL     1      18.471  -5.899  26.774  0.00  0.00    +0.000 C 
ATOM      8  C   UNL     1      17.204  -6.709  26.817  0.00  0.00    +0.000 C 
ATOM      9  C   UNL     1      17.384  -8.041  27.498  0.00  0.00    +0.000 C 
ATOM     10  C   UNL     1      18.765  -8.517  27.512  0.00  0.00    +0.000 C 
ATOM     11  N   UNL     1      19.071  -9.459  28.342  0.00  0.00    +0.000 NA
ENDROOT
BRANCH  11  12
ATOM     12  N   UNL     1      18.099 -10.007  29.205  0.00  0.00    +0.000 NA
ATOM     13  C   UNL     1      18.454 -10.086  30.455  0.00  0.00    +0.000 C 
ATOM     14  N   UNL     1      19.742  -9.640  30.889  0.00  0.00    +0.000 NA
BRANCH  13  15
ATOM     15  S   UNL     1      17.368 -10.748  31.710  0.00  0.00    +0.000 S 
ATOM     16  C   UNL     1      15.744 -11.148  30.978  0.00  0.00    +0.000 C 
ENDBRANCH  13  15
ENDBRANCH  11  12
BRANCH   1  18
ATOM     17  C   UNL     1      23.958  -6.464  24.265  0.00  0.00    +0.000 C 
ATOM     18  O   UNL     1      22.574  -6.312  24.130  0.00  0.00    +0.000 OA
ENDBRANCH   1  18
TORSDOF 3
ENDMDL
MODEL 4
REMARK VINA RESULT:      -5.6     20.814     22.144
REMARK  Name = 
REMARK  3 active torsions:
REMARK  status: ('A' for Active; 'I' for Inactive)
REMARK    1  A    between atoms: O_2  and  C_3
REMARK    2  A    between atoms: N_13  and  N_14
REMARK    3  A    between atoms: C_15  and  S_17
REMARK                            x       y       z     vdW  Elec       q    Type
REMARK                         _______ _______ _______ _____ _____    ______ ____
ROOT
ATOM      1  C   UNL     1      17.975  -9.426  28.637  0.00  0.00    +0.000 A 
ATOM      2  C   UNL     1      19.226  -9.986  28.440  0.00  0.00    +0.000 A 
ATOM      3  C   UNL     1      20.104  -9.406  27.538  0.00  0.00    +0.000 A 
ATOM      4  C   UNL     1      19.694  -8.276  26.861  0.00  0.00    +0.000 A 
ATOM      5  C   UNL     1      18.454  -7.703  27.042  0.00  0.00    +0.000 A 
ATOM      6  C   UNL     1      17.580  -8.295  27.951  0.00  0.00    +0.000 A 
ATOM      7  C   UNL     1      18.123  -6.502  26.269  0.00  0.00    +0.000 C 
ATOM      8  C   UNL     1      19.268  -5.536  26.133  0.00  0.00    +0.000 C 
ATOM      9  C   UNL     1      20.535  -6.196  25.652  0.00  0.00    +0.000 C 
ATOM     10  C   UNL     1      20.587  -7.634  25.904  0.00  0.00    +0.000 C 
ATOM     11  N   UNL     1      21.456  -8.331  25.250  0.00  0.00    +0.000 NA
ENDROOT
BRANCH  11  12
ATOM     12  N   UNL     1      22.324  -7.719  24.322  0.00  0.00    +0.000 NA
ATOM     13  C   UNL     1      23.488  -8.289  24.198  0.00  0.00    +0.000 C 
ATOM     14  N   UNL     1      23.830  -9.449  24.961  0.00  0.00    +0.000 NA
BRANCH  13  15
ATOM     15  S   UNL     1      24.733  -7.670  23.075  0.00  0.00    +0.000 S 
ATOM     16  C   UNL     1      25.436  -9.050  22.108  0.00  0.00    +0.000 C 
ENDBRANCH  13  15
ENDBRANCH  11  12
BRANCH   1  18
ATOM     17  C   UNL     1      17.277 -10.001  30.923  0.00  0.00    +0.000 C 
ATOM     18  O   UNL     1      17.127 -10.017  29.532  0.00  0.00    +0.000 OA
ENDBRANCH   1  18
TORSDOF 3
ENDMDL
MODEL 5
REMARK VINA RESULT:      -5.6     28.745     31.251
REMARK  Name = 
REMARK  3 active torsions:
REMARK  status: ('A' for Active; 'I' for Inactive)
REMARK    1  A    between atoms: O_2  and  C_3
REMARK    2  A    between atoms: N_13  and  N_14
REMARK    3  A    between atoms: C_15  and  S_17
REMARK                            x       y       z     vdW  Elec       q    Type
REMARK                         _______ _______ _______ _____ _____    ______ ____
ROOT
ATOM      1  C   UNL     1      29.364  22.579  12.614  0.00  0.00    +0.000 A 
ATOM      2  C   UNL     1      28.697  22.185  11.466  0.00  0.00    +0.000 A 
ATOM      3  C   UNL     1      29.404  21.613  10.421  0.00  0.00    +0.000 A 
ATOM      4  C   UNL     1      30.768  21.455  10.565  0.00  0.00    +0.000 A 
ATOM      5  C   UNL     1      31.452  21.840  11.697  0.00  0.00    +0.000 A 
ATOM      6  C   UNL     1      30.730  22.413  12.741  0.00  0.00    +0.000 A 
ATOM      7  C   UNL     1      32.901  21.625  11.741  0.00  0.00    +0.000 C 
ATOM      8  C   UNL     1      33.336  20.318  11.135  0.00  0.00    +0.000 C 
ATOM      9  C   UNL     1      32.766  20.094   9.758  0.00  0.00    +0.000 C 
ATOM     10  C   UNL     1      31.550  20.858   9.489  0.00  0.00    +0.000 C 
ATOM     11  N   UNL     1      31.180  20.991   8.258  0.00  0.00    +0.000 NA
ENDROOT
BRANCH  11  12
ATOM     12  N   UNL     1      31.930  20.416   7.211  0.00  0.00    +0.000 NA
ATOM     13  C   UNL     1      31.264  19.612   6.433  0.00  0.00    +0.000 C 
ATOM     14  N   UNL     1      29.875  19.352   6.651  0.00  0.00    +0.000 NA
BRANCH  13  15
ATOM     15  S   UNL     1      32.029  18.783   5.047  0.00  0.00    +0.000 S 
ATOM     16  C   UNL     1      32.863  17.262   5.618  0.00  0.00    +0.000 C 
ENDBRANCH  13  15
ENDBRANCH  11  12
BRANCH   1  18
ATOM     17  C   UNL     1      27.271  23.408  13.600  0.00  0.00    +0.000 C 
ATOM     18  O   UNL     1      28.644  23.140  13.631  0.00  0.00    +0.000 OA
ENDBRANCH   1  18
TORSDOF 3
ENDMDL
MODEL 6
REMARK VINA RESULT:      -5.5     18.475     19.658
REMARK  Name = 
REMARK  3 active torsions:
REMARK  status: ('A' for Active; 'I' for Inactive)
REMARK    1  A    between atoms: O_2  and  C_3
REMARK    2  A    between atoms: N_13  and  N_14
REMARK    3  A    between atoms: C_15  and  S_17
REMARK                            x       y       z     vdW  Elec       q    Type
REMARK                         _______ _______ _______ _____ _____    ______ ____
ROOT
ATOM      1  C   UNL     1      27.716  23.102  23.927  0.00  0.00    +0.000 A 
ATOM      2  C   UNL     1      27.228  23.065  25.223  0.00  0.00    +0.000 A 
ATOM      3  C   UNL     1      28.112  23.041  26.290  0.00  0.00    +0.000 A 
ATOM      4  C   UNL     1      29.465  23.055  26.018  0.00  0.00    +0.000 A 
ATOM      5  C   UNL     1      29.972  23.092  24.738  0.00  0.00    +0.000 A 
ATOM      6  C   UNL     1      29.073  23.115  23.674  0.00  0.00    +0.000 A 
ATOM      7  C   UNL     1      31.427  23.103  24.566  0.00  0.00    +0.000 C 
ATOM      8  C   UNL     1      32.147  23.960  25.571  0.00  0.00    +0.000 C 
ATOM      9  C   UNL     1      31.741  23.662  26.992  0.00  0.00    +0.000 C 
ATOM     10  C   UNL     1      30.429  23.031  27.112  0.00  0.00    +0.000 C 
ATOM     11  N   UNL     1      30.140  22.445  28.227  0.00  0.00    +0.000 NA
ENDROOT
BRANCH  11  12
ATOM     12  N   UNL     1      31.066  22.417  29.291  0.00  0.00    +0.000 NA
ATOM     13  C   UNL     1      30.541  22.480  30.480  0.00  0.00    +0.000 C 
ATOM     14  N   UNL     1      29.125  22.570  30.661  0.00  0.00    +0.000 NA
BRANCH  13  15
ATOM     15  S   UNL     1      31.540  22.458  31.961  0.00  0.00    +0.000 S 
ATOM     16  C   UNL     1      30.763  21.384  33.217  0.00  0.00    +0.000 C 
ENDBRANCH  13  15
ENDBRANCH  11  12
BRANCH   1  18
ATOM     17  C   UNL     1      26.884  23.985  21.790  0.00  0.00    +0.000 C 
ATOM     18  O   UNL     1      26.824  23.125  22.891  0.00  0.00    +0.000 OA
ENDBRANCH   1  18
TORSDOF 3
ENDMDL
MODEL 7
REMARK VINA RESULT:      -5.2     17.884     19.253
REMARK  Name = 
REMARK  3 active torsions:
REMARK  status: ('A' for Active; 'I' for Inactive)
REMARK    1  A    between atoms: O_2  and  C_3
REMARK    2  A    between atoms: N_13  and  N_14
REMARK    3  A    between atoms: C_15  and  S_17
REMARK                            x       y       z     vdW  Elec       q    Type
REMARK                         _______ _______ _______ _____ _____    ______ ____
ROOT
ATOM      1  C   UNL     1      30.540  22.435  30.844  0.00  0.00    +0.000 A 
ATOM      2  C   UNL     1      30.970  22.598  29.538  0.00  0.00    +0.000 A 
ATOM      3  C   UNL     1      30.040  22.752  28.522  0.00  0.00    +0.000 A 
ATOM      4  C   UNL     1      28.701  22.737  28.854  0.00  0.00    +0.000 A 
ATOM      5  C   UNL     1      28.251  22.575  30.147  0.00  0.00    +0.000 A 
ATOM      6  C   UNL     1      29.195  22.422  31.159  0.00  0.00    +0.000 A 
ATOM      7  C   UNL     1      26.805  22.574  30.385  0.00  0.00    +0.000 C 
ATOM      8  C   UNL     1      26.056  23.586  29.561  0.00  0.00    +0.000 C 
ATOM      9  C   UNL     1      26.395  23.512  28.094  0.00  0.00    +0.000 C 
ATOM     10  C   UNL     1      27.690  22.895  27.816  0.00  0.00    +0.000 C 
ATOM     11  N   UNL     1      27.920  22.490  26.611  0.00  0.00    +0.000 NA
ENDROOT
BRANCH  11  12
ATOM     12  N   UNL     1      26.948  22.640  25.599  0.00  0.00    +0.000 NA
ATOM     13  C   UNL     1      27.319  23.362  24.582  0.00  0.00    +0.000 C 
ATOM     14  N   UNL     1      28.623  23.946  24.524  0.00  0.00    +0.000 NA
BRANCH  13  15
ATOM     15  S   UNL     1      26.237  23.673  23.194  0.00  0.00    +0.000 S 
ATOM     16  C   UNL     1      27.204  24.317  21.786  0.00  0.00    +0.000 C 
ENDBRANCH  13  15
ENDBRANCH  11  12
BRANCH   1  18
ATOM     17  C   UNL     1      31.292  21.577  33.021  0.00  0.00    +0.000 C 
ATOM     18  O   UNL     1      31.476  22.285  31.829  0.00  0.00    +0.000 OA
ENDBRANCH   1  18
TORSDOF 3
ENDMDL
MODEL 8
REMARK VINA RESULT:      -5.1      5.303      7.793
REMARK  Name = 
REMARK  3 active torsions:
REMARK  status: ('A' for Active; 'I' for Inactive)
REMARK    1  A    between atoms: O_2  and  C_3
REMARK    2  A    between atoms: N_13  and  N_14
REMARK    3  A    between atoms: C_15  and  S_17
REMARK                            x       y       z     vdW  Elec       q    Type
REMARK                         _______ _______ _______ _____ _____    ______ ____
ROOT
ATOM      1  C   UNL     1      19.628  10.911  37.756  0.00  0.00    +0.000 A 
ATOM      2  C   UNL     1      20.133  12.064  38.332  0.00  0.00    +0.000 A 
ATOM      3  C   UNL     1      21.499  12.297  38.324  0.00  0.00    +0.000 A 
ATOM      4  C   UNL     1      22.318  11.357  37.732  0.00  0.00    +0.000 A 
ATOM      5  C   UNL     1      21.837  10.203  37.154  0.00  0.00    +0.000 A 
ATOM      6  C   UNL     1      20.463   9.980  37.169  0.00  0.00    +0.000 A 
ATOM      7  C   UNL     1      22.799   9.273  36.554  0.00  0.00    +0.000 C 
ATOM      8  C   UNL     1      23.914   9.954  35.809  0.00  0.00    +0.000 C 
ATOM      9  C   UNL     1      24.588  11.031  36.622  0.00  0.00    +0.000 C 
ATOM     10  C   UNL     1      23.760  11.563  37.701  0.00  0.00    +0.000 C 
ATOM     11  N   UNL     1      24.347  12.231  38.638  0.00  0.00    +0.000 NA
ENDROOT
BRANCH  11  12
ATOM     12  N   UNL     1      25.743  12.436  38.616  0.00  0.00    +0.000 NA
ATOM     13  C   UNL     1      26.131  13.624  38.981  0.00  0.00    +0.000 C 
ATOM     14  N   UNL     1      25.186  14.626  39.369  0.00  0.00    +0.000 NA
BRANCH  13  15
ATOM     15  S   UNL     1      27.856  14.087  39.023  0.00  0.00    +0.000 S 
ATOM     16  C   UNL     1      28.898  12.591  39.113  0.00  0.00    +0.000 C 
ENDBRANCH  13  15
ENDBRANCH  11  12
BRANCH   1  18
ATOM     17  C   UNL     1      17.575   9.849  36.921  0.00  0.00    +0.000 C 
ATOM     18  O   UNL     1      18.277  10.704  37.778  0.00  0.00    +0.000 OA
ENDBRANCH   1  18
TORSDOF 3
ENDMDL
MODEL 9
REMARK VINA RESULT:      -5.1     21.066     22.199
REMARK  Name = 
REMARK  3 active torsions:
REMARK  status: ('A' for Active; 'I' for Inactive)
REMARK    1  A    between atoms: O_2  and  C_3
REMARK    2  A    between atoms: N_13  and  N_14
REMARK    3  A    between atoms: C_15  and  S_17
REMARK                            x       y       z     vdW  Elec       q    Type
REMARK                         _______ _______ _______ _____ _____    ______ ____
ROOT
ATOM      1  C   UNL     1      22.035  -7.621  25.334  0.00  0.00    +0.000 A 
ATOM      2  C   UNL     1      21.115  -6.598  25.174  0.00  0.00    +0.000 A 
ATOM      3  C   UNL     1      19.812  -6.770  25.614  0.00  0.00    +0.000 A 
ATOM      4  C   UNL     1      19.475  -7.971  26.205  0.00  0.00    +0.000 A 
ATOM      5  C   UNL     1      20.374  -9.001  26.374  0.00  0.00    +0.000 A 
ATOM      6  C   UNL     1      21.680  -8.817  25.927  0.00  0.00    +0.000 A 
ATOM      7  C   UNL     1      19.906 -10.234  27.014  0.00  0.00    +0.000 C 
ATOM      8  C   UNL     1      18.968  -9.998  28.166  0.00  0.00    +0.000 C 
ATOM      9  C   UNL     1      17.834  -9.069  27.816  0.00  0.00    +0.000 C 
ATOM     10  C   UNL     1      18.115  -8.193  26.682  0.00  0.00    +0.000 C 
ATOM     11  N   UNL     1      17.116  -7.611  26.106  0.00  0.00    +0.000 NA
ENDROOT
BRANCH  11  12
ATOM     12  N   UNL     1      15.797  -7.820  26.561  0.00  0.00    +0.000 NA
ATOM     13  C   UNL     1      15.012  -8.423  25.716  0.00  0.00    +0.000 C 
ATOM     14  N   UNL     1      15.483  -8.832  24.428  0.00  0.00    +0.000 NA
BRANCH  13  15
ATOM     15  S   UNL     1      13.303  -8.783  26.098  0.00  0.00    +0.000 S 
ATOM     16  C   UNL     1      12.235  -8.261  24.712  0.00  0.00    +0.000 C 
ENDBRANCH  13  15
ENDBRANCH  11  12
BRANCH   1  18
ATOM     17  C   UNL     1      23.811  -6.238  24.348  0.00  0.00    +0.000 C 
ATOM     18  O   UNL     1      23.314  -7.427  24.892  0.00  0.00    +0.000 OA
ENDBRANCH   1  18
TORSDOF 3
ENDMDL
MODEL 10
REMARK VINA RESULT:      -5.0     18.870     20.444
REMARK  Name = 
REMARK  3 active torsions:
REMARK  status: ('A' for Active; 'I' for Inactive)
REMARK    1  A    between atoms: O_2  and  C_3
REMARK    2  A    between atoms: N_13  and  N_14
REMARK    3  A    between atoms: C_15  and  S_17
REMARK                            x       y       z     vdW  Elec       q    Type
REMARK                         _______ _______ _______ _____ _____    ______ ____
ROOT
ATOM      1  C   UNL     1      28.904  25.100  21.484  0.00  0.00    +0.000 A 
ATOM      2  C   UNL     1      29.055  23.808  21.959  0.00  0.00    +0.000 A 
ATOM      3  C   UNL     1      28.451  23.438  23.150  0.00  0.00    +0.000 A 
ATOM      4  C   UNL     1      27.711  24.383  23.828  0.00  0.00    +0.000 A 
ATOM      5  C   UNL     1      27.547  25.674  23.374  0.00  0.00    +0.000 A 
ATOM      6  C   UNL     1      28.159  26.034  22.176  0.00  0.00    +0.000 A 
ATOM      7  C   UNL     1      26.739  26.597  24.177  0.00  0.00    +0.000 C 
ATOM      8  C   UNL     1      25.514  25.961  24.776  0.00  0.00    +0.000 C 
ATOM      9  C   UNL     1      25.819  24.680  25.510  0.00  0.00    +0.000 C 
ATOM     10  C   UNL     1      27.059  24.036  25.085  0.00  0.00    +0.000 C 
ATOM     11  N   UNL     1      27.568  23.137  25.860  0.00  0.00    +0.000 NA
ENDROOT
BRANCH  11  12
ATOM     12  N   UNL     1      26.944  22.793  27.078  0.00  0.00    +0.000 NA
ATOM     13  C   UNL     1      27.741  22.727  28.105  0.00  0.00    +0.000 C 
ATOM     14  N   UNL     1      29.141  22.989  27.976  0.00  0.00    +0.000 NA
BRANCH  13  15
ATOM     15  S   UNL     1      27.150  22.308  29.739  0.00  0.00    +0.000 S 
ATOM     16  C   UNL     1      26.430  23.785  30.535  0.00  0.00    +0.000 C 
ENDBRANCH  13  15
ENDBRANCH  11  12
BRANCH   1  18
ATOM     17  C   UNL     1      29.805  26.745  19.896  0.00  0.00    +0.000 C 
ATOM     18  O   UNL     1      29.509  25.441  20.306  0.00  0.00    +0.000 OA
ENDBRANCH   1  18
TORSDOF 3
ENDMDL
