MODEL 1
REMARK VINA RESULT:      -7.1      0.000      0.000
REMARK  Name = 
REMARK  3 active torsions:
REMARK  status: ('A' for Active; 'I' for Inactive)
REMARK    1  A    between atoms: O_2  and  C_3
REMARK    2  A    between atoms: C_8  and  N_9
REMARK    3  A    between atoms: N_9  and  C_10
REMARK                            x       y       z     vdW  Elec       q    Type
REMARK                         _______ _______ _______ _____ _____    ______ ____
ROOT
ATOM      1  C   UNL     1      28.603  24.089  21.910  0.00  0.00    +0.000 A 
ATOM      2  C   UNL     1      27.236  23.987  21.762  0.00  0.00    +0.000 A 
ATOM      3  C   UNL     1      26.390  23.545  22.756  0.00  0.00    +0.000 A 
ATOM      4  C   UNL     1      26.936  23.182  23.969  0.00  0.00    +0.000 A 
ATOM      5  C   UNL     1      28.288  23.270  24.153  0.00  0.00    +0.000 A 
ATOM      6  C   UNL     1      28.799  22.899  25.382  0.00  0.00    +0.000 A 
ATOM      7  C   UNL     1      30.165  22.994  25.547  0.00  0.00    +0.000 A 
ATOM      8  C   UNL     1      30.996  23.440  24.539  0.00  0.00    +0.000 A 
ATOM      9  C   UNL     1      32.478  23.534  24.747  0.00  0.00    +0.000 C 
ATOM     10  N   UNL     1      30.447  23.789  23.362  0.00  0.00    +0.000 NA
ATOM     11  C   UNL     1      29.129  23.723  23.129  0.00  0.00    +0.000 A 
ENDROOT
BRANCH   1  13
ATOM     12  C   UNL     1      29.521  25.870  20.481  0.00  0.00    +0.000 C 
ATOM     13  O   UNL     1      29.464  24.530  20.927  0.00  0.00    +0.000 OA
ENDBRANCH   1  13
BRANCH   6  14
ATOM     14  N   UNL     1      27.915  22.443  26.400  0.00  0.00    +0.000 NA
BRANCH  14  15
ATOM     15  C   UNL     1      27.510  23.315  27.448  0.00  0.00    +0.000 A 
ATOM     16  C   UNL     1      27.683  24.691  27.387  0.00  0.00    +0.000 A 
ATOM     17  C   UNL     1      27.246  25.422  28.470  0.00  0.00    +0.000 A 
ATOM     18  C   UNL     1      26.660  24.851  29.580  0.00  0.00    +0.000 A 
ATOM     19  C   UNL     1      26.488  23.481  29.635  0.00  0.00    +0.000 A 
ATOM     20  O   UNL     1      25.913  22.826  30.701  0.00  0.00    +0.000 OA
ATOM     21  C   UNL     1      26.924  22.744  28.553  0.00  0.00    +0.000 A 
ENDBRANCH  14  15
ENDBRANCH   6  14
TORSDOF 3
ENDMDL
MODEL 2
REMARK VINA RESULT:      -6.6      1.972      6.921
REMARK  Name = 
REMARK  3 active torsions:
REMARK  status: ('A' for Active; 'I' for Inactive)
REMARK    1  A    between atoms: O_2  and  C_3
REMARK    2  A    between atoms: C_8  and  N_9
REMARK    3  A    between atoms: N_9  and  C_10
REMARK                            x       y       z     vdW  Elec       q    Type
REMARK                         _______ _______ _______ _____ _____    ______ ____
ROOT
ATOM      1  C   UNL     1      25.724  24.479  30.018  0.00  0.00    +0.000 A 
ATOM      2  C   UNL     1      26.521  23.592  30.708  0.00  0.00    +0.000 A 
ATOM      3  C   UNL     1      27.321  22.647  30.100  0.00  0.00    +0.000 A 
ATOM      4  C   UNL     1      27.326  22.582  28.722  0.00  0.00    +0.000 A 
ATOM      5  C   UNL     1      26.548  23.447  28.003  0.00  0.00    +0.000 A 
ATOM      6  C   UNL     1      26.580  23.353  26.625  0.00  0.00    +0.000 A 
ATOM      7  C   UNL     1      25.788  24.233  25.918  0.00  0.00    +0.000 A 
ATOM      8  C   UNL     1      24.995  25.172  26.546  0.00  0.00    +0.000 A 
ATOM      9  C   UNL     1      24.144  26.117  25.752  0.00  0.00    +0.000 C 
ATOM     10  N   UNL     1      25.001  25.221  27.891  0.00  0.00    +0.000 NA
ATOM     11  C   UNL     1      25.744  24.399  28.642  0.00  0.00    +0.000 A 
ENDROOT
BRANCH   1  13
ATOM     12  C   UNL     1      25.320  26.211  31.717  0.00  0.00    +0.000 C 
ATOM     13  O   UNL     1      24.920  25.429  30.610  0.00  0.00    +0.000 OA
ENDBRANCH   1  13
BRANCH   6  14
ATOM     14  N   UNL     1      27.409  22.374  26.009  0.00  0.00    +0.000 NA
BRANCH  14  15
ATOM     15  C   UNL     1      28.678  22.732  25.476  0.00  0.00    +0.000 A 
ATOM     16  C   UNL     1      29.859  22.592  26.194  0.00  0.00    +0.000 A 
ATOM     17  C   UNL     1      31.020  22.977  25.562  0.00  0.00    +0.000 A 
ATOM     18  C   UNL     1      31.052  23.481  24.279  0.00  0.00    +0.000 A 
ATOM     19  C   UNL     1      29.874  23.617  23.568  0.00  0.00    +0.000 A 
ATOM     20  O   UNL     1      29.810  24.109  22.284  0.00  0.00    +0.000 OA
ATOM     21  C   UNL     1      28.708  23.233  24.196  0.00  0.00    +0.000 A 
ENDBRANCH  14  15
ENDBRANCH   6  14
TORSDOF 3
ENDMDL
MODEL 3
REMARK VINA RESULT:      -6.6      2.148      3.693
REMARK  Name = 
REMARK  3 active torsions:
REMARK  status: ('A' for Active; 'I' for Inactive)
REMARK    1  A    between atoms: O_2  and  C_3
REMARK    2  A    between atoms: C_8  and  N_9
REMARK    3  A    between atoms: N_9  and  C_10
REMARK                            x       y       z     vdW  Elec       q    Type
REMARK                         _______ _______ _______ _____ _____    ______ ____
ROOT
ATOM      1  C   UNL     1      31.273  23.102  25.057  0.00  0.00    +0.000 A 
ATOM      2  C   UNL     1      31.121  22.512  26.293  0.00  0.00    +0.000 A 
ATOM      3  C   UNL     1      29.897  22.222  26.858  0.00  0.00    +0.000 A 
ATOM      4  C   UNL     1      28.757  22.540  26.150  0.00  0.00    +0.000 A 
ATOM      5  C   UNL     1      28.868  23.126  24.920  0.00  0.00    +0.000 A 
ATOM      6  C   UNL     1      27.704  23.429  24.240  0.00  0.00    +0.000 A 
ATOM      7  C   UNL     1      27.838  24.020  23.002  0.00  0.00    +0.000 A 
ATOM      8  C   UNL     1      29.072  24.301  22.453  0.00  0.00    +0.000 A 
ATOM      9  C   UNL     1      29.188  24.945  21.103  0.00  0.00    +0.000 C 
ATOM     10  N   UNL     1      30.175  23.986  23.157  0.00  0.00    +0.000 NA
ATOM     11  C   UNL     1      30.122  23.410  24.365  0.00  0.00    +0.000 A 
ENDROOT
BRANCH   1  13
ATOM     12  C   UNL     1      33.346  24.422  24.940  0.00  0.00    +0.000 C 
ATOM     13  O   UNL     1      32.489  23.398  24.478  0.00  0.00    +0.000 OA
ENDBRANCH   1  13
BRANCH   6  14
ATOM     14  N   UNL     1      26.447  23.125  24.833  0.00  0.00    +0.000 NA
BRANCH  14  15
ATOM     15  C   UNL     1      25.718  24.126  25.533  0.00  0.00    +0.000 A 
ATOM     16  C   UNL     1      25.000  25.122  24.884  0.00  0.00    +0.000 A 
ATOM     17  C   UNL     1      24.337  26.030  25.680  0.00  0.00    +0.000 A 
ATOM     18  C   UNL     1      24.359  25.986  27.058  0.00  0.00    +0.000 A 
ATOM     19  C   UNL     1      25.074  24.991  27.699  0.00  0.00    +0.000 A 
ATOM     20  O   UNL     1      25.151  24.869  29.068  0.00  0.00    +0.000 OA
ATOM     21  C   UNL     1      25.740  24.079  26.907  0.00  0.00    +0.000 A 
ENDBRANCH  14  15
ENDBRANCH   6  14
TORSDOF 3
ENDMDL
MODEL 4
REMARK VINA RESULT:      -6.4     12.942     16.040
REMARK  Name = 
REMARK  3 active torsions:
REMARK  status: ('A' for Active; 'I' for Inactive)
REMARK    1  A    between atoms: O_2  and  C_3
REMARK    2  A    between atoms: C_8  and  N_9
REMARK    3  A    between atoms: N_9  and  C_10
REMARK                            x       y       z     vdW  Elec       q    Type
REMARK                         _______ _______ _______ _____ _____    ______ ____
ROOT
ATOM      1  C   UNL     1      32.346  21.239   6.816  0.00  0.00    +0.000 A 
ATOM      2  C   UNL     1      31.264  20.453   6.485  0.00  0.00    +0.000 A 
ATOM      3  C   UNL     1      30.312  20.038   7.393  0.00  0.00    +0.000 A 
ATOM      4  C   UNL     1      30.446  20.430   8.708  0.00  0.00    +0.000 A 
ATOM      5  C   UNL     1      31.507  21.211   9.075  0.00  0.00    +0.000 A 
ATOM      6  C   UNL     1      31.608  21.584  10.401  0.00  0.00    +0.000 A 
ATOM      7  C   UNL     1      32.686  22.370  10.750  0.00  0.00    +0.000 A 
ATOM      8  C   UNL     1      33.628  22.775   9.826  0.00  0.00    +0.000 A 
ATOM      9  C   UNL     1      34.790  23.632  10.234  0.00  0.00    +0.000 C 
ATOM     10  N   UNL     1      33.482  22.384   8.547  0.00  0.00    +0.000 NA
ATOM     11  C   UNL     1      32.462  21.620   8.135  0.00  0.00    +0.000 A 
ENDROOT
BRANCH   1  13
ATOM     12  C   UNL     1      34.267  20.803   5.342  0.00  0.00    +0.000 C 
ATOM     13  O   UNL     1      33.306  21.662   5.922  0.00  0.00    +0.000 OA
ENDBRANCH   1  13
BRANCH   6  14
ATOM     14  N   UNL     1      30.620  21.150  11.328  0.00  0.00    +0.000 NA
BRANCH  14  15
ATOM     15  C   UNL     1      29.663  22.066  11.846  0.00  0.00    +0.000 A 
ATOM     16  C   UNL     1      29.952  22.946  12.881  0.00  0.00    +0.000 A 
ATOM     17  C   UNL     1      28.936  23.781  13.289  0.00  0.00    +0.000 A 
ATOM     18  C   UNL     1      27.679  23.775  12.723  0.00  0.00    +0.000 A 
ATOM     19  C   UNL     1      27.396  22.897  11.693  0.00  0.00    +0.000 A 
ATOM     20  O   UNL     1      26.171  22.822  11.070  0.00  0.00    +0.000 OA
ATOM     21  C   UNL     1      28.410  22.059  11.280  0.00  0.00    +0.000 A 
ENDBRANCH  14  15
ENDBRANCH   6  14
TORSDOF 3
ENDMDL
MODEL 5
REMARK VINA RESULT:      -6.3      2.604      6.270
REMARK  Name = 
REMARK  3 active torsions:
REMARK  status: ('A' for Active; 'I' for Inactive)
REMARK    1  A    between atoms: O_2  and  C_3
REMARK    2  A    between atoms: C_8  and  N_9
REMARK    3  A    between atoms: N_9  and  C_10
REMARK                            x       y       z     vdW  Elec       q    Type
REMARK                         _______ _______ _______ _____ _____    ______ ____
ROOT
ATOM      1  C   UNL     1      24.212  26.314  27.322  0.00  0.00    +0.000 A 
ATOM      2  C   UNL     1      23.947  26.539  25.988  0.00  0.00    +0.000 A 
ATOM      3  C   UNL     1      24.469  25.777  24.964  0.00  0.00    +0.000 A 
ATOM      4  C   UNL     1      25.304  24.729  25.288  0.00  0.00    +0.000 A 
ATOM      5  C   UNL     1      25.590  24.474  26.600  0.00  0.00    +0.000 A 
ATOM      6  C   UNL     1      26.430  23.414  26.886  0.00  0.00    +0.000 A 
ATOM      7  C   UNL     1      26.706  23.175  28.215  0.00  0.00    +0.000 A 
ATOM      8  C   UNL     1      26.173  23.949  29.226  0.00  0.00    +0.000 A 
ATOM      9  C   UNL     1      26.491  23.665  30.664  0.00  0.00    +0.000 C 
ATOM     10  N   UNL     1      25.361  24.969  28.893  0.00  0.00    +0.000 NA
ATOM     11  C   UNL     1      25.048  25.261  27.624  0.00  0.00    +0.000 A 
ENDROOT
BRANCH   1  13
ATOM     12  C   UNL     1      22.335  27.060  28.726  0.00  0.00    +0.000 C 
ATOM     13  O   UNL     1      23.699  27.065  28.357  0.00  0.00    +0.000 OA
ENDBRANCH   1  13
BRANCH   6  14
ATOM     14  N   UNL     1      26.962  22.635  25.821  0.00  0.00    +0.000 NA
BRANCH  14  15
ATOM     15  C   UNL     1      28.314  22.798  25.412  0.00  0.00    +0.000 A 
ATOM     16  C   UNL     1      29.388  22.439  26.215  0.00  0.00    +0.000 A 
ATOM     17  C   UNL     1      30.648  22.648  25.699  0.00  0.00    +0.000 A 
ATOM     18  C   UNL     1      30.874  23.186  24.450  0.00  0.00    +0.000 A 
ATOM     19  C   UNL     1      29.801  23.540  23.653  0.00  0.00    +0.000 A 
ATOM     20  O   UNL     1      29.932  24.082  22.394  0.00  0.00    +0.000 OA
ATOM     21  C   UNL     1      28.537  23.333  24.165  0.00  0.00    +0.000 A 
ENDBRANCH  14  15
ENDBRANCH   6  14
TORSDOF 3
ENDMDL
MODEL 6
REMARK VINA RESULT:      -6.3      1.723      6.267
REMARK  Name = 
REMARK  3 active torsions:
REMARK  status: ('A' for Active; 'I' for Inactive)
REMARK    1  A    between atoms: O_2  and  C_3
REMARK    2  A    between atoms: C_8  and  N_9
REMARK    3  A    between atoms: N_9  and  C_10
REMARK                            x       y       z     vdW  Elec       q    Type
REMARK                         _______ _______ _______ _____ _____    ______ ____
ROOT
ATOM      1  C   UNL     1      26.703  24.183  29.087  0.00  0.00    +0.000 A 
ATOM      2  C   UNL     1      25.468  24.736  28.826  0.00  0.00    +0.000 A 
ATOM      3  C   UNL     1      24.917  24.819  27.565  0.00  0.00    +0.000 A 
ATOM      4  C   UNL     1      25.639  24.322  26.501  0.00  0.00    +0.000 A 
ATOM      5  C   UNL     1      26.868  23.765  26.721  0.00  0.00    +0.000 A 
ATOM      6  C   UNL     1      27.562  23.276  25.630  0.00  0.00    +0.000 A 
ATOM      7  C   UNL     1      28.799  22.719  25.873  0.00  0.00    +0.000 A 
ATOM      8  C   UNL     1      29.333  22.645  27.144  0.00  0.00    +0.000 A 
ATOM      9  C   UNL     1      30.683  22.033  27.379  0.00  0.00    +0.000 C 
ATOM     10  N   UNL     1      28.616  23.136  28.171  0.00  0.00    +0.000 NA
ATOM     11  C   UNL     1      27.408  23.690  28.011  0.00  0.00    +0.000 A 
ENDROOT
BRANCH   1  13
ATOM     12  C   UNL     1      27.495  25.207  31.179  0.00  0.00    +0.000 C 
ATOM     13  O   UNL     1      27.268  24.092  30.341  0.00  0.00    +0.000 OA
ENDBRANCH   1  13
BRANCH   6  14
ATOM     14  N   UNL     1      26.983  23.367  24.333  0.00  0.00    +0.000 NA
BRANCH  14  15
ATOM     15  C   UNL     1      27.402  24.378  23.424  0.00  0.00    +0.000 A 
ATOM     16  C   UNL     1      26.910  25.675  23.467  0.00  0.00    +0.000 A 
ATOM     17  C   UNL     1      27.399  26.557  22.529  0.00  0.00    +0.000 A 
ATOM     18  C   UNL     1      28.334  26.208  21.578  0.00  0.00    +0.000 A 
ATOM     19  C   UNL     1      28.822  24.915  21.540  0.00  0.00    +0.000 A 
ATOM     20  O   UNL     1      29.755  24.479  20.628  0.00  0.00    +0.000 OA
ATOM     21  C   UNL     1      28.336  24.028  22.477  0.00  0.00    +0.000 A 
ENDBRANCH  14  15
ENDBRANCH   6  14
TORSDOF 3
ENDMDL
MODEL 7
REMARK VINA RESULT:      -6.2     18.164     19.605
REMARK  Name = 
REMARK  3 active torsions:
REMARK  status: ('A' for Active; 'I' for Inactive)
REMARK    1  A    between atoms: O_2  and  C_3
REMARK    2  A    between atoms: C_8  and  N_9
REMARK    3  A    between atoms: N_9  and  C_10
REMARK                            x       y       z     vdW  Elec       q    Type
REMARK                         _______ _______ _______ _____ _____    ______ ____
ROOT
ATOM      1  C   UNL     1      23.696  11.394  37.391  0.00  0.00    +0.000 A 
ATOM      2  C   UNL     1      23.869  10.224  36.682  0.00  0.00    +0.000 A 
ATOM      3  C   UNL     1      22.846   9.344  36.397  0.00  0.00    +0.000 A 
ATOM      4  C   UNL     1      21.578   9.647  36.844  0.00  0.00    +0.000 A 
ATOM      5  C   UNL     1      21.368  10.799  37.550  0.00  0.00    +0.000 A 
ATOM      6  C   UNL     1      20.083  11.069  37.981  0.00  0.00    +0.000 A 
ATOM      7  C   UNL     1      19.893  12.235  38.692  0.00  0.00    +0.000 A 
ATOM      8  C   UNL     1      20.929  13.103  38.967  0.00  0.00    +0.000 A 
ATOM      9  C   UNL     1      20.693  14.365  39.742  0.00  0.00    +0.000 C 
ATOM     10  N   UNL     1      22.162  12.793  38.524  0.00  0.00    +0.000 NA
ATOM     11  C   UNL     1      22.421  11.678  37.828  0.00  0.00    +0.000 A 
ENDROOT
BRANCH   1  13
ATOM     12  C   UNL     1      25.816  11.967  38.502  0.00  0.00    +0.000 C 
ATOM     13  O   UNL     1      24.707  12.284  37.685  0.00  0.00    +0.000 OA
ENDBRANCH   1  13
BRANCH   6  14
ATOM     14  N   UNL     1      19.036  10.153  37.680  0.00  0.00    +0.000 NA
BRANCH  14  15
ATOM     15  C   UNL     1      17.955  10.541  36.842  0.00  0.00    +0.000 A 
ATOM     16  C   UNL     1      16.828  11.193  37.326  0.00  0.00    +0.000 A 
ATOM     17  C   UNL     1      15.853  11.514  36.407  0.00  0.00    +0.000 A 
ATOM     18  C   UNL     1      15.953  11.219  35.064  0.00  0.00    +0.000 A 
ATOM     19  C   UNL     1      17.077  10.571  34.587  0.00  0.00    +0.000 A 
ATOM     20  O   UNL     1      17.262  10.238  33.264  0.00  0.00    +0.000 OA
ATOM     21  C   UNL     1      18.057  10.247  35.503  0.00  0.00    +0.000 A 
ENDBRANCH  14  15
ENDBRANCH   6  14
TORSDOF 3
ENDMDL
MODEL 8
REMARK VINA RESULT:      -6.0      2.869      7.676
REMARK  Name = 
REMARK  3 active torsions:
REMARK  status: ('A' for Active; 'I' for Inactive)
REMARK    1  A    between atoms: O_2  and  C_3
REMARK    2  A    between atoms: C_8  and  N_9
REMARK    3  A    between atoms: N_9  and  C_10
REMARK                            x       y       z     vdW  Elec       q    Type
REMARK                         _______ _______ _______ _____ _____    ______ ____
ROOT
ATOM      1  C   UNL     1      25.265  25.972  31.625  0.00  0.00    +0.000 A 
ATOM      2  C   UNL     1      24.745  27.197  31.266  0.00  0.00    +0.000 A 
ATOM      3  C   UNL     1      24.493  27.570  29.963  0.00  0.00    +0.000 A 
ATOM      4  C   UNL     1      24.777  26.670  28.958  0.00  0.00    +0.000 A 
ATOM      5  C   UNL     1      25.294  25.444  29.275  0.00  0.00    +0.000 A 
ATOM      6  C   UNL     1      25.564  24.568  28.241  0.00  0.00    +0.000 A 
ATOM      7  C   UNL     1      26.085  23.339  28.582  0.00  0.00    +0.000 A 
ATOM      8  C   UNL     1      26.330  22.984  29.893  0.00  0.00    +0.000 A 
ATOM      9  C   UNL     1      26.897  21.638  30.235  0.00  0.00    +0.000 C 
ATOM     10  N   UNL     1      26.049  23.874  30.862  0.00  0.00    +0.000 NA
ATOM     11  C   UNL     1      25.541  25.087  30.606  0.00  0.00    +0.000 A 
ENDROOT
BRANCH   1  13
ATOM     12  C   UNL     1      25.179  26.358  34.054  0.00  0.00    +0.000 C 
ATOM     13  O   UNL     1      25.523  25.584  32.922  0.00  0.00    +0.000 OA
ENDBRANCH   1  13
BRANCH   6  14
ATOM     14  N   UNL     1      25.300  24.965  26.900  0.00  0.00    +0.000 NA
BRANCH  14  15
ATOM     15  C   UNL     1      26.092  24.465  25.829  0.00  0.00    +0.000 A 
ATOM     16  C   UNL     1      27.478  24.540  25.825  0.00  0.00    +0.000 A 
ATOM     17  C   UNL     1      28.125  24.018  24.726  0.00  0.00    +0.000 A 
ATOM     18  C   UNL     1      27.465  23.441  23.663  0.00  0.00    +0.000 A 
ATOM     19  C   UNL     1      26.084  23.368  23.673  0.00  0.00    +0.000 A 
ATOM     20  O   UNL     1      25.342  22.810  22.656  0.00  0.00    +0.000 OA
ATOM     21  C   UNL     1      25.431  23.889  24.770  0.00  0.00    +0.000 A 
ENDBRANCH  14  15
ENDBRANCH   6  14
TORSDOF 3
ENDMDL
MODEL 9
REMARK VINA RESULT:      -5.9     18.069     20.408
REMARK  Name = 
REMARK  3 active torsions:
REMARK  status: ('A' for Active; 'I' for Inactive)
REMARK    1  A    between atoms: O_2  and  C_3
REMARK    2  A    between atoms: C_8  and  N_9
REMARK    3  A    between atoms: N_9  and  C_10
REMARK                            x       y       z     vdW  Elec       q    Type
REMARK                         _______ _______ _______ _____ _____    ______ ____
ROOT
ATOM      1  C   UNL     1      24.142  11.320  37.294  0.00  0.00    +0.000 A 
ATOM      2  C   UNL     1      24.328  10.137  36.611  0.00  0.00    +0.000 A 
ATOM      3  C   UNL     1      23.313   9.246  36.333  0.00  0.00    +0.000 A 
ATOM      4  C   UNL     1      22.038   9.550  36.760  0.00  0.00    +0.000 A 
ATOM      5  C   UNL     1      21.814  10.715  37.440  0.00  0.00    +0.000 A 
ATOM      6  C   UNL     1      20.524  10.987  37.851  0.00  0.00    +0.000 A 
ATOM      7  C   UNL     1      20.319  12.166  38.536  0.00  0.00    +0.000 A 
ATOM      8  C   UNL     1      21.349  13.045  38.805  0.00  0.00    +0.000 A 
ATOM      9  C   UNL     1      21.097  14.322  39.551  0.00  0.00    +0.000 C 
ATOM     10  N   UNL     1      22.587  12.733  38.382  0.00  0.00    +0.000 NA
ATOM     11  C   UNL     1      22.860  11.606  37.711  0.00  0.00    +0.000 A 
ENDROOT
BRANCH   1  13
ATOM     12  C   UNL     1      26.085  12.041  38.620  0.00  0.00    +0.000 C 
ATOM     13  O   UNL     1      25.144  12.222  37.580  0.00  0.00    +0.000 OA
ENDBRANCH   1  13
BRANCH   6  14
ATOM     14  N   UNL     1      19.485  10.059  37.558  0.00  0.00    +0.000 NA
BRANCH  14  15
ATOM     15  C   UNL     1      18.657   9.549  38.596  0.00  0.00    +0.000 A 
ATOM     16  C   UNL     1      17.411  10.085  38.892  0.00  0.00    +0.000 A 
ATOM     17  C   UNL     1      16.710   9.497  39.922  0.00  0.00    +0.000 A 
ATOM     18  C   UNL     1      17.188   8.426  40.647  0.00  0.00    +0.000 A 
ATOM     19  C   UNL     1      18.429   7.895  40.348  0.00  0.00    +0.000 A 
ATOM     20  O   UNL     1      18.985   6.829  41.017  0.00  0.00    +0.000 OA
ATOM     21  C   UNL     1      19.135   8.480  39.317  0.00  0.00    +0.000 A 
ENDBRANCH  14  15
ENDBRANCH   6  14
TORSDOF 3
ENDMDL
MODEL 10
REMARK VINA RESULT:      -5.9     12.912     15.956
REMARK  Name = 
REMARK  3 active torsions:
REMARK  status: ('A' for Active; 'I' for Inactive)
REMARK    1  A    between atoms: O_2  and  C_3
REMARK    2  A    between atoms: C_8  and  N_9
REMARK    3  A    between atoms: N_9  and  C_10
REMARK                            x       y       z     vdW  Elec       q    Type
REMARK                         _______ _______ _______ _____ _____    ______ ____
ROOT
ATOM      1  C   UNL     1      28.085  22.330  11.573  0.00  0.00    +0.000 A 
ATOM      2  C   UNL     1      28.216  23.004  12.768  0.00  0.00    +0.000 A 
ATOM      3  C   UNL     1      29.424  23.216  13.399  0.00  0.00    +0.000 A 
ATOM      4  C   UNL     1      30.568  22.728  12.804  0.00  0.00    +0.000 A 
ATOM      5  C   UNL     1      30.477  22.054  11.618  0.00  0.00    +0.000 A 
ATOM      6  C   UNL     1      31.645  21.580  11.051  0.00  0.00    +0.000 A 
ATOM      7  C   UNL     1      31.532  20.903   9.856  0.00  0.00    +0.000 A 
ATOM      8  C   UNL     1      30.313  20.702   9.240  0.00  0.00    +0.000 A 
ATOM      9  C   UNL     1      30.220  19.962   7.938  0.00  0.00    +0.000 C 
ATOM     10  N   UNL     1      29.206  21.184   9.833  0.00  0.00    +0.000 NA
ATOM     11  C   UNL     1      29.239  21.851  10.994  0.00  0.00    +0.000 A 
ENDROOT
BRANCH   1  13
ATOM     12  C   UNL     1      25.800  23.015  10.967  0.00  0.00    +0.000 C 
ATOM     13  O   UNL     1      26.886  22.110  10.929  0.00  0.00    +0.000 OA
ENDBRANCH   1  13
BRANCH   6  14
ATOM     14  N   UNL     1      32.885  21.805  11.712  0.00  0.00    +0.000 NA
BRANCH  14  15
ATOM     15  C   UNL     1      34.115  21.508  11.061  0.00  0.00    +0.000 A 
ATOM     16  C   UNL     1      34.690  22.356  10.124  0.00  0.00    +0.000 A 
ATOM     17  C   UNL     1      35.884  21.951   9.569  0.00  0.00    +0.000 A 
ATOM     18  C   UNL     1      36.510  20.768   9.901  0.00  0.00    +0.000 A 
ATOM     19  C   UNL     1      35.933  19.928  10.836  0.00  0.00    +0.000 A 
ATOM     20  O   UNL     1      36.486  18.730  11.228  0.00  0.00    +0.000 OA
ATOM     21  C   UNL     1      34.738  20.329  11.395  0.00  0.00    +0.000 A 
ENDBRANCH  14  15
ENDBRANCH   6  14
TORSDOF 3
ENDMDL
