MODEL 1
REMARK VINA RESULT:      -8.8      0.000      0.000
REMARK  Name = 
REMARK  5 active torsions:
REMARK  status: ('A' for Active; 'I' for Inactive)
REMARK    1  A    between atoms: O_2  and  C_3
REMARK    2  A    between atoms: C_8  and  N_9
REMARK    3  A    between atoms: C_10  and  C_12
REMARK    4  A    between atoms: C_13  and  N_14
REMARK    5  A    between atoms: C_15  and  C_17
REMARK                            x       y       z     vdW  Elec       q    Type
REMARK                         _______ _______ _______ _____ _____    ______ ____
ROOT
ATOM      1  C   UNL     1      37.012   4.462  15.481  0.00  0.00    +0.000 A 
ATOM      2  C   UNL     1      36.229   3.378  15.704  0.00  0.00    +0.000 A 
ATOM      3  S   UNL     1      34.851   3.733  14.638  0.00  0.00    +0.000 S 
ATOM      4  C   UNL     1      35.362   5.189  14.000  0.00  0.00    +0.000 A 
ATOM      5  C   UNL     1      36.559   5.398  14.593  0.00  0.00    +0.000 A 
ATOM      6  C   UNL     1      37.222   6.703  14.140  0.00  0.00    +0.000 C 
ATOM      7  C   UNL     1      36.199   7.777  14.477  0.00  0.00    +0.000 C 
ATOM      8  C   UNL     1      34.891   7.542  13.758  0.00  0.00    +0.000 C 
ATOM      9  C   UNL     1      34.871   6.231  13.020  0.00  0.00    +0.000 C 
ENDROOT
BRANCH   1  11
ATOM     10  N   UNL     1      38.457   5.927  16.995  0.00  0.00    +0.000 NA
ATOM     11  C   UNL     1      38.255   4.724  16.265  0.00  0.00    +0.000 C 
ATOM     12  O   UNL     1      39.154   3.901  16.304  0.00  0.00    +0.000 OA
BRANCH  10  18
ATOM     13  C   UNL     1      40.812   6.577  17.162  0.00  0.00    +0.000 A 
ATOM     14  C   UNL     1      41.947   6.786  17.909  0.00  0.00    +0.000 A 
ATOM     15  C   UNL     1      41.895   6.552  19.289  0.00  0.00    +0.000 A 
ATOM     16  C   UNL     1      40.735   6.123  19.892  0.00  0.00    +0.000 A 
ATOM     17  C   UNL     1      39.624   5.929  19.097  0.00  0.00    +0.000 A 
ATOM     18  C   UNL     1      39.661   6.156  17.738  0.00  0.00    +0.000 A 
BRANCH  13  20
ATOM     19  C   UNL     1      41.609   6.059  14.892  0.00  0.00    +0.000 C 
ATOM     20  O   UNL     1      40.850   6.803  15.810  0.00  0.00    +0.000 OA
ENDBRANCH  13  20
ENDBRANCH  10  18
ENDBRANCH   1  11
BRANCH   2  21
ATOM     21  N   UNL     1      36.279   2.163  16.349  0.00  0.00    +0.000 NA
ATOM     22  C   UNL     1      35.614   1.173  16.936  0.00  0.00    +0.000 C 
ATOM     23  O   UNL     1      34.371   1.243  17.043  0.00  0.00    +0.000 OA
BRANCH  22  24
ATOM     24  C   UNL     1      36.231  -0.057  17.501  0.00  0.00    +0.000 A 
ATOM     25  C   UNL     1      36.432  -0.133  18.848  0.00  0.00    +0.000 A 
ATOM     26  C   UNL     1      37.009  -1.274  19.422  0.00  0.00    +0.000 A 
ATOM     27  C   UNL     1      37.375  -2.325  18.601  0.00  0.00    +0.000 A 
ATOM     28  C   UNL     1      37.181  -2.265  17.237  0.00  0.00    +0.000 A 
ATOM     29  C   UNL     1      37.553  -3.327  16.428  0.00  0.00    +0.000 A 
ATOM     30  C   UNL     1      37.327  -3.193  15.072  0.00  0.00    +0.000 A 
ATOM     31  C   UNL     1      36.757  -2.063  14.526  0.00  0.00    +0.000 A 
ATOM     32  C   UNL     1      36.400  -1.029  15.365  0.00  0.00    +0.000 A 
ATOM     33  C   UNL     1      36.606  -1.118  16.710  0.00  0.00    +0.000 A 
ENDBRANCH  22  24
ENDBRANCH   2  21
TORSDOF 5
ENDMDL
MODEL 2
REMARK VINA RESULT:      -8.7      3.246      8.625
REMARK  Name = 
REMARK  5 active torsions:
REMARK  status: ('A' for Active; 'I' for Inactive)
REMARK    1  A    between atoms: O_2  and  C_3
REMARK    2  A    between atoms: C_8  and  N_9
REMARK    3  A    between atoms: C_10  and  C_12
REMARK    4  A    between atoms: C_13  and  N_14
REMARK    5  A    between atoms: C_15  and  C_17
REMARK                            x       y       z     vdW  Elec       q    Type
REMARK                         _______ _______ _______ _____ _____    ______ ____
ROOT
ATOM      1  C   UNL     1      39.486   0.406  14.335  0.00  0.00    +0.000 A 
ATOM      2  C   UNL     1      39.733   1.739  14.364  0.00  0.00    +0.000 A 
ATOM      3  S   UNL     1      41.194   1.832  13.354  0.00  0.00    +0.000 S 
ATOM      4  C   UNL     1      41.373   0.216  12.975  0.00  0.00    +0.000 A 
ATOM      5  C   UNL     1      40.338  -0.379  13.609  0.00  0.00    +0.000 A 
ATOM      6  C   UNL     1      40.304  -1.896  13.389  0.00  0.00    +0.000 C 
ATOM      7  C   UNL     1      41.660  -2.375  13.888  0.00  0.00    +0.000 C 
ATOM      8  C   UNL     1      42.791  -1.728  13.123  0.00  0.00    +0.000 C 
ATOM      9  C   UNL     1      42.308  -0.664  12.176  0.00  0.00    +0.000 C 
ENDROOT
BRANCH   1  11
ATOM     10  N   UNL     1      37.058  -0.264  14.764  0.00  0.00    +0.000 NA
ATOM     11  C   UNL     1      38.421  -0.226  15.167  0.00  0.00    +0.000 C 
ATOM     12  O   UNL     1      38.690  -0.738  16.242  0.00  0.00    +0.000 OA
BRANCH  10  18
ATOM     13  C   UNL     1      35.730  -2.186  15.495  0.00  0.00    +0.000 A 
ATOM     14  C   UNL     1      34.761  -2.736  16.301  0.00  0.00    +0.000 A 
ATOM     15  C   UNL     1      34.108  -1.911  17.225  0.00  0.00    +0.000 A 
ATOM     16  C   UNL     1      34.423  -0.576  17.329  0.00  0.00    +0.000 A 
ATOM     17  C   UNL     1      35.403  -0.074  16.498  0.00  0.00    +0.000 A 
ATOM     18  C   UNL     1      36.054  -0.875  15.584  0.00  0.00    +0.000 A 
BRANCH  13  20
ATOM     19  C   UNL     1      36.555  -4.371  14.720  0.00  0.00    +0.000 C 
ATOM     20  O   UNL     1      36.377  -2.985  14.587  0.00  0.00    +0.000 OA
ENDBRANCH  13  20
ENDBRANCH  10  18
ENDBRANCH   1  11
BRANCH   2  21
ATOM     21  N   UNL     1      39.145   2.906  14.798  0.00  0.00    +0.000 NA
ATOM     22  C   UNL     1      38.230   3.485  15.569  0.00  0.00    +0.000 C 
ATOM     23  O   UNL     1      37.468   2.776  16.260  0.00  0.00    +0.000 OA
BRANCH  22  24
ATOM     24  C   UNL     1      38.018   4.951  15.693  0.00  0.00    +0.000 A 
ATOM     25  C   UNL     1      37.450   5.624  14.650  0.00  0.00    +0.000 A 
ATOM     26  C   UNL     1      37.232   7.006  14.725  0.00  0.00    +0.000 A 
ATOM     27  C   UNL     1      37.601   7.682  15.873  0.00  0.00    +0.000 A 
ATOM     28  C   UNL     1      38.177   7.020  16.937  0.00  0.00    +0.000 A 
ATOM     29  C   UNL     1      38.541   7.711  18.080  0.00  0.00    +0.000 A 
ATOM     30  C   UNL     1      39.112   6.978  19.102  0.00  0.00    +0.000 A 
ATOM     31  C   UNL     1      39.319   5.619  19.011  0.00  0.00    +0.000 A 
ATOM     32  C   UNL     1      38.942   4.967  17.856  0.00  0.00    +0.000 A 
ATOM     33  C   UNL     1      38.375   5.651  16.821  0.00  0.00    +0.000 A 
ENDBRANCH  22  24
ENDBRANCH   2  21
TORSDOF 5
ENDMDL
MODEL 3
REMARK VINA RESULT:      -8.5      3.387      8.108
REMARK  Name = 
REMARK  5 active torsions:
REMARK  status: ('A' for Active; 'I' for Inactive)
REMARK    1  A    between atoms: O_2  and  C_3
REMARK    2  A    between atoms: C_8  and  N_9
REMARK    3  A    between atoms: C_10  and  C_12
REMARK    4  A    between atoms: C_13  and  N_14
REMARK    5  A    between atoms: C_15  and  C_17
REMARK                            x       y       z     vdW  Elec       q    Type
REMARK                         _______ _______ _______ _____ _____    ______ ____
ROOT
ATOM      1  C   UNL     1      37.715  -0.696  15.170  0.00  0.00    +0.000 A 
ATOM      2  C   UNL     1      37.392   0.587  15.468  0.00  0.00    +0.000 A 
ATOM      3  S   UNL     1      35.887   0.350  16.386  0.00  0.00    +0.000 S 
ATOM      4  C   UNL     1      35.787  -1.316  16.331  0.00  0.00    +0.000 A 
ATOM      5  C   UNL     1      36.880  -1.680  15.624  0.00  0.00    +0.000 A 
ATOM      6  C   UNL     1      36.993  -3.199  15.452  0.00  0.00    +0.000 C 
ATOM      7  C   UNL     1      35.689  -3.594  14.774  0.00  0.00    +0.000 C 
ATOM      8  C   UNL     1      34.491  -3.219  15.614  0.00  0.00    +0.000 C 
ATOM      9  C   UNL     1      34.872  -2.413  16.826  0.00  0.00    +0.000 C 
ENDROOT
BRANCH   1  11
ATOM     10  N   UNL     1      40.151  -1.341  14.751  0.00  0.00    +0.000 NA
ATOM     11  C   UNL     1      38.848  -1.044  14.264  0.00  0.00    +0.000 C 
ATOM     12  O   UNL     1      38.692  -1.083  13.055  0.00  0.00    +0.000 OA
BRANCH  10  18
ATOM     13  C   UNL     1      42.092  -0.747  13.382  0.00  0.00    +0.000 A 
ATOM     14  C   UNL     1      43.109  -1.101  12.527  0.00  0.00    +0.000 A 
ATOM     15  C   UNL     1      43.234  -2.444  12.153  0.00  0.00    +0.000 A 
ATOM     16  C   UNL     1      42.361  -3.396  12.626  0.00  0.00    +0.000 A 
ATOM     17  C   UNL     1      41.358  -2.988  13.481  0.00  0.00    +0.000 A 
ATOM     18  C   UNL     1      41.223  -1.669  13.858  0.00  0.00    +0.000 A 
BRANCH  13  20
ATOM     19  C   UNL     1      41.364   1.569  12.974  0.00  0.00    +0.000 C 
ATOM     20  O   UNL     1      41.960   0.566  13.756  0.00  0.00    +0.000 OA
ENDBRANCH  13  20
ENDBRANCH  10  18
ENDBRANCH   1  11
BRANCH   2  21
ATOM     21  N   UNL     1      37.928   1.851  15.378  0.00  0.00    +0.000 NA
ATOM     22  C   UNL     1      37.715   3.162  15.309  0.00  0.00    +0.000 C 
ATOM     23  O   UNL     1      36.543   3.595  15.288  0.00  0.00    +0.000 OA
BRANCH  22  24
ATOM     24  C   UNL     1      38.777   4.201  15.251  0.00  0.00    +0.000 A 
ATOM     25  C   UNL     1      39.351   4.488  14.047  0.00  0.00    +0.000 A 
ATOM     26  C   UNL     1      40.355   5.460  13.948  0.00  0.00    +0.000 A 
ATOM     27  C   UNL     1      40.758   6.128  15.090  0.00  0.00    +0.000 A 
ATOM     28  C   UNL     1      40.189   5.850  16.315  0.00  0.00    +0.000 A 
ATOM     29  C   UNL     1      40.604   6.527  17.451  0.00  0.00    +0.000 A 
ATOM     30  C   UNL     1      39.988   6.194  18.641  0.00  0.00    +0.000 A 
ATOM     31  C   UNL     1      39.001   5.235  18.720  0.00  0.00    +0.000 A 
ATOM     32  C   UNL     1      38.617   4.584  17.567  0.00  0.00    +0.000 A 
ATOM     33  C   UNL     1      39.199   4.881  16.369  0.00  0.00    +0.000 A 
ENDBRANCH  22  24
ENDBRANCH   2  21
TORSDOF 5
ENDMDL
MODEL 4
REMARK VINA RESULT:      -8.3      2.924      7.797
REMARK  Name = 
REMARK  5 active torsions:
REMARK  status: ('A' for Active; 'I' for Inactive)
REMARK    1  A    between atoms: O_2  and  C_3
REMARK    2  A    between atoms: C_8  and  N_9
REMARK    3  A    between atoms: C_10  and  C_12
REMARK    4  A    between atoms: C_13  and  N_14
REMARK    5  A    between atoms: C_15  and  C_17
REMARK                            x       y       z     vdW  Elec       q    Type
REMARK                         _______ _______ _______ _____ _____    ______ ____
ROOT
ATOM      1  C   UNL     1      38.674   2.053  13.467  0.00  0.00    +0.000 A 
ATOM      2  C   UNL     1      38.933   3.351  13.764  0.00  0.00    +0.000 A 
ATOM      3  S   UNL     1      38.588   4.128  12.203  0.00  0.00    +0.000 S 
ATOM      4  C   UNL     1      38.147   2.784  11.315  0.00  0.00    +0.000 A 
ATOM      5  C   UNL     1      38.264   1.765  12.196  0.00  0.00    +0.000 A 
ATOM      6  C   UNL     1      37.896   0.410  11.581  0.00  0.00    +0.000 C 
ATOM      7  C   UNL     1      38.832   0.274  10.390  0.00  0.00    +0.000 C 
ATOM      8  C   UNL     1      38.639   1.401   9.402  0.00  0.00    +0.000 C 
ATOM      9  C   UNL     1      37.692   2.453   9.912  0.00  0.00    +0.000 C 
ENDROOT
BRANCH   1  11
ATOM     10  N   UNL     1      37.979  -0.024  14.782  0.00  0.00    +0.000 NA
ATOM     11  C   UNL     1      38.957   0.943  14.425  0.00  0.00    +0.000 C 
ATOM     12  O   UNL     1      40.056   0.830  14.943  0.00  0.00    +0.000 OA
BRANCH  10  18
ATOM     13  C   UNL     1      37.705  -1.165  16.932  0.00  0.00    +0.000 A 
ATOM     14  C   UNL     1      38.015  -2.192  17.791  0.00  0.00    +0.000 A 
ATOM     15  C   UNL     1      38.941  -3.158  17.376  0.00  0.00    +0.000 A 
ATOM     16  C   UNL     1      39.532  -3.086  16.136  0.00  0.00    +0.000 A 
ATOM     17  C   UNL     1      39.186  -2.036  15.312  0.00  0.00    +0.000 A 
ATOM     18  C   UNL     1      38.276  -1.078  15.707  0.00  0.00    +0.000 A 
BRANCH  13  20
ATOM     19  C   UNL     1      36.319  -0.056  18.636  0.00  0.00    +0.000 C 
ATOM     20  O   UNL     1      36.799  -0.214  17.326  0.00  0.00    +0.000 OA
ENDBRANCH  13  20
ENDBRANCH  10  18
ENDBRANCH   1  11
BRANCH   2  21
ATOM     21  N   UNL     1      39.219   4.140  14.855  0.00  0.00    +0.000 NA
ATOM     22  C   UNL     1      39.116   5.329  15.442  0.00  0.00    +0.000 C 
ATOM     23  O   UNL     1      38.539   6.262  14.845  0.00  0.00    +0.000 OA
BRANCH  22  24
ATOM     24  C   UNL     1      39.643   5.667  16.790  0.00  0.00    +0.000 A 
ATOM     25  C   UNL     1      38.816   5.544  17.869  0.00  0.00    +0.000 A 
ATOM     26  C   UNL     1      39.272   5.851  19.158  0.00  0.00    +0.000 A 
ATOM     27  C   UNL     1      40.574   6.283  19.323  0.00  0.00    +0.000 A 
ATOM     28  C   UNL     1      41.424   6.415  18.245  0.00  0.00    +0.000 A 
ATOM     29  C   UNL     1      42.727   6.848  18.427  0.00  0.00    +0.000 A 
ATOM     30  C   UNL     1      43.517   6.955  17.299  0.00  0.00    +0.000 A 
ATOM     31  C   UNL     1      43.052   6.648  16.039  0.00  0.00    +0.000 A 
ATOM     32  C   UNL     1      41.749   6.219  15.900  0.00  0.00    +0.000 A 
ATOM     33  C   UNL     1      40.933   6.099  16.987  0.00  0.00    +0.000 A 
ENDBRANCH  22  24
ENDBRANCH   2  21
TORSDOF 5
ENDMDL
MODEL 5
REMARK VINA RESULT:      -8.2      5.636      9.100
REMARK  Name = 
REMARK  5 active torsions:
REMARK  status: ('A' for Active; 'I' for Inactive)
REMARK    1  A    between atoms: O_2  and  C_3
REMARK    2  A    between atoms: C_8  and  N_9
REMARK    3  A    between atoms: C_10  and  C_12
REMARK    4  A    between atoms: C_13  and  N_14
REMARK    5  A    between atoms: C_15  and  C_17
REMARK                            x       y       z     vdW  Elec       q    Type
REMARK                         _______ _______ _______ _____ _____    ______ ____
ROOT
ATOM      1  C   UNL     1      39.043  -0.050  12.029  0.00  0.00    +0.000 A 
ATOM      2  C   UNL     1      39.027   0.579  10.828  0.00  0.00    +0.000 A 
ATOM      3  S   UNL     1      40.644   0.170  10.212  0.00  0.00    +0.000 S 
ATOM      4  C   UNL     1      41.203  -0.751  11.488  0.00  0.00    +0.000 A 
ATOM      5  C   UNL     1      40.174  -0.741  12.365  0.00  0.00    +0.000 A 
ATOM      6  C   UNL     1      40.474  -1.546  13.635  0.00  0.00    +0.000 C 
ATOM      7  C   UNL     1      41.735  -0.904  14.194  0.00  0.00    +0.000 C 
ATOM      8  C   UNL     1      42.878  -0.978  13.208  0.00  0.00    +0.000 C 
ATOM      9  C   UNL     1      42.447  -1.519  11.872  0.00  0.00    +0.000 C 
ENDROOT
BRANCH   1  11
ATOM     10  N   UNL     1      37.978   1.098  14.047  0.00  0.00    +0.000 NA
ATOM     11  C   UNL     1      37.945   0.108  13.028  0.00  0.00    +0.000 C 
ATOM     12  O   UNL     1      36.968  -0.622  13.002  0.00  0.00    +0.000 OA
BRANCH  10  18
ATOM     13  C   UNL     1      36.831   0.474  16.119  0.00  0.00    +0.000 A 
ATOM     14  C   UNL     1      35.792   0.628  17.006  0.00  0.00    +0.000 A 
ATOM     15  C   UNL     1      34.807   1.583  16.728  0.00  0.00    +0.000 A 
ATOM     16  C   UNL     1      34.871   2.356  15.591  0.00  0.00    +0.000 A 
ATOM     17  C   UNL     1      35.934   2.163  14.734  0.00  0.00    +0.000 A 
ATOM     18  C   UNL     1      36.911   1.227  14.996  0.00  0.00    +0.000 A 
BRANCH  13  20
ATOM     19  C   UNL     1      37.637  -1.847  16.260  0.00  0.00    +0.000 C 
ATOM     20  O   UNL     1      37.802  -0.458  16.382  0.00  0.00    +0.000 OA
ENDBRANCH  13  20
ENDBRANCH  10  18
ENDBRANCH   1  11
BRANCH   2  21
ATOM     21  N   UNL     1      38.148   1.248  10.006  0.00  0.00    +0.000 NA
ATOM     22  C   UNL     1      36.890   1.436   9.621  0.00  0.00    +0.000 C 
ATOM     23  O   UNL     1      35.979   0.754  10.138  0.00  0.00    +0.000 OA
BRANCH  22  24
ATOM     24  C   UNL     1      36.445   2.416   8.595  0.00  0.00    +0.000 A 
ATOM     25  C   UNL     1      36.193   3.701   8.979  0.00  0.00    +0.000 A 
ATOM     26  C   UNL     1      35.773   4.657   8.044  0.00  0.00    +0.000 A 
ATOM     27  C   UNL     1      35.615   4.279   6.723  0.00  0.00    +0.000 A 
ATOM     28  C   UNL     1      35.865   2.985   6.317  0.00  0.00    +0.000 A 
ATOM     29  C   UNL     1      35.703   2.622   4.990  0.00  0.00    +0.000 A 
ATOM     30  C   UNL     1      35.971   1.308   4.661  0.00  0.00    +0.000 A 
ATOM     31  C   UNL     1      36.384   0.382   5.593  0.00  0.00    +0.000 A 
ATOM     32  C   UNL     1      36.534   0.783   6.904  0.00  0.00    +0.000 A 
ATOM     33  C   UNL     1      36.279   2.070   7.274  0.00  0.00    +0.000 A 
ENDBRANCH  22  24
ENDBRANCH   2  21
TORSDOF 5
ENDMDL
MODEL 6
REMARK VINA RESULT:      -8.1      2.233      7.386
REMARK  Name = 
REMARK  5 active torsions:
REMARK  status: ('A' for Active; 'I' for Inactive)
REMARK    1  A    between atoms: O_2  and  C_3
REMARK    2  A    between atoms: C_8  and  N_9
REMARK    3  A    between atoms: C_10  and  C_12
REMARK    4  A    between atoms: C_13  and  N_14
REMARK    5  A    between atoms: C_15  and  C_17
REMARK                            x       y       z     vdW  Elec       q    Type
REMARK                         _______ _______ _______ _____ _____    ______ ____
ROOT
ATOM      1  C   UNL     1      37.054   6.095  14.586  0.00  0.00    +0.000 A 
ATOM      2  C   UNL     1      38.098   6.862  14.986  0.00  0.00    +0.000 A 
ATOM      3  S   UNL     1      37.373   8.483  14.908  0.00  0.00    +0.000 S 
ATOM      4  C   UNL     1      35.837   8.077  14.393  0.00  0.00    +0.000 A 
ATOM      5  C   UNL     1      35.882   6.730  14.282  0.00  0.00    +0.000 A 
ATOM      6  C   UNL     1      34.550   6.132  13.817  0.00  0.00    +0.000 C 
ATOM      7  C   UNL     1      34.272   6.826  12.492  0.00  0.00    +0.000 C 
ATOM      8  C   UNL     1      34.177   8.325  12.661  0.00  0.00    +0.000 C 
ATOM      9  C   UNL     1      34.536   8.768  14.053  0.00  0.00    +0.000 C 
ENDROOT
BRANCH   1  11
ATOM     10  N   UNL     1      37.585   3.716  15.352  0.00  0.00    +0.000 NA
ATOM     11  C   UNL     1      37.190   4.630  14.336  0.00  0.00    +0.000 C 
ATOM     12  O   UNL     1      36.965   4.160  13.233  0.00  0.00    +0.000 OA
BRANCH  10  18
ATOM     13  C   UNL     1      36.712   1.429  15.315  0.00  0.00    +0.000 A 
ATOM     14  C   UNL     1      36.871   0.090  15.045  0.00  0.00    +0.000 A 
ATOM     15  C   UNL     1      38.094  -0.349  14.524  0.00  0.00    +0.000 A 
ATOM     16  C   UNL     1      39.121   0.535  14.285  0.00  0.00    +0.000 A 
ATOM     17  C   UNL     1      38.910   1.867  14.572  0.00  0.00    +0.000 A 
ATOM     18  C   UNL     1      37.711   2.314  15.085  0.00  0.00    +0.000 A 
BRANCH  13  20
ATOM     19  C   UNL     1      34.849   1.297  16.918  0.00  0.00    +0.000 C 
ATOM     20  O   UNL     1      35.518   1.871  15.825  0.00  0.00    +0.000 OA
ENDBRANCH  13  20
ENDBRANCH  10  18
ENDBRANCH   1  11
BRANCH   2  21
ATOM     21  N   UNL     1      39.365   6.721  15.506  0.00  0.00    +0.000 NA
ATOM     22  C   UNL     1      40.521   6.066  15.488  0.00  0.00    +0.000 C 
ATOM     23  O   UNL     1      40.671   5.102  14.707  0.00  0.00    +0.000 OA
BRANCH  22  24
ATOM     24  C   UNL     1      41.699   6.382  16.339  0.00  0.00    +0.000 A 
ATOM     25  C   UNL     1      42.894   6.648  15.736  0.00  0.00    +0.000 A 
ATOM     26  C   UNL     1      44.028   6.951  16.501  0.00  0.00    +0.000 A 
ATOM     27  C   UNL     1      43.920   6.977  17.879  0.00  0.00    +0.000 A 
ATOM     28  C   UNL     1      42.721   6.710  18.506  0.00  0.00    +0.000 A 
ATOM     29  C   UNL     1      42.629   6.740  19.888  0.00  0.00    +0.000 A 
ATOM     30  C   UNL     1      41.395   6.462  20.442  0.00  0.00    +0.000 A 
ATOM     31  C   UNL     1      40.290   6.166  19.674  0.00  0.00    +0.000 A 
ATOM     32  C   UNL     1      40.423   6.147  18.301  0.00  0.00    +0.000 A 
ATOM     33  C   UNL     1      41.623   6.415  17.712  0.00  0.00    +0.000 A 
ENDBRANCH  22  24
ENDBRANCH   2  21
TORSDOF 5
ENDMDL
MODEL 7
REMARK VINA RESULT:      -8.1      3.002      8.045
REMARK  Name = 
REMARK  5 active torsions:
REMARK  status: ('A' for Active; 'I' for Inactive)
REMARK    1  A    between atoms: O_2  and  C_3
REMARK    2  A    between atoms: C_8  and  N_9
REMARK    3  A    between atoms: C_10  and  C_12
REMARK    4  A    between atoms: C_13  and  N_14
REMARK    5  A    between atoms: C_15  and  C_17
REMARK                            x       y       z     vdW  Elec       q    Type
REMARK                         _______ _______ _______ _____ _____    ______ ____
ROOT
ATOM      1  C   UNL     1      38.504   2.103  14.016  0.00  0.00    +0.000 A 
ATOM      2  C   UNL     1      39.150   3.154  14.580  0.00  0.00    +0.000 A 
ATOM      3  S   UNL     1      40.436   3.437  13.386  0.00  0.00    +0.000 S 
ATOM      4  C   UNL     1      40.064   2.237  12.286  0.00  0.00    +0.000 A 
ATOM      5  C   UNL     1      38.981   1.633  12.824  0.00  0.00    +0.000 A 
ATOM      6  C   UNL     1      38.458   0.480  11.960  0.00  0.00    +0.000 C 
ATOM      7  C   UNL     1      39.651  -0.454  11.825  0.00  0.00    +0.000 C 
ATOM      8  C   UNL     1      40.826   0.238  11.173  0.00  0.00    +0.000 C 
ATOM      9  C   UNL     1      40.582   1.708  10.968  0.00  0.00    +0.000 C 
ENDROOT
BRANCH   1  11
ATOM     10  N   UNL     1      37.654   0.330  15.647  0.00  0.00    +0.000 NA
ATOM     11  C   UNL     1      37.405   1.375  14.715  0.00  0.00    +0.000 C 
ATOM     12  O   UNL     1      36.236   1.655  14.503  0.00  0.00    +0.000 OA
BRANCH  10  18
ATOM     13  C   UNL     1      35.949  -1.424  15.760  0.00  0.00    +0.000 A 
ATOM     14  C   UNL     1      34.923  -2.057  16.420  0.00  0.00    +0.000 A 
ATOM     15  C   UNL     1      34.533  -1.574  17.676  0.00  0.00    +0.000 A 
ATOM     16  C   UNL     1      35.160  -0.488  18.243  0.00  0.00    +0.000 A 
ATOM     17  C   UNL     1      36.185   0.110  17.539  0.00  0.00    +0.000 A 
ATOM     18  C   UNL     1      36.579  -0.356  16.302  0.00  0.00    +0.000 A 
BRANCH  13  20
ATOM     19  C   UNL     1      37.063  -3.072  14.310  0.00  0.00    +0.000 C 
ATOM     20  O   UNL     1      36.340  -1.889  14.530  0.00  0.00    +0.000 OA
ENDBRANCH  13  20
ENDBRANCH  10  18
ENDBRANCH   1  11
BRANCH   2  21
ATOM     21  N   UNL     1      39.005   4.035  15.628  0.00  0.00    +0.000 NA
ATOM     22  C   UNL     1      38.375   4.346  16.757  0.00  0.00    +0.000 C 
ATOM     23  O   UNL     1      37.461   3.605  17.177  0.00  0.00    +0.000 OA
BRANCH  22  24
ATOM     24  C   UNL     1      38.666   5.536  17.599  0.00  0.00    +0.000 A 
ATOM     25  C   UNL     1      39.327   5.360  18.780  0.00  0.00    +0.000 A 
ATOM     26  C   UNL     1      39.621   6.455  19.604  0.00  0.00    +0.000 A 
ATOM     27  C   UNL     1      39.231   7.720  19.205  0.00  0.00    +0.000 A 
ATOM     28  C   UNL     1      38.561   7.917  18.015  0.00  0.00    +0.000 A 
ATOM     29  C   UNL     1      38.177   9.190  17.628  0.00  0.00    +0.000 A 
ATOM     30  C   UNL     1      37.511   9.306  16.424  0.00  0.00    +0.000 A 
ATOM     31  C   UNL     1      37.230   8.219  15.626  0.00  0.00    +0.000 A 
ATOM     32  C   UNL     1      37.630   6.968  16.047  0.00  0.00    +0.000 A 
ATOM     33  C   UNL     1      38.290   6.806  17.229  0.00  0.00    +0.000 A 
ENDBRANCH  22  24
ENDBRANCH   2  21
TORSDOF 5
ENDMDL
MODEL 8
REMARK VINA RESULT:      -8.1      2.038      3.194
REMARK  Name = 
REMARK  5 active torsions:
REMARK  status: ('A' for Active; 'I' for Inactive)
REMARK    1  A    between atoms: O_2  and  C_3
REMARK    2  A    between atoms: C_8  and  N_9
REMARK    3  A    between atoms: C_10  and  C_12
REMARK    4  A    between atoms: C_13  and  N_14
REMARK    5  A    between atoms: C_15  and  C_17
REMARK                            x       y       z     vdW  Elec       q    Type
REMARK                         _______ _______ _______ _____ _____    ______ ____
ROOT
ATOM      1  C   UNL     1      37.110   6.837  15.111  0.00  0.00    +0.000 A 
ATOM      2  C   UNL     1      36.630   5.611  14.781  0.00  0.00    +0.000 A 
ATOM      3  S   UNL     1      35.234   6.057  13.774  0.00  0.00    +0.000 S 
ATOM      4  C   UNL     1      35.363   7.720  13.839  0.00  0.00    +0.000 A 
ATOM      5  C   UNL     1      36.450   7.927  14.617  0.00  0.00    +0.000 A 
ATOM      6  C   UNL     1      36.761   9.416  14.811  0.00  0.00    +0.000 C 
ATOM      7  C   UNL     1      35.485   9.988  15.411  0.00  0.00    +0.000 C 
ATOM      8  C   UNL     1      34.302   9.784  14.494  0.00  0.00    +0.000 C 
ATOM      9  C   UNL     1      34.642   8.935  13.300  0.00  0.00    +0.000 C 
ENDROOT
BRANCH   1  11
ATOM     10  N   UNL     1      38.000   7.079  17.492  0.00  0.00    +0.000 NA
ATOM     11  C   UNL     1      38.221   7.021  16.089  0.00  0.00    +0.000 C 
ATOM     12  O   UNL     1      39.375   7.133  15.709  0.00  0.00    +0.000 OA
BRANCH  10  18
ATOM     13  C   UNL     1      39.579   8.479  18.736  0.00  0.00    +0.000 A 
ATOM     14  C   UNL     1      40.621   8.612  19.622  0.00  0.00    +0.000 A 
ATOM     15  C   UNL     1      41.172   7.457  20.190  0.00  0.00    +0.000 A 
ATOM     16  C   UNL     1      40.686   6.210  19.871  0.00  0.00    +0.000 A 
ATOM     17  C   UNL     1      39.638   6.131  18.977  0.00  0.00    +0.000 A 
ATOM     18  C   UNL     1      39.086   7.261  18.411  0.00  0.00    +0.000 A 
BRANCH  13  20
ATOM     19  C   UNL     1      39.711  10.491  17.324  0.00  0.00    +0.000 C 
ATOM     20  O   UNL     1      39.031   9.604  18.174  0.00  0.00    +0.000 OA
ENDBRANCH  13  20
ENDBRANCH  10  18
ENDBRANCH   1  11
BRANCH   2  21
ATOM     21  N   UNL     1      36.979   4.284  14.890  0.00  0.00    +0.000 NA
ATOM     22  C   UNL     1      37.673   3.353  15.538  0.00  0.00    +0.000 C 
ATOM     23  O   UNL     1      38.403   3.685  16.497  0.00  0.00    +0.000 OA
BRANCH  22  24
ATOM     24  C   UNL     1      37.664   1.901  15.219  0.00  0.00    +0.000 A 
ATOM     25  C   UNL     1      38.616   1.408  14.374  0.00  0.00    +0.000 A 
ATOM     26  C   UNL     1      38.644   0.046  14.047  0.00  0.00    +0.000 A 
ATOM     27  C   UNL     1      37.692  -0.795  14.593  0.00  0.00    +0.000 A 
ATOM     28  C   UNL     1      36.723  -0.314  15.448  0.00  0.00    +0.000 A 
ATOM     29  C   UNL     1      35.776  -1.170  15.987  0.00  0.00    +0.000 A 
ATOM     30  C   UNL     1      34.838  -0.614  16.834  0.00  0.00    +0.000 A 
ATOM     31  C   UNL     1      34.825   0.728  17.146  0.00  0.00    +0.000 A 
ATOM     32  C   UNL     1      35.785   1.546  16.588  0.00  0.00    +0.000 A 
ATOM     33  C   UNL     1      36.731   1.041  15.746  0.00  0.00    +0.000 A 
ENDBRANCH  22  24
ENDBRANCH   2  21
TORSDOF 5
ENDMDL
MODEL 9
REMARK VINA RESULT:      -8.1     26.417     28.951
REMARK  Name = 
REMARK  5 active torsions:
REMARK  status: ('A' for Active; 'I' for Inactive)
REMARK    1  A    between atoms: O_2  and  C_3
REMARK    2  A    between atoms: C_8  and  N_9
REMARK    3  A    between atoms: C_10  and  C_12
REMARK    4  A    between atoms: C_13  and  N_14
REMARK    5  A    between atoms: C_15  and  C_17
REMARK                            x       y       z     vdW  Elec       q    Type
REMARK                         _______ _______ _______ _____ _____    ______ ____
ROOT
ATOM      1  C   UNL     1      25.123  15.446  40.212  0.00  0.00    +0.000 A 
ATOM      2  C   UNL     1      24.784  16.113  39.081  0.00  0.00    +0.000 A 
ATOM      3  S   UNL     1      23.898  17.497  39.760  0.00  0.00    +0.000 S 
ATOM      4  C   UNL     1      24.025  17.138  41.385  0.00  0.00    +0.000 A 
ATOM      5  C   UNL     1      24.729  15.984  41.405  0.00  0.00    +0.000 A 
ATOM      6  C   UNL     1      24.972  15.465  42.827  0.00  0.00    +0.000 C 
ATOM      7  C   UNL     1      23.575  15.317  43.413  0.00  0.00    +0.000 C 
ATOM      8  C   UNL     1      22.836  16.635  43.422  0.00  0.00    +0.000 C 
ATOM      9  C   UNL     1      23.596  17.722  42.712  0.00  0.00    +0.000 C 
ENDROOT
BRANCH   1  11
ATOM     10  N   UNL     1      26.751  13.706  41.132  0.00  0.00    +0.000 NA
ATOM     11  C   UNL     1      25.772  14.102  40.181  0.00  0.00    +0.000 C 
ATOM     12  O   UNL     1      25.479  13.286  39.322  0.00  0.00    +0.000 OA
BRANCH  10  18
ATOM     13  C   UNL     1      26.744  11.288  41.519  0.00  0.00    +0.000 A 
ATOM     14  C   UNL     1      27.362  10.062  41.450  0.00  0.00    +0.000 A 
ATOM     15  C   UNL     1      28.653   9.990  40.913  0.00  0.00    +0.000 A 
ATOM     16  C   UNL     1      29.297  11.119  40.462  0.00  0.00    +0.000 A 
ATOM     17  C   UNL     1      28.633  12.324  40.553  0.00  0.00    +0.000 A 
ATOM     18  C   UNL     1      27.361  12.410  41.079  0.00  0.00    +0.000 A 
BRANCH  13  20
ATOM     19  C   UNL     1      25.169  11.302  43.410  0.00  0.00    +0.000 C 
ATOM     20  O   UNL     1      25.479  11.370  42.042  0.00  0.00    +0.000 OA
ENDBRANCH  13  20
ENDBRANCH  10  18
ENDBRANCH   1  11
BRANCH   2  21
ATOM     21  N   UNL     1      25.036  16.079  37.728  0.00  0.00    +0.000 NA
ATOM     22  C   UNL     1      25.932  16.151  36.748  0.00  0.00    +0.000 C 
ATOM     23  O   UNL     1      27.133  16.359  37.025  0.00  0.00    +0.000 OA
BRANCH  22  24
ATOM     24  C   UNL     1      25.631  16.002  35.300  0.00  0.00    +0.000 A 
ATOM     25  C   UNL     1      25.847  14.793  34.704  0.00  0.00    +0.000 A 
ATOM     26  C   UNL     1      25.577  14.610  33.341  0.00  0.00    +0.000 A 
ATOM     27  C   UNL     1      25.087  15.673  32.605  0.00  0.00    +0.000 A 
ATOM     28  C   UNL     1      24.863  16.902  33.190  0.00  0.00    +0.000 A 
ATOM     29  C   UNL     1      24.371  17.957  32.440  0.00  0.00    +0.000 A 
ATOM     30  C   UNL     1      24.174  19.156  33.096  0.00  0.00    +0.000 A 
ATOM     31  C   UNL     1      24.445  19.319  34.437  0.00  0.00    +0.000 A 
ATOM     32  C   UNL     1      24.933  18.243  35.149  0.00  0.00    +0.000 A 
ATOM     33  C   UNL     1      25.144  17.041  34.542  0.00  0.00    +0.000 A 
ENDBRANCH  22  24
ENDBRANCH   2  21
TORSDOF 5
ENDMDL
MODEL 10
REMARK VINA RESULT:      -8.1      2.161      7.372
REMARK  Name = 
REMARK  5 active torsions:
REMARK  status: ('A' for Active; 'I' for Inactive)
REMARK    1  A    between atoms: O_2  and  C_3
REMARK    2  A    between atoms: C_8  and  N_9
REMARK    3  A    between atoms: C_10  and  C_12
REMARK    4  A    between atoms: C_13  and  N_14
REMARK    5  A    between atoms: C_15  and  C_17
REMARK                            x       y       z     vdW  Elec       q    Type
REMARK                         _______ _______ _______ _____ _____    ______ ____
ROOT
ATOM      1  C   UNL     1      37.595   5.435  15.502  0.00  0.00    +0.000 A 
ATOM      2  C   UNL     1      38.449   6.326  16.064  0.00  0.00    +0.000 A 
ATOM      3  S   UNL     1      37.851   7.849  15.368  0.00  0.00    +0.000 S 
ATOM      4  C   UNL     1      36.591   7.258  14.446  0.00  0.00    +0.000 A 
ATOM      5  C   UNL     1      36.631   5.924  14.665  0.00  0.00    +0.000 A 
ATOM      6  C   UNL     1      35.536   5.168  13.903  0.00  0.00    +0.000 C 
ATOM      7  C   UNL     1      35.775   5.536  12.446  0.00  0.00    +0.000 C 
ATOM      8  C   UNL     1      35.672   7.028  12.228  0.00  0.00    +0.000 C 
ATOM      9  C   UNL     1      35.520   7.786  13.518  0.00  0.00    +0.000 C 
ENDROOT
BRANCH   1  11
ATOM     10  N   UNL     1      37.897   3.088  14.540  0.00  0.00    +0.000 NA
ATOM     11  C   UNL     1      37.766   3.960  15.655  0.00  0.00    +0.000 C 
ATOM     12  O   UNL     1      37.797   3.446  16.761  0.00  0.00    +0.000 OA
BRANCH  10  18
ATOM     13  C   UNL     1      37.023   0.845  14.990  0.00  0.00    +0.000 A 
ATOM     14  C   UNL     1      37.217  -0.507  15.150  0.00  0.00    +0.000 A 
ATOM     15  C   UNL     1      38.515  -1.019  15.023  0.00  0.00    +0.000 A 
ATOM     16  C   UNL     1      39.578  -0.192  14.745  0.00  0.00    +0.000 A 
ATOM     17  C   UNL     1      39.330   1.156  14.593  0.00  0.00    +0.000 A 
ATOM     18  C   UNL     1      38.058   1.674  14.715  0.00  0.00    +0.000 A 
BRANCH  13  20
ATOM     19  C   UNL     1      35.029   1.425  16.309  0.00  0.00    +0.000 C 
ATOM     20  O   UNL     1      35.757   1.357  15.111  0.00  0.00    +0.000 OA
ENDBRANCH  13  20
ENDBRANCH  10  18
ENDBRANCH   1  11
BRANCH   2  21
ATOM     21  N   UNL     1      39.439   6.371  17.019  0.00  0.00    +0.000 NA
ATOM     22  C   UNL     1      39.852   6.006  18.229  0.00  0.00    +0.000 C 
ATOM     23  O   UNL     1      39.100   5.325  18.958  0.00  0.00    +0.000 OA
BRANCH  22  24
ATOM     24  C   UNL     1      41.174   6.345  18.820  0.00  0.00    +0.000 A 
ATOM     25  C   UNL     1      41.279   6.450  20.177  0.00  0.00    +0.000 A 
ATOM     26  C   UNL     1      42.506   6.766  20.776  0.00  0.00    +0.000 A 
ATOM     27  C   UNL     1      43.612   6.972  19.972  0.00  0.00    +0.000 A 
ATOM     28  C   UNL     1      43.524   6.872  18.599  0.00  0.00    +0.000 A 
ATOM     29  C   UNL     1      44.641   7.080  17.807  0.00  0.00    +0.000 A 
ATOM     30  C   UNL     1      44.474   6.962  16.442  0.00  0.00    +0.000 A 
ATOM     31  C   UNL     1      43.260   6.650  15.870  0.00  0.00    +0.000 A 
ATOM     32  C   UNL     1      42.172   6.449  16.693  0.00  0.00    +0.000 A 
ATOM     33  C   UNL     1      42.291   6.556  18.047  0.00  0.00    +0.000 A 
ENDBRANCH  22  24
ENDBRANCH   2  21
TORSDOF 5
ENDMDL
