MODEL 1
REMARK VINA RESULT:      -7.2      0.000      0.000
REMARK  Name = 
REMARK  2 active torsions:
REMARK  status: ('A' for Active; 'I' for Inactive)
REMARK    1  A    between atoms: N_2  and  C_4
REMARK    2  A    between atoms: N_10  and  C_11
REMARK                            x       y       z     vdW  Elec       q    Type
REMARK                         _______ _______ _______ _____ _____    ______ ____
ROOT
ATOM      1  C   UNL     1      15.041  12.228  32.290  0.00  0.00    +0.000 A 
ATOM      2  C   UNL     1      16.021  11.274  32.133  0.00  0.00    +0.000 A 
ATOM      3  C   UNL     1      16.693  10.658  33.131  0.00  0.00    +0.000 A 
ATOM      4  C   UNL     1      16.400  10.987  34.474  0.00  0.00    +0.000 A 
ATOM      5  N   UNL     1      16.966  10.476  35.535  0.00  0.00    +0.000 NA
ATOM      6  C   UNL     1      16.598  10.873  36.739  0.00  0.00    +0.000 A 
ATOM      7  N   UNL     1      17.077  10.452  38.027  0.00  0.00    +0.000 NA
ATOM      8  S   UNL     1      15.392  12.026  36.377  0.00  0.00    +0.000 S 
ATOM      9  C   UNL     1      15.429  11.933  34.669  0.00  0.00    +0.000 A 
ATOM     10  C   UNL     1      14.748  12.554  33.611  0.00  0.00    +0.000 A 
ENDROOT
BRANCH   7  11
ATOM     11  C   UNL     1      18.100   9.468  38.136  0.00  0.00    +0.000 C 
ATOM     12  C   UNL     1      18.062   8.710  39.442  0.00  0.00    +0.000 C 
ATOM     13  C   UNL     1      17.394   9.510  40.538  0.00  0.00    +0.000 C 
ATOM     14  C   UNL     1      18.205   9.458  41.812  0.00  0.00    +0.000 C 
ATOM     15  C   UNL     1      19.676   9.459  41.404  0.00  0.00    +0.000 C 
ATOM     16  C   UNL     1      19.934  10.494  40.337  0.00  0.00    +0.000 C 
ATOM     17  C   UNL     1      20.408   9.859  39.044  0.00  0.00    +0.000 C 
ATOM     18  C   UNL     1      19.435  10.146  37.924  0.00  0.00    +0.000 C 
ENDBRANCH   7  11
BRANCH   1  20
ATOM     19  O   UNL     1      14.791  12.624  30.060  0.00  0.00    +0.000 OA
ATOM     20  N   UNL     1      14.376  12.834  31.215  0.00  0.00    +0.000 N 
ATOM     21  O   UNL     1      13.290  13.638  31.475  0.00  0.00    +0.000 OA
ENDBRANCH   1  20
TORSDOF 2
ENDMDL
MODEL 2
REMARK VINA RESULT:      -6.6     28.819     31.314
REMARK  Name = 
REMARK  2 active torsions:
REMARK  status: ('A' for Active; 'I' for Inactive)
REMARK    1  A    between atoms: N_2  and  C_4
REMARK    2  A    between atoms: N_10  and  C_11
REMARK                            x       y       z     vdW  Elec       q    Type
REMARK                         _______ _______ _______ _____ _____    ______ ____
ROOT
ATOM      1  C   UNL     1      27.575  22.941  12.246  0.00  0.00    +0.000 A 
ATOM      2  C   UNL     1      28.504  23.373  13.165  0.00  0.00    +0.000 A 
ATOM      3  C   UNL     1      29.833  23.128  13.121  0.00  0.00    +0.000 A 
ATOM      4  C   UNL     1      30.365  22.363  12.058  0.00  0.00    +0.000 A 
ATOM      5  N   UNL     1      31.622  22.049  11.887  0.00  0.00    +0.000 NA
ATOM      6  C   UNL     1      31.988  21.325  10.845  0.00  0.00    +0.000 A 
ATOM      7  N   UNL     1      33.296  20.868  10.464  0.00  0.00    +0.000 NA
ATOM      8  S   UNL     1      30.498  21.066  10.054  0.00  0.00    +0.000 S 
ATOM      9  C   UNL     1      29.469  21.917  11.124  0.00  0.00    +0.000 A 
ATOM     10  C   UNL     1      28.095  22.189  11.197  0.00  0.00    +0.000 A 
ENDROOT
BRANCH   7  11
ATOM     11  C   UNL     1      34.437  21.185  11.256  0.00  0.00    +0.000 C 
ATOM     12  C   UNL     1      35.591  21.730  10.450  0.00  0.00    +0.000 C 
ATOM     13  C   UNL     1      35.534  21.279   9.008  0.00  0.00    +0.000 C 
ATOM     14  C   UNL     1      36.886  20.792   8.542  0.00  0.00    +0.000 C 
ATOM     15  C   UNL     1      37.538  20.085   9.728  0.00  0.00    +0.000 C 
ATOM     16  C   UNL     1      36.553  19.168  10.410  0.00  0.00    +0.000 C 
ATOM     17  C   UNL     1      36.290  19.595  11.842  0.00  0.00    +0.000 C 
ATOM     18  C   UNL     1      34.833  19.947  12.031  0.00  0.00    +0.000 C 
ENDBRANCH   7  11
BRANCH   1  20
ATOM     19  O   UNL     1      25.723  24.099  11.596  0.00  0.00    +0.000 OA
ATOM     20  N   UNL     1      26.206  23.227  12.342  0.00  0.00    +0.000 N 
ATOM     21  O   UNL     1      25.445  22.535  13.257  0.00  0.00    +0.000 OA
ENDBRANCH   1  20
TORSDOF 2
ENDMDL
MODEL 3
REMARK VINA RESULT:      -6.4     21.209     22.411
REMARK  Name = 
REMARK  2 active torsions:
REMARK  status: ('A' for Active; 'I' for Inactive)
REMARK    1  A    between atoms: N_2  and  C_4
REMARK    2  A    between atoms: N_10  and  C_11
REMARK                            x       y       z     vdW  Elec       q    Type
REMARK                         _______ _______ _______ _____ _____    ______ ____
ROOT
ATOM      1  C   UNL     1      19.754   0.868  16.110  0.00  0.00    +0.000 A 
ATOM      2  C   UNL     1      19.656   1.691  17.209  0.00  0.00    +0.000 A 
ATOM      3  C   UNL     1      20.595   2.569  17.627  0.00  0.00    +0.000 A 
ATOM      4  C   UNL     1      21.804   2.690  16.905  0.00  0.00    +0.000 A 
ATOM      5  N   UNL     1      22.796   3.492  17.191  0.00  0.00    +0.000 NA
ATOM      6  C   UNL     1      23.876   3.507  16.431  0.00  0.00    +0.000 A 
ATOM      7  N   UNL     1      25.070   4.297  16.554  0.00  0.00    +0.000 NA
ATOM      8  S   UNL     1      23.491   2.338  15.247  0.00  0.00    +0.000 S 
ATOM      9  C   UNL     1      21.937   1.886  15.805  0.00  0.00    +0.000 A 
ATOM     10  C   UNL     1      20.943   0.985  15.396  0.00  0.00    +0.000 A 
ENDROOT
BRANCH   7  11
ATOM     11  C   UNL     1      25.216   5.232  17.618  0.00  0.00    +0.000 C 
ATOM     12  C   UNL     1      25.729   6.578  17.163  0.00  0.00    +0.000 C 
ATOM     13  C   UNL     1      26.514   6.476  15.875  0.00  0.00    +0.000 C 
ATOM     14  C   UNL     1      27.802   7.259  15.968  0.00  0.00    +0.000 C 
ATOM     15  C   UNL     1      28.312   7.111  17.399  0.00  0.00    +0.000 C 
ATOM     16  C   UNL     1      28.218   5.675  17.853  0.00  0.00    +0.000 C 
ATOM     17  C   UNL     1      27.273   5.522  19.030  0.00  0.00    +0.000 C 
ATOM     18  C   UNL     1      26.117   4.618  18.667  0.00  0.00    +0.000 C 
ENDBRANCH   7  11
BRANCH   1  20
ATOM     19  O   UNL     1      18.988  -0.848  14.822  0.00  0.00    +0.000 OA
ATOM     20  N   UNL     1      18.745  -0.024  15.723  0.00  0.00    +0.000 N 
ATOM     21  O   UNL     1      17.523   0.042  16.353  0.00  0.00    +0.000 OA
ENDBRANCH   1  20
TORSDOF 2
ENDMDL
MODEL 4
REMARK VINA RESULT:      -6.3     22.262     23.813
REMARK  Name = 
REMARK  2 active torsions:
REMARK  status: ('A' for Active; 'I' for Inactive)
REMARK    1  A    between atoms: N_2  and  C_4
REMARK    2  A    between atoms: N_10  and  C_11
REMARK                            x       y       z     vdW  Elec       q    Type
REMARK                         _______ _______ _______ _____ _____    ______ ____
ROOT
ATOM      1  C   UNL     1      19.248  -6.926  26.472  0.00  0.00    +0.000 A 
ATOM      2  C   UNL     1      19.699  -8.203  26.715  0.00  0.00    +0.000 A 
ATOM      3  C   UNL     1      20.846  -8.740  26.243  0.00  0.00    +0.000 A 
ATOM      4  C   UNL     1      21.692  -7.961  25.421  0.00  0.00    +0.000 A 
ATOM      5  N   UNL     1      22.825  -8.346  24.896  0.00  0.00    +0.000 NA
ATOM      6  C   UNL     1      23.523  -7.516  24.143  0.00  0.00    +0.000 A 
ATOM      7  N   UNL     1      24.777  -7.723  23.473  0.00  0.00    +0.000 NA
ATOM      8  S   UNL     1      22.547  -6.115  24.165  0.00  0.00    +0.000 S 
ATOM      9  C   UNL     1      21.275  -6.684  25.158  0.00  0.00    +0.000 A 
ATOM     10  C   UNL     1      20.078  -6.155  25.664  0.00  0.00    +0.000 A 
ENDROOT
BRANCH   7  11
ATOM     11  C   UNL     1      25.455  -8.972  23.568  0.00  0.00    +0.000 C 
ATOM     12  C   UNL     1      26.949  -8.856  23.384  0.00  0.00    +0.000 C 
ATOM     13  C   UNL     1      27.325  -7.632  22.580  0.00  0.00    +0.000 C 
ATOM     14  C   UNL     1      28.339  -7.979  21.515  0.00  0.00    +0.000 C 
ATOM     15  C   UNL     1      27.991  -9.375  21.005  0.00  0.00    +0.000 C 
ATOM     16  C   UNL     1      26.507  -9.499  20.762  0.00  0.00    +0.000 C 
ATOM     17  C   UNL     1      25.879 -10.548  21.660  0.00  0.00    +0.000 C 
ATOM     18  C   UNL     1      24.842  -9.921  22.562  0.00  0.00    +0.000 C 
ENDBRANCH   7  11
BRANCH   1  20
ATOM     19  O   UNL     1      17.255  -7.209  27.541  0.00  0.00    +0.000 OA
ATOM     20  N   UNL     1      18.047  -6.421  26.991  0.00  0.00    +0.000 N 
ATOM     21  O   UNL     1      17.786  -5.075  26.872  0.00  0.00    +0.000 OA
ENDBRANCH   1  20
TORSDOF 2
ENDMDL
MODEL 5
REMARK VINA RESULT:      -6.2     19.422     20.429
REMARK  Name = 
REMARK  2 active torsions:
REMARK  status: ('A' for Active; 'I' for Inactive)
REMARK    1  A    between atoms: N_2  and  C_4
REMARK    2  A    between atoms: N_10  and  C_11
REMARK                            x       y       z     vdW  Elec       q    Type
REMARK                         _______ _______ _______ _____ _____    ______ ____
ROOT
ATOM      1  C   UNL     1      27.106  23.230  23.578  0.00  0.00    +0.000 A 
ATOM      2  C   UNL     1      26.584  23.010  24.832  0.00  0.00    +0.000 A 
ATOM      3  C   UNL     1      27.298  22.823  25.964  0.00  0.00    +0.000 A 
ATOM      4  C   UNL     1      28.710  22.847  25.908  0.00  0.00    +0.000 A 
ATOM      5  N   UNL     1      29.526  22.683  26.917  0.00  0.00    +0.000 NA
ATOM      6  C   UNL     1      30.831  22.728  26.728  0.00  0.00    +0.000 A 
ATOM      7  N   UNL     1      31.898  22.577  27.678  0.00  0.00    +0.000 NA
ATOM      8  S   UNL     1      30.935  23.018  25.049  0.00  0.00    +0.000 S 
ATOM      9  C   UNL     1      29.265  23.065  24.676  0.00  0.00    +0.000 A 
ATOM     10  C   UNL     1      28.496  23.256  23.518  0.00  0.00    +0.000 A 
ENDROOT
BRANCH   7  11
ATOM     11  C   UNL     1      31.619  22.337  29.054  0.00  0.00    +0.000 C 
ATOM     12  C   UNL     1      31.849  23.546  29.929  0.00  0.00    +0.000 C 
ATOM     13  C   UNL     1      32.847  24.503  29.317  0.00  0.00    +0.000 C 
ATOM     14  C   UNL     1      33.862  24.950  30.343  0.00  0.00    +0.000 C 
ATOM     15  C   UNL     1      34.136  23.753  31.250  0.00  0.00    +0.000 C 
ATOM     16  C   UNL     1      34.326  22.498  30.435  0.00  0.00    +0.000 C 
ATOM     17  C   UNL     1      33.259  21.464  30.743  0.00  0.00    +0.000 C 
ATOM     18  C   UNL     1      32.448  21.155  29.506  0.00  0.00    +0.000 C 
ENDBRANCH   7  11
BRANCH   1  20
ATOM     19  O   UNL     1      25.290  22.726  22.298  0.00  0.00    +0.000 OA
ATOM     20  N   UNL     1      26.315  23.418  22.436  0.00  0.00    +0.000 N 
ATOM     21  O   UNL     1      26.700  24.360  21.509  0.00  0.00    +0.000 OA
ENDBRANCH   1  20
TORSDOF 2
ENDMDL
MODEL 6
REMARK VINA RESULT:      -6.0     21.929     23.897
REMARK  Name = 
REMARK  2 active torsions:
REMARK  status: ('A' for Active; 'I' for Inactive)
REMARK    1  A    between atoms: N_2  and  C_4
REMARK    2  A    between atoms: N_10  and  C_11
REMARK                            x       y       z     vdW  Elec       q    Type
REMARK                         _______ _______ _______ _____ _____    ______ ____
ROOT
ATOM      1  C   UNL     1      34.368  -0.805  35.924  0.00  0.00    +0.000 A 
ATOM      2  C   UNL     1      33.880  -0.344  34.723  0.00  0.00    +0.000 A 
ATOM      3  C   UNL     1      33.581  -1.104  33.646  0.00  0.00    +0.000 A 
ATOM      4  C   UNL     1      33.769  -2.504  33.709  0.00  0.00    +0.000 A 
ATOM      5  N   UNL     1      33.524  -3.360  32.751  0.00  0.00    +0.000 NA
ATOM      6  C   UNL     1      33.744  -4.647  32.941  0.00  0.00    +0.000 A 
ATOM      7  N   UNL     1      33.549  -5.750  32.041  0.00  0.00    +0.000 NA
ATOM      8  S   UNL     1      34.326  -4.674  34.546  0.00  0.00    +0.000 S 
ATOM      9  C   UNL     1      34.253  -2.999  34.890  0.00  0.00    +0.000 A 
ATOM     10  C   UNL     1      34.554  -2.183  35.991  0.00  0.00    +0.000 A 
ENDROOT
BRANCH   7  11
ATOM     11  C   UNL     1      33.050  -5.536  30.725  0.00  0.00    +0.000 C 
ATOM     12  C   UNL     1      32.117  -6.627  30.255  0.00  0.00    +0.000 C 
ATOM     13  C   UNL     1      32.372  -7.934  30.971  0.00  0.00    +0.000 C 
ATOM     14  C   UNL     1      32.417  -9.083  29.991  0.00  0.00    +0.000 C 
ATOM     15  C   UNL     1      33.077  -8.558  28.719  0.00  0.00    +0.000 C 
ATOM     16  C   UNL     1      34.303  -7.745  29.049  0.00  0.00    +0.000 C 
ATOM     17  C   UNL     1      34.154  -6.302  28.604  0.00  0.00    +0.000 C 
ATOM     18  C   UNL     1      34.229  -5.371  29.792  0.00  0.00    +0.000 C 
ENDBRANCH   7  11
BRANCH   1  20
ATOM     19  O   UNL     1      33.735   0.681  37.531  0.00  0.00    +0.000 OA
ATOM     20  N   UNL     1      34.661   0.033  37.009  0.00  0.00    +0.000 N 
ATOM     21  O   UNL     1      35.960   0.109  37.458  0.00  0.00    +0.000 OA
ENDBRANCH   1  20
TORSDOF 2
ENDMDL
MODEL 7
REMARK VINA RESULT:      -6.0     18.645     19.473
REMARK  Name = 
REMARK  2 active torsions:
REMARK  status: ('A' for Active; 'I' for Inactive)
REMARK    1  A    between atoms: N_2  and  C_4
REMARK    2  A    between atoms: N_10  and  C_11
REMARK                            x       y       z     vdW  Elec       q    Type
REMARK                         _______ _______ _______ _____ _____    ______ ____
ROOT
ATOM      1  C   UNL     1      28.557  23.195  24.084  0.00  0.00    +0.000 A 
ATOM      2  C   UNL     1      29.849  22.725  24.144  0.00  0.00    +0.000 A 
ATOM      3  C   UNL     1      30.552  22.487  25.274  0.00  0.00    +0.000 A 
ATOM      4  C   UNL     1      29.951  22.726  26.531  0.00  0.00    +0.000 A 
ATOM      5  N   UNL     1      30.507  22.542  27.700  0.00  0.00    +0.000 NA
ATOM      6  C   UNL     1      29.832  22.805  28.803  0.00  0.00    +0.000 A 
ATOM      7  N   UNL     1      30.238  22.678  30.175  0.00  0.00    +0.000 NA
ATOM      8  S   UNL     1      28.334  23.340  28.182  0.00  0.00    +0.000 S 
ATOM      9  C   UNL     1      28.665  23.194  26.509  0.00  0.00    +0.000 A 
ATOM     10  C   UNL     1      27.961  23.430  25.319  0.00  0.00    +0.000 A 
ENDROOT
BRANCH   7  11
ATOM     11  C   UNL     1      31.541  22.210  30.508  0.00  0.00    +0.000 C 
ATOM     12  C   UNL     1      31.557  21.290  31.706  0.00  0.00    +0.000 C 
ATOM     13  C   UNL     1      30.374  21.530  32.617  0.00  0.00    +0.000 C 
ATOM     14  C   UNL     1      30.814  21.600  34.061  0.00  0.00    +0.000 C 
ATOM     15  C   UNL     1      32.176  22.288  34.079  0.00  0.00    +0.000 C 
ATOM     16  C   UNL     1      32.171  23.506  33.188  0.00  0.00    +0.000 C 
ATOM     17  C   UNL     1      33.157  23.366  32.044  0.00  0.00    +0.000 C 
ATOM     18  C   UNL     1      32.437  23.411  30.716  0.00  0.00    +0.000 C 
ENDBRANCH   7  11
BRANCH   1  20
ATOM     19  O   UNL     1      26.693  23.049  22.781  0.00  0.00    +0.000 OA
ATOM     20  N   UNL     1      27.876  23.424  22.879  0.00  0.00    +0.000 N 
ATOM     21  O   UNL     1      28.540  24.053  21.850  0.00  0.00    +0.000 OA
ENDBRANCH   1  20
TORSDOF 2
ENDMDL
MODEL 8
REMARK VINA RESULT:      -5.9     17.840     19.202
REMARK  Name = 
REMARK  2 active torsions:
REMARK  status: ('A' for Active; 'I' for Inactive)
REMARK    1  A    between atoms: N_2  and  C_4
REMARK    2  A    between atoms: N_10  and  C_11
REMARK                            x       y       z     vdW  Elec       q    Type
REMARK                         _______ _______ _______ _____ _____    ______ ____
ROOT
ATOM      1  C   UNL     1      33.727   2.712  35.177  0.00  0.00    +0.000 A 
ATOM      2  C   UNL     1      33.670   3.503  34.052  0.00  0.00    +0.000 A 
ATOM      3  C   UNL     1      33.789   4.849  34.025  0.00  0.00    +0.000 A 
ATOM      4  C   UNL     1      33.991   5.554  35.234  0.00  0.00    +0.000 A 
ATOM      5  N   UNL     1      34.123   6.848  35.359  0.00  0.00    +0.000 NA
ATOM      6  C   UNL     1      34.308   7.383  36.552  0.00  0.00    +0.000 A 
ATOM      7  N   UNL     1      34.475   8.762  36.920  0.00  0.00    +0.000 NA
ATOM      8  S   UNL     1      34.300   6.006  37.561  0.00  0.00    +0.000 S 
ATOM      9  C   UNL     1      34.054   4.799  36.374  0.00  0.00    +0.000 A 
ATOM     10  C   UNL     1      33.928   3.401  36.369  0.00  0.00    +0.000 A 
ENDROOT
BRANCH   7  11
ATOM     11  C   UNL     1      34.454   9.786  35.931  0.00  0.00    +0.000 C 
ATOM     12  C   UNL     1      35.830  10.177  35.446  0.00  0.00    +0.000 C 
ATOM     13  C   UNL     1      36.897   9.873  36.473  0.00  0.00    +0.000 C 
ATOM     14  C   UNL     1      37.836  11.045  36.635  0.00  0.00    +0.000 C 
ATOM     15  C   UNL     1      36.997  12.312  36.491  0.00  0.00    +0.000 C 
ATOM     16  C   UNL     1      35.720  12.200  37.285  0.00  0.00    +0.000 C 
ATOM     17  C   UNL     1      34.497  12.255  36.389  0.00  0.00    +0.000 C 
ATOM     18  C   UNL     1      33.704  10.973  36.494  0.00  0.00    +0.000 C 
ENDBRANCH   7  11
BRANCH   1  20
ATOM     19  O   UNL     1      34.094   0.647  36.070  0.00  0.00    +0.000 OA
ATOM     20  N   UNL     1      33.597   1.316  35.145  0.00  0.00    +0.000 N 
ATOM     21  O   UNL     1      32.927   0.736  34.092  0.00  0.00    +0.000 OA
ENDBRANCH   1  20
TORSDOF 2
ENDMDL
MODEL 9
REMARK VINA RESULT:      -5.8     23.587     26.269
REMARK  Name = 
REMARK  2 active torsions:
REMARK  status: ('A' for Active; 'I' for Inactive)
REMARK    1  A    between atoms: N_2  and  C_4
REMARK    2  A    between atoms: N_10  and  C_11
REMARK                            x       y       z     vdW  Elec       q    Type
REMARK                         _______ _______ _______ _____ _____    ______ ____
ROOT
ATOM      1  C   UNL     1      27.509  23.796  23.712  0.00  0.00    +0.000 A 
ATOM      2  C   UNL     1      28.723  23.366  23.229  0.00  0.00    +0.000 A 
ATOM      3  C   UNL     1      29.454  23.977  22.270  0.00  0.00    +0.000 A 
ATOM      4  C   UNL     1      28.971  25.168  21.680  0.00  0.00    +0.000 A 
ATOM      5  N   UNL     1      29.567  25.864  20.748  0.00  0.00    +0.000 NA
ATOM      6  C   UNL     1      29.006  26.963  20.281  0.00  0.00    +0.000 A 
ATOM      7  N   UNL     1      29.475  27.871  19.271  0.00  0.00    +0.000 NA
ATOM      8  S   UNL     1      27.563  27.037  21.191  0.00  0.00    +0.000 S 
ATOM      9  C   UNL     1      27.765  25.626  22.138  0.00  0.00    +0.000 A 
ATOM     10  C   UNL     1      27.030  24.969  23.135  0.00  0.00    +0.000 A 
ENDROOT
BRANCH   7  11
ATOM     11  C   UNL     1      30.716  27.647  18.610  0.00  0.00    +0.000 C 
ATOM     12  C   UNL     1      31.623  28.854  18.618  0.00  0.00    +0.000 C 
ATOM     13  C   UNL     1      30.845  30.143  18.761  0.00  0.00    +0.000 C 
ATOM     14  C   UNL     1      31.324  31.173  17.766  0.00  0.00    +0.000 C 
ATOM     15  C   UNL     1      31.682  30.424  16.485  0.00  0.00    +0.000 C 
ATOM     16  C   UNL     1      30.612  29.418  16.138  0.00  0.00    +0.000 C 
ATOM     17  C   UNL     1      31.149  28.000  16.162  0.00  0.00    +0.000 C 
ATOM     18  C   UNL     1      30.425  27.177  17.202  0.00  0.00    +0.000 C 
ENDBRANCH   7  11
BRANCH   1  20
ATOM     19  O   UNL     1      25.558  23.023  24.600  0.00  0.00    +0.000 OA
ATOM     20  N   UNL     1      26.794  23.119  24.711  0.00  0.00    +0.000 N 
ATOM     21  O   UNL     1      27.484  22.587  25.776  0.00  0.00    +0.000 OA
ENDBRANCH   1  20
TORSDOF 2
ENDMDL
MODEL 10
REMARK VINA RESULT:      -5.7     19.623     21.816
REMARK  Name = 
REMARK  2 active torsions:
REMARK  status: ('A' for Active; 'I' for Inactive)
REMARK    1  A    between atoms: N_2  and  C_4
REMARK    2  A    between atoms: N_10  and  C_11
REMARK                            x       y       z     vdW  Elec       q    Type
REMARK                         _______ _______ _______ _____ _____    ______ ____
ROOT
ATOM      1  C   UNL     1      31.081  21.967  30.839  0.00  0.00    +0.000 A 
ATOM      2  C   UNL     1      31.947  21.700  29.803  0.00  0.00    +0.000 A 
ATOM      3  C   UNL     1      31.776  22.068  28.514  0.00  0.00    +0.000 A 
ATOM      4  C   UNL     1      30.620  22.794  28.145  0.00  0.00    +0.000 A 
ATOM      5  N   UNL     1      30.324  23.214  26.943  0.00  0.00    +0.000 NA
ATOM      6  C   UNL     1      29.207  23.886  26.733  0.00  0.00    +0.000 A 
ATOM      7  N   UNL     1      28.687  24.435  25.511  0.00  0.00    +0.000 NA
ATOM      8  S   UNL     1      28.526  23.938  28.298  0.00  0.00    +0.000 S 
ATOM      9  C   UNL     1      29.736  23.079  29.151  0.00  0.00    +0.000 A 
ATOM     10  C   UNL     1      29.943  22.683  30.481  0.00  0.00    +0.000 A 
ENDROOT
BRANCH   7  11
ATOM     11  C   UNL     1      29.401  24.292  24.287  0.00  0.00    +0.000 C 
ATOM     12  C   UNL     1      29.471  25.569  23.484  0.00  0.00    +0.000 C 
ATOM     13  C   UNL     1      28.329  26.504  23.812  0.00  0.00    +0.000 C 
ATOM     14  C   UNL     1      27.705  27.054  22.550  0.00  0.00    +0.000 C 
ATOM     15  C   UNL     1      27.742  25.936  21.511  0.00  0.00    +0.000 C 
ATOM     16  C   UNL     1      27.295  24.629  22.117  0.00  0.00    +0.000 C 
ATOM     17  C   UNL     1      28.402  23.593  22.092  0.00  0.00    +0.000 C 
ATOM     18  C   UNL     1      28.765  23.170  23.497  0.00  0.00    +0.000 C 
ENDBRANCH   7  11
BRANCH   1  20
ATOM     19  O   UNL     1      32.479  21.557  32.591  0.00  0.00    +0.000 OA
ATOM     20  N   UNL     1      31.311  21.560  32.160  0.00  0.00    +0.000 N 
ATOM     21  O   UNL     1      30.238  21.178  32.934  0.00  0.00    +0.000 OA
ENDBRANCH   1  20
TORSDOF 2
ENDMDL
