MODEL 1
REMARK VINA RESULT:      -7.3      0.000      0.000
REMARK  Name = 
REMARK  6 active torsions:
REMARK  status: ('A' for Active; 'I' for Inactive)
REMARK    1  A    between atoms: C_2  and  C_3
REMARK    2  A    between atoms: C_3  and  N_4
REMARK    3  A    between atoms: C_5  and  C_7
REMARK    4  A    between atoms: C_7  and  N_8
REMARK    5  A    between atoms: C_11  and  C_12
REMARK    6  A    between atoms: C_14  and  C_15
REMARK                            x       y       z     vdW  Elec       q    Type
REMARK                         _______ _______ _______ _____ _____    ______ ____
ROOT
ATOM      1  C   UNL     1      16.862  10.216  38.791  0.00  0.00    +0.000 A 
ATOM      2  N   UNL     1      16.096   9.872  39.833  0.00  0.00    +0.000 NA
ATOM      3  C   UNL     1      16.907   9.507  40.834  0.00  0.00    +0.000 A 
ATOM      4  N   UNL     1      18.142   9.648  40.346  0.00  0.00    +0.000 NA
ATOM      5  O   UNL     1      18.103  10.065  39.147  0.00  0.00    +0.000 OA
ENDROOT
BRANCH   3   6
ATOM      6  C   UNL     1      16.535   9.050  42.178  0.00  0.00    +0.000 A 
ATOM      7  C   UNL     1      16.184   7.750  42.387  0.00  0.00    +0.000 A 
ATOM      8  C   UNL     1      15.826   7.280  43.650  0.00  0.00    +0.000 A 
ATOM      9  C   UNL     1      15.832   8.161  44.699  0.00  0.00    +0.000 A 
ATOM     10  C   UNL     1      16.184   9.475  44.499  0.00  0.00    +0.000 A 
ATOM     11  C   UNL     1      16.536   9.916  43.233  0.00  0.00    +0.000 A 
ATOM     12  O   UNL     1      16.108  10.159  45.725  0.00  0.00    +0.000 OA
ATOM     13  C   UNL     1      15.311   9.350  46.603  0.00  0.00    +0.000 C 
ATOM     14  O   UNL     1      15.539   8.058  46.071  0.00  0.00    +0.000 OA
ENDBRANCH   3   6
BRANCH   1  18
ATOM     15  N   UNL     1      17.112  11.607  34.826  0.00  0.00    +0.000 NA
ATOM     16  C   UNL     1      16.659  12.573  35.833  0.00  0.00    +0.000 C 
ATOM     17  C   UNL     1      16.915  12.085  37.218  0.00  0.00    +0.000 C 
ATOM     18  C   UNL     1      16.391  10.686  37.459  0.00  0.00    +0.000 C 
ATOM     19  C   UNL     1      16.921   9.796  36.359  0.00  0.00    +0.000 C 
ATOM     20  C   UNL     1      17.910  10.606  35.551  0.00  0.00    +0.000 C 
BRANCH  15  21
ATOM     21  C   UNL     1      15.932  10.982  34.295  0.00  0.00    +0.000 C 
BRANCH  21  23
ATOM     22  N   UNL     1      14.881  12.161  32.306  0.00  0.00    +0.000 NA
ATOM     23  C   UNL     1      15.793  11.206  32.832  0.00  0.00    +0.000 C 
ATOM     24  O   UNL     1      16.485  10.550  32.009  0.00  0.00    +0.000 OA
BRANCH  22  25
ATOM     25  C   UNL     1      14.790  12.337  30.852  0.00  0.00    +0.000 C 
BRANCH  25  27
ATOM     26  C   UNL     1      16.803  13.669  30.175  0.00  0.00    +0.000 C 
ATOM     27  C   UNL     1      15.309  13.688  30.461  0.00  0.00    +0.000 C 
ENDBRANCH  25  27
ENDBRANCH  22  25
ENDBRANCH  21  23
ENDBRANCH  15  21
ENDBRANCH   1  18
TORSDOF 6
ENDMDL
MODEL 2
REMARK VINA RESULT:      -7.2      4.152      9.543
REMARK  Name = 
REMARK  6 active torsions:
REMARK  status: ('A' for Active; 'I' for Inactive)
REMARK    1  A    between atoms: C_2  and  C_3
REMARK    2  A    between atoms: C_3  and  N_4
REMARK    3  A    between atoms: C_5  and  C_7
REMARK    4  A    between atoms: C_7  and  N_8
REMARK    5  A    between atoms: C_11  and  C_12
REMARK    6  A    between atoms: C_14  and  C_15
REMARK                            x       y       z     vdW  Elec       q    Type
REMARK                         _______ _______ _______ _____ _____    ______ ____
ROOT
ATOM      1  C   UNL     1      16.663  11.175  37.630  0.00  0.00    +0.000 A 
ATOM      2  N   UNL     1      16.674  11.748  36.420  0.00  0.00    +0.000 NA
ATOM      3  C   UNL     1      15.403  11.939  36.046  0.00  0.00    +0.000 A 
ATOM      4  N   UNL     1      14.670  11.469  37.059  0.00  0.00    +0.000 NA
ATOM      5  O   UNL     1      15.421  11.023  37.982  0.00  0.00    +0.000 OA
ENDROOT
BRANCH   3   6
ATOM      6  C   UNL     1      14.907  12.535  34.800  0.00  0.00    +0.000 A 
ATOM      7  C   UNL     1      14.022  13.571  34.840  0.00  0.00    +0.000 A 
ATOM      8  C   UNL     1      13.529  14.162  33.678  0.00  0.00    +0.000 A 
ATOM      9  C   UNL     1      13.955  13.677  32.469  0.00  0.00    +0.000 A 
ATOM     10  C   UNL     1      14.847  12.632  32.417  0.00  0.00    +0.000 A 
ATOM     11  C   UNL     1      15.321  12.063  33.589  0.00  0.00    +0.000 A 
ATOM     12  O   UNL     1      15.117  12.330  31.070  0.00  0.00    +0.000 OA
ATOM     13  C   UNL     1      14.071  12.929  30.293  0.00  0.00    +0.000 C 
ATOM     14  O   UNL     1      13.687  14.005  31.128  0.00  0.00    +0.000 OA
ENDBRANCH   3   6
BRANCH   1  18
ATOM     15  N   UNL     1      20.292   9.257  38.559  0.00  0.00    +0.000 NA
ATOM     16  C   UNL     1      19.094   8.759  39.242  0.00  0.00    +0.000 C 
ATOM     17  C   UNL     1      17.847   9.276  38.610  0.00  0.00    +0.000 C 
ATOM     18  C   UNL     1      17.849  10.778  38.437  0.00  0.00    +0.000 C 
ATOM     19  C   UNL     1      19.129  11.162  37.732  0.00  0.00    +0.000 C 
ATOM     20  C   UNL     1      19.822   9.884  37.313  0.00  0.00    +0.000 C 
BRANCH  15  21
ATOM     21  C   UNL     1      20.865  10.262  39.412  0.00  0.00    +0.000 C 
BRANCH  21  23
ATOM     22  N   UNL     1      23.071   9.378  38.519  0.00  0.00    +0.000 NA
ATOM     23  C   UNL     1      22.342  10.342  39.267  0.00  0.00    +0.000 C 
ATOM     24  O   UNL     1      22.995  11.273  39.808  0.00  0.00    +0.000 OA
BRANCH  22  25
ATOM     25  C   UNL     1      24.529   9.511  38.412  0.00  0.00    +0.000 C 
BRANCH  25  27
ATOM     26  C   UNL     1      23.897   9.619  35.988  0.00  0.00    +0.000 C 
ATOM     27  C   UNL     1      24.903  10.028  37.055  0.00  0.00    +0.000 C 
ENDBRANCH  25  27
ENDBRANCH  22  25
ENDBRANCH  21  23
ENDBRANCH  15  21
ENDBRANCH   1  18
TORSDOF 6
ENDMDL
MODEL 3
REMARK VINA RESULT:      -7.1      3.518     10.308
REMARK  Name = 
REMARK  6 active torsions:
REMARK  status: ('A' for Active; 'I' for Inactive)
REMARK    1  A    between atoms: C_2  and  C_3
REMARK    2  A    between atoms: C_3  and  N_4
REMARK    3  A    between atoms: C_5  and  C_7
REMARK    4  A    between atoms: C_7  and  N_8
REMARK    5  A    between atoms: C_11  and  C_12
REMARK    6  A    between atoms: C_14  and  C_15
REMARK                            x       y       z     vdW  Elec       q    Type
REMARK                         _______ _______ _______ _____ _____    ______ ____
ROOT
ATOM      1  C   UNL     1      17.475  10.010  37.288  0.00  0.00    +0.000 A 
ATOM      2  N   UNL     1      17.428   9.995  35.950  0.00  0.00    +0.000 NA
ATOM      3  C   UNL     1      16.481  10.859  35.565  0.00  0.00    +0.000 A 
ATOM      4  N   UNL     1      15.992  11.365  36.700  0.00  0.00    +0.000 NA
ATOM      5  O   UNL     1      16.583  10.860  37.704  0.00  0.00    +0.000 OA
ENDROOT
BRANCH   3   6
ATOM      6  C   UNL     1      16.061  11.190  34.198  0.00  0.00    +0.000 A 
ATOM      7  C   UNL     1      16.598  10.524  33.136  0.00  0.00    +0.000 A 
ATOM      8  C   UNL     1      16.223  10.811  31.824  0.00  0.00    +0.000 A 
ATOM      9  C   UNL     1      15.290  11.791  31.613  0.00  0.00    +0.000 A 
ATOM     10  C   UNL     1      14.742  12.468  32.676  0.00  0.00    +0.000 A 
ATOM     11  C   UNL     1      15.133  12.163  33.971  0.00  0.00    +0.000 A 
ATOM     12  O   UNL     1      13.820  13.412  32.190  0.00  0.00    +0.000 OA
ATOM     13  C   UNL     1      14.106  13.591  30.795  0.00  0.00    +0.000 C 
ATOM     14  O   UNL     1      14.683  12.341  30.468  0.00  0.00    +0.000 OA
ENDBRANCH   3   6
BRANCH   1  18
ATOM     15  N   UNL     1      19.962   9.100  40.559  0.00  0.00    +0.000 NA
ATOM     16  C   UNL     1      20.624   9.283  39.264  0.00  0.00    +0.000 C 
ATOM     17  C   UNL     1      19.713   9.910  38.265  0.00  0.00    +0.000 C 
ATOM     18  C   UNL     1      18.379   9.205  38.155  0.00  0.00    +0.000 C 
ATOM     19  C   UNL     1      17.808   9.074  39.547  0.00  0.00    +0.000 C 
ATOM     20  C   UNL     1      18.701   9.855  40.485  0.00  0.00    +0.000 C 
BRANCH  15  21
ATOM     21  C   UNL     1      19.671   7.697  40.678  0.00  0.00    +0.000 C 
BRANCH  21  23
ATOM     22  N   UNL     1      21.508   5.950  40.540  0.00  0.00    +0.000 NA
ATOM     23  C   UNL     1      20.803   6.941  41.275  0.00  0.00    +0.000 C 
ATOM     24  O   UNL     1      21.173   7.158  42.459  0.00  0.00    +0.000 OA
BRANCH  22  25
ATOM     25  C   UNL     1      22.618   5.237  41.185  0.00  0.00    +0.000 C 
BRANCH  25  27
ATOM     26  C   UNL     1      21.515   3.366  39.932  0.00  0.00    +0.000 C 
ATOM     27  C   UNL     1      22.393   3.757  41.113  0.00  0.00    +0.000 C 
ENDBRANCH  25  27
ENDBRANCH  22  25
ENDBRANCH  21  23
ENDBRANCH  15  21
ENDBRANCH   1  18
TORSDOF 6
ENDMDL
MODEL 4
REMARK VINA RESULT:      -7.0      4.338     10.229
REMARK  Name = 
REMARK  6 active torsions:
REMARK  status: ('A' for Active; 'I' for Inactive)
REMARK    1  A    between atoms: C_2  and  C_3
REMARK    2  A    between atoms: C_3  and  N_4
REMARK    3  A    between atoms: C_5  and  C_7
REMARK    4  A    between atoms: C_7  and  N_8
REMARK    5  A    between atoms: C_11  and  C_12
REMARK    6  A    between atoms: C_14  and  C_15
REMARK                            x       y       z     vdW  Elec       q    Type
REMARK                         _______ _______ _______ _____ _____    ______ ____
ROOT
ATOM      1  C   UNL     1      17.915  10.089  36.899  0.00  0.00    +0.000 A 
ATOM      2  N   UNL     1      17.848  10.276  35.576  0.00  0.00    +0.000 NA
ATOM      3  C   UNL     1      16.650  10.802  35.297  0.00  0.00    +0.000 A 
ATOM      4  N   UNL     1      16.037  10.912  36.479  0.00  0.00    +0.000 NA
ATOM      5  O   UNL     1      16.790  10.490  37.411  0.00  0.00    +0.000 OA
ENDROOT
BRANCH   3   6
ATOM      6  C   UNL     1      16.111  11.182  33.985  0.00  0.00    +0.000 A 
ATOM      7  C   UNL     1      16.540  10.546  32.858  0.00  0.00    +0.000 A 
ATOM      8  C   UNL     1      16.051  10.879  31.597  0.00  0.00    +0.000 A 
ATOM      9  C   UNL     1      15.114  11.874  31.502  0.00  0.00    +0.000 A 
ATOM     10  C   UNL     1      14.674  12.522  32.632  0.00  0.00    +0.000 A 
ATOM     11  C   UNL     1      15.177  12.170  33.876  0.00  0.00    +0.000 A 
ATOM     12  O   UNL     1      13.723  13.490  32.263  0.00  0.00    +0.000 OA
ATOM     13  C   UNL     1      13.883  13.712  30.855  0.00  0.00    +0.000 C 
ATOM     14  O   UNL     1      14.412  12.467  30.436  0.00  0.00    +0.000 OA
ENDBRANCH   3   6
BRANCH   1  18
ATOM     15  N   UNL     1      21.415  10.055  39.237  0.00  0.00    +0.000 NA
ATOM     16  C   UNL     1      21.559   9.650  37.836  0.00  0.00    +0.000 C 
ATOM     17  C   UNL     1      20.354  10.005  37.034  0.00  0.00    +0.000 C 
ATOM     18  C   UNL     1      19.064   9.525  37.660  0.00  0.00    +0.000 C 
ATOM     19  C   UNL     1      19.040   9.999  39.094  0.00  0.00    +0.000 C 
ATOM     20  C   UNL     1      20.224  10.918  39.293  0.00  0.00    +0.000 C 
BRANCH  15  21
ATOM     21  C   UNL     1      21.170   8.856  39.990  0.00  0.00    +0.000 C 
BRANCH  21  23
ATOM     22  N   UNL     1      23.685   8.749  40.326  0.00  0.00    +0.000 NA
ATOM     23  C   UNL     1      22.422   8.100  40.259  0.00  0.00    +0.000 C 
ATOM     24  O   UNL     1      22.399   6.853  40.437  0.00  0.00    +0.000 OA
BRANCH  22  25
ATOM     25  C   UNL     1      24.885   7.947  40.595  0.00  0.00    +0.000 C 
BRANCH  25  27
ATOM     26  C   UNL     1      26.390   6.429  39.285  0.00  0.00    +0.000 C 
ATOM     27  C   UNL     1      25.685   7.777  39.339  0.00  0.00    +0.000 C 
ENDBRANCH  25  27
ENDBRANCH  22  25
ENDBRANCH  21  23
ENDBRANCH  15  21
ENDBRANCH   1  18
TORSDOF 6
ENDMDL
MODEL 5
REMARK VINA RESULT:      -7.0      4.198      9.628
REMARK  Name = 
REMARK  6 active torsions:
REMARK  status: ('A' for Active; 'I' for Inactive)
REMARK    1  A    between atoms: C_2  and  C_3
REMARK    2  A    between atoms: C_3  and  N_4
REMARK    3  A    between atoms: C_5  and  C_7
REMARK    4  A    between atoms: C_7  and  N_8
REMARK    5  A    between atoms: C_11  and  C_12
REMARK    6  A    between atoms: C_14  and  C_15
REMARK                            x       y       z     vdW  Elec       q    Type
REMARK                         _______ _______ _______ _____ _____    ______ ____
ROOT
ATOM      1  C   UNL     1      17.403  10.885  37.552  0.00  0.00    +0.000 A 
ATOM      2  N   UNL     1      17.477  11.081  36.230  0.00  0.00    +0.000 NA
ATOM      3  C   UNL     1      16.230  11.220  35.766  0.00  0.00    +0.000 A 
ATOM      4  N   UNL     1      15.446  11.100  36.841  0.00  0.00    +0.000 NA
ATOM      5  O   UNL     1      16.146  10.904  37.883  0.00  0.00    +0.000 OA
ENDROOT
BRANCH   3   6
ATOM      6  C   UNL     1      15.800  11.453  34.382  0.00  0.00    +0.000 A 
ATOM      7  C   UNL     1      16.254  10.650  33.379  0.00  0.00    +0.000 A 
ATOM      8  C   UNL     1      15.868  10.841  32.053  0.00  0.00    +0.000 A 
ATOM      9  C   UNL     1      15.008  11.868  31.767  0.00  0.00    +0.000 A 
ATOM     10  C   UNL     1      14.544  12.684  32.771  0.00  0.00    +0.000 A 
ATOM     11  C   UNL     1      14.944  12.472  34.081  0.00  0.00    +0.000 A 
ATOM     12  O   UNL     1      13.685  13.649  32.215  0.00  0.00    +0.000 OA
ATOM     13  C   UNL     1      13.946  13.673  30.804  0.00  0.00    +0.000 C 
ATOM     14  O   UNL     1      14.415  12.355  30.587  0.00  0.00    +0.000 OA
ENDBRANCH   3   6
BRANCH   1  18
ATOM     15  N   UNL     1      21.063   9.372  38.977  0.00  0.00    +0.000 NA
ATOM     16  C   UNL     1      19.849   8.874  39.631  0.00  0.00    +0.000 C 
ATOM     17  C   UNL     1      18.625   9.215  38.850  0.00  0.00    +0.000 C 
ATOM     18  C   UNL     1      18.544  10.680  38.486  0.00  0.00    +0.000 C 
ATOM     19  C   UNL     1      19.849  11.068  37.831  0.00  0.00    +0.000 C 
ATOM     20  C   UNL     1      20.655   9.804  37.631  0.00  0.00    +0.000 C 
BRANCH  15  21
ATOM     21  C   UNL     1      21.499  10.514  39.733  0.00  0.00    +0.000 C 
BRANCH  21  23
ATOM     22  N   UNL     1      23.582  11.339  38.537  0.00  0.00    +0.000 NA
ATOM     23  C   UNL     1      22.970  10.707  39.654  0.00  0.00    +0.000 C 
ATOM     24  O   UNL     1      23.725  10.314  40.583  0.00  0.00    +0.000 OA
BRANCH  22  25
ATOM     25  C   UNL     1      25.041  11.500  38.518  0.00  0.00    +0.000 C 
BRANCH  25  27
ATOM     26  C   UNL     1      24.798  10.205  36.385  0.00  0.00    +0.000 C 
ATOM     27  C   UNL     1      25.662  10.484  37.607  0.00  0.00    +0.000 C 
ENDBRANCH  25  27
ENDBRANCH  22  25
ENDBRANCH  21  23
ENDBRANCH  15  21
ENDBRANCH   1  18
TORSDOF 6
ENDMDL
MODEL 6
REMARK VINA RESULT:      -7.0      2.520     10.519
REMARK  Name = 
REMARK  6 active torsions:
REMARK  status: ('A' for Active; 'I' for Inactive)
REMARK    1  A    between atoms: C_2  and  C_3
REMARK    2  A    between atoms: C_3  and  N_4
REMARK    3  A    between atoms: C_5  and  C_7
REMARK    4  A    between atoms: C_7  and  N_8
REMARK    5  A    between atoms: C_11  and  C_12
REMARK    6  A    between atoms: C_14  and  C_15
REMARK                            x       y       z     vdW  Elec       q    Type
REMARK                         _______ _______ _______ _____ _____    ______ ____
ROOT
ATOM      1  C   UNL     1      17.880   9.463  38.914  0.00  0.00    +0.000 A 
ATOM      2  N   UNL     1      16.941  10.057  38.168  0.00  0.00    +0.000 NA
ATOM      3  C   UNL     1      17.403  10.134  36.914  0.00  0.00    +0.000 A 
ATOM      4  N   UNL     1      18.616   9.576  36.958  0.00  0.00    +0.000 NA
ATOM      5  O   UNL     1      18.885   9.187  38.137  0.00  0.00    +0.000 OA
ENDROOT
BRANCH   3   6
ATOM      6  C   UNL     1      16.735  10.703  35.737  0.00  0.00    +0.000 A 
ATOM      7  C   UNL     1      15.766  11.649  35.890  0.00  0.00    +0.000 A 
ATOM      8  C   UNL     1      15.111  12.212  34.796  0.00  0.00    +0.000 A 
ATOM      9  C   UNL     1      15.461  11.792  33.540  0.00  0.00    +0.000 A 
ATOM     10  C   UNL     1      16.436  10.838  33.375  0.00  0.00    +0.000 A 
ATOM     11  C   UNL     1      17.072  10.295  34.480  0.00  0.00    +0.000 A 
ATOM     12  O   UNL     1      16.602  10.588  32.001  0.00  0.00    +0.000 OA
ATOM     13  C   UNL     1      15.434  11.099  31.342  0.00  0.00    +0.000 C 
ATOM     14  O   UNL     1      15.035  12.119  32.240  0.00  0.00    +0.000 OA
ENDBRANCH   3   6
BRANCH   1  18
ATOM     15  N   UNL     1      16.428   7.779  42.488  0.00  0.00    +0.000 NA
ATOM     16  C   UNL     1      16.214   9.218  42.307  0.00  0.00    +0.000 C 
ATOM     17  C   UNL     1      16.466   9.639  40.899  0.00  0.00    +0.000 C 
ATOM     18  C   UNL     1      17.803   9.168  40.372  0.00  0.00    +0.000 C 
ATOM     19  C   UNL     1      17.903   7.681  40.622  0.00  0.00    +0.000 C 
ATOM     20  C   UNL     1      16.560   7.212  41.137  0.00  0.00    +0.000 C 
BRANCH  15  21
ATOM     21  C   UNL     1      17.674   7.634  43.190  0.00  0.00    +0.000 C 
BRANCH  21  23
ATOM     22  N   UNL     1      16.350   6.432  44.993  0.00  0.00    +0.000 NA
ATOM     23  C   UNL     1      17.575   6.660  44.308  0.00  0.00    +0.000 C 
ATOM     24  O   UNL     1      18.581   6.002  44.684  0.00  0.00    +0.000 OA
BRANCH  22  25
ATOM     25  C   UNL     1      16.316   5.456  46.089  0.00  0.00    +0.000 C 
BRANCH  25  27
ATOM     26  C   UNL     1      13.926   5.193  45.375  0.00  0.00    +0.000 C 
ATOM     27  C   UNL     1      15.178   4.499  45.892  0.00  0.00    +0.000 C 
ENDBRANCH  25  27
ENDBRANCH  22  25
ENDBRANCH  21  23
ENDBRANCH  15  21
ENDBRANCH   1  18
TORSDOF 6
ENDMDL
MODEL 7
REMARK VINA RESULT:      -6.9      3.222     10.165
REMARK  Name = 
REMARK  6 active torsions:
REMARK  status: ('A' for Active; 'I' for Inactive)
REMARK    1  A    between atoms: C_2  and  C_3
REMARK    2  A    between atoms: C_3  and  N_4
REMARK    3  A    between atoms: C_5  and  C_7
REMARK    4  A    between atoms: C_7  and  N_8
REMARK    5  A    between atoms: C_11  and  C_12
REMARK    6  A    between atoms: C_14  and  C_15
REMARK                            x       y       z     vdW  Elec       q    Type
REMARK                         _______ _______ _______ _____ _____    ______ ____
ROOT
ATOM      1  C   UNL     1      16.990  10.480  37.437  0.00  0.00    +0.000 A 
ATOM      2  N   UNL     1      16.899  10.985  36.201  0.00  0.00    +0.000 NA
ATOM      3  C   UNL     1      15.690  11.543  36.074  0.00  0.00    +0.000 A 
ATOM      4  N   UNL     1      15.094  11.349  37.254  0.00  0.00    +0.000 NA
ATOM      5  O   UNL     1      15.867  10.724  38.045  0.00  0.00    +0.000 OA
ENDROOT
BRANCH   3   6
ATOM      6  C   UNL     1      15.126  12.224  34.902  0.00  0.00    +0.000 A 
ATOM      7  C   UNL     1      14.238  13.246  35.065  0.00  0.00    +0.000 A 
ATOM      8  C   UNL     1      13.682  13.915  33.976  0.00  0.00    +0.000 A 
ATOM      9  C   UNL     1      14.048  13.525  32.715  0.00  0.00    +0.000 A 
ATOM     10  C   UNL     1      14.942  12.496  32.540  0.00  0.00    +0.000 A 
ATOM     11  C   UNL     1      15.480  11.847  33.641  0.00  0.00    +0.000 A 
ATOM     12  O   UNL     1      15.144  12.296  31.162  0.00  0.00    +0.000 OA
ATOM     13  C   UNL     1      14.055  12.940  30.486  0.00  0.00    +0.000 C 
ATOM     14  O   UNL     1      13.708  13.949  31.417  0.00  0.00    +0.000 OA
ENDBRANCH   3   6
BRANCH   1  18
ATOM     15  N   UNL     1      19.948   9.486  40.261  0.00  0.00    +0.000 NA
ATOM     16  C   UNL     1      20.403  10.178  39.051  0.00  0.00    +0.000 C 
ATOM     17  C   UNL     1      19.262  10.762  38.290  0.00  0.00    +0.000 C 
ATOM     18  C   UNL     1      18.157   9.765  38.023  0.00  0.00    +0.000 C 
ATOM     19  C   UNL     1      17.785   9.120  39.337  0.00  0.00    +0.000 C 
ATOM     20  C   UNL     1      18.532   9.849  40.432  0.00  0.00    +0.000 C 
BRANCH  15  21
ATOM     21  C   UNL     1      20.050   8.078  39.993  0.00  0.00    +0.000 C 
BRANCH  21  23
ATOM     22  N   UNL     1      19.692   5.983  41.383  0.00  0.00    +0.000 NA
ATOM     23  C   UNL     1      20.244   7.285  41.235  0.00  0.00    +0.000 C 
ATOM     24  O   UNL     1      20.908   7.748  42.200  0.00  0.00    +0.000 OA
BRANCH  22  25
ATOM     25  C   UNL     1      19.920   5.250  42.635  0.00  0.00    +0.000 C 
BRANCH  25  27
ATOM     26  C   UNL     1      17.430   5.049  42.420  0.00  0.00    +0.000 C 
ATOM     27  C   UNL     1      18.623   5.058  43.364  0.00  0.00    +0.000 C 
ENDBRANCH  25  27
ENDBRANCH  22  25
ENDBRANCH  21  23
ENDBRANCH  15  21
ENDBRANCH   1  18
TORSDOF 6
ENDMDL
MODEL 8
REMARK VINA RESULT:      -6.8     20.057     27.175
REMARK  Name = 
REMARK  6 active torsions:
REMARK  status: ('A' for Active; 'I' for Inactive)
REMARK    1  A    between atoms: C_2  and  C_3
REMARK    2  A    between atoms: C_3  and  N_4
REMARK    3  A    between atoms: C_5  and  C_7
REMARK    4  A    between atoms: C_7  and  N_8
REMARK    5  A    between atoms: C_11  and  C_12
REMARK    6  A    between atoms: C_14  and  C_15
REMARK                            x       y       z     vdW  Elec       q    Type
REMARK                         _______ _______ _______ _____ _____    ______ ____
ROOT
ATOM      1  C   UNL     1      28.883  25.077  22.205  0.00  0.00    +0.000 A 
ATOM      2  N   UNL     1      28.972  26.324  21.727  0.00  0.00    +0.000 NA
ATOM      3  C   UNL     1      29.522  26.257  20.509  0.00  0.00    +0.000 A 
ATOM      4  N   UNL     1      29.745  24.957  20.301  0.00  0.00    +0.000 NA
ATOM      5  O   UNL     1      29.365  24.275  21.303  0.00  0.00    +0.000 OA
ENDROOT
BRANCH   3   6
ATOM      6  C   UNL     1      29.821  27.362  19.590  0.00  0.00    +0.000 A 
ATOM      7  C   UNL     1      29.750  28.653  20.023  0.00  0.00    +0.000 A 
ATOM      8  C   UNL     1      30.027  29.727  19.179  0.00  0.00    +0.000 A 
ATOM      9  C   UNL     1      30.380  29.462  17.882  0.00  0.00    +0.000 A 
ATOM     10  C   UNL     1      30.456  28.165  17.435  0.00  0.00    +0.000 A 
ATOM     11  C   UNL     1      30.174  27.115  18.296  0.00  0.00    +0.000 A 
ATOM     12  O   UNL     1      30.835  28.170  16.081  0.00  0.00    +0.000 OA
ATOM     13  C   UNL     1      30.595  29.496  15.588  0.00  0.00    +0.000 C 
ATOM     14  O   UNL     1      30.721  30.259  16.773  0.00  0.00    +0.000 OA
ENDBRANCH   3   6
BRANCH   1  18
ATOM     15  N   UNL     1      25.997  24.018  25.080  0.00  0.00    +0.000 NA
ATOM     16  C   UNL     1      26.631  25.330  25.240  0.00  0.00    +0.000 C 
ATOM     17  C   UNL     1      27.378  25.733  24.014  0.00  0.00    +0.000 C 
ATOM     18  C   UNL     1      28.335  24.668  23.527  0.00  0.00    +0.000 C 
ATOM     19  C   UNL     1      27.567  23.373  23.411  0.00  0.00    +0.000 C 
ATOM     20  C   UNL     1      26.106  23.682  23.651  0.00  0.00    +0.000 C 
BRANCH  15  21
ATOM     21  C   UNL     1      26.778  23.087  25.849  0.00  0.00    +0.000 C 
BRANCH  21  23
ATOM     22  N   UNL     1      27.830  23.177  28.159  0.00  0.00    +0.000 NA
ATOM     23  C   UNL     1      26.709  23.371  27.306  0.00  0.00    +0.000 C 
ATOM     24  O   UNL     1      25.646  23.794  27.832  0.00  0.00    +0.000 OA
BRANCH  22  25
ATOM     25  C   UNL     1      27.698  23.476  29.590  0.00  0.00    +0.000 C 
BRANCH  25  27
ATOM     26  C   UNL     1      26.344  21.584  30.525  0.00  0.00    +0.000 C 
ATOM     27  C   UNL     1      27.726  22.206  30.387  0.00  0.00    +0.000 C 
ENDBRANCH  25  27
ENDBRANCH  22  25
ENDBRANCH  21  23
ENDBRANCH  15  21
ENDBRANCH   1  18
TORSDOF 6
ENDMDL
MODEL 9
REMARK VINA RESULT:      -6.8     22.995     24.907
REMARK  Name = 
REMARK  6 active torsions:
REMARK  status: ('A' for Active; 'I' for Inactive)
REMARK    1  A    between atoms: C_2  and  C_3
REMARK    2  A    between atoms: C_3  and  N_4
REMARK    3  A    between atoms: C_5  and  C_7
REMARK    4  A    between atoms: C_7  and  N_8
REMARK    5  A    between atoms: C_11  and  C_12
REMARK    6  A    between atoms: C_14  and  C_15
REMARK                            x       y       z     vdW  Elec       q    Type
REMARK                         _______ _______ _______ _____ _____    ______ ____
ROOT
ATOM      1  C   UNL     1      33.337  -4.393  33.314  0.00  0.00    +0.000 A 
ATOM      2  N   UNL     1      33.603  -3.108  33.053  0.00  0.00    +0.000 NA
ATOM      3  C   UNL     1      33.340  -2.403  34.159  0.00  0.00    +0.000 A 
ATOM      4  N   UNL     1      32.920  -3.303  35.052  0.00  0.00    +0.000 NA
ATOM      5  O   UNL     1      32.922  -4.468  34.544  0.00  0.00    +0.000 OA
ENDROOT
BRANCH   3   6
ATOM      6  C   UNL     1      33.477  -0.955  34.363  0.00  0.00    +0.000 A 
ATOM      7  C   UNL     1      33.503  -0.441  35.625  0.00  0.00    +0.000 A 
ATOM      8  C   UNL     1      33.632   0.927  35.857  0.00  0.00    +0.000 A 
ATOM      9  C   UNL     1      33.734   1.765  34.778  0.00  0.00    +0.000 A 
ATOM     10  C   UNL     1      33.710   1.257  33.501  0.00  0.00    +0.000 A 
ATOM     11  C   UNL     1      33.580  -0.109  33.299  0.00  0.00    +0.000 A 
ATOM     12  O   UNL     1      33.831   2.317  32.585  0.00  0.00    +0.000 OA
ATOM     13  C   UNL     1      33.519   3.521  33.301  0.00  0.00    +0.000 C 
ATOM     14  O   UNL     1      33.873   3.157  34.622  0.00  0.00    +0.000 OA
ENDBRANCH   3   6
BRANCH   1  18
ATOM     15  N   UNL     1      34.972  -6.722  30.212  0.00  0.00    +0.000 NA
ATOM     16  C   UNL     1      33.687  -6.073  29.937  0.00  0.00    +0.000 C 
ATOM     17  C   UNL     1      33.366  -5.033  30.956  0.00  0.00    +0.000 C 
ATOM     18  C   UNL     1      33.482  -5.540  32.376  0.00  0.00    +0.000 C 
ATOM     19  C   UNL     1      34.838  -6.188  32.528  0.00  0.00    +0.000 C 
ATOM     20  C   UNL     1      35.619  -5.919  31.262  0.00  0.00    +0.000 C 
BRANCH  15  21
ATOM     21  C   UNL     1      34.671  -8.028  30.731  0.00  0.00    +0.000 C 
BRANCH  21  23
ATOM     22  N   UNL     1      36.390  -9.783  30.086  0.00  0.00    +0.000 NA
ATOM     23  C   UNL     1      35.162  -9.110  29.837  0.00  0.00    +0.000 C 
ATOM     24  O   UNL     1      34.500  -9.465  28.826  0.00  0.00    +0.000 OA
BRANCH  22  25
ATOM     25  C   UNL     1      36.821 -10.843  29.167  0.00  0.00    +0.000 C 
BRANCH  25  27
ATOM     26  C   UNL     1      37.873 -10.096  27.018  0.00  0.00    +0.000 C 
ATOM     27  C   UNL     1      38.095 -10.446  28.482  0.00  0.00    +0.000 C 
ENDBRANCH  25  27
ENDBRANCH  22  25
ENDBRANCH  21  23
ENDBRANCH  15  21
ENDBRANCH   1  18
TORSDOF 6
ENDMDL
MODEL 10
REMARK VINA RESULT:      -6.7     20.300     27.261
REMARK  Name = 
REMARK  6 active torsions:
REMARK  status: ('A' for Active; 'I' for Inactive)
REMARK    1  A    between atoms: C_2  and  C_3
REMARK    2  A    between atoms: C_3  and  N_4
REMARK    3  A    between atoms: C_5  and  C_7
REMARK    4  A    between atoms: C_7  and  N_8
REMARK    5  A    between atoms: C_11  and  C_12
REMARK    6  A    between atoms: C_14  and  C_15
REMARK                            x       y       z     vdW  Elec       q    Type
REMARK                         _______ _______ _______ _____ _____    ______ ____
ROOT
ATOM      1  C   UNL     1      29.496  24.969  22.481  0.00  0.00    +0.000 A 
ATOM      2  N   UNL     1      29.452  26.215  21.995  0.00  0.00    +0.000 NA
ATOM      3  C   UNL     1      29.545  26.138  20.663  0.00  0.00    +0.000 A 
ATOM      4  N   UNL     1      29.643  24.833  20.397  0.00  0.00    +0.000 NA
ATOM      5  O   UNL     1      29.613  24.157  21.473  0.00  0.00    +0.000 OA
ENDROOT
BRANCH   3   6
ATOM      6  C   UNL     1      29.542  27.238  19.690  0.00  0.00    +0.000 A 
ATOM      7  C   UNL     1      28.604  28.224  19.774  0.00  0.00    +0.000 A 
ATOM      8  C   UNL     1      28.570  29.284  18.869  0.00  0.00    +0.000 A 
ATOM      9  C   UNL     1      29.511  29.322  17.874  0.00  0.00    +0.000 A 
ATOM     10  C   UNL     1      30.461  28.333  17.781  0.00  0.00    +0.000 A 
ATOM     11  C   UNL     1      30.472  27.290  18.694  0.00  0.00    +0.000 A 
ATOM     12  O   UNL     1      31.298  28.606  16.683  0.00  0.00    +0.000 OA
ATOM     13  C   UNL     1      30.604  29.552  15.858  0.00  0.00    +0.000 C 
ATOM     14  O   UNL     1      29.785  30.203  16.812  0.00  0.00    +0.000 OA
ENDBRANCH   3   6
BRANCH   1  18
ATOM     15  N   UNL     1      29.976  22.548  25.891  0.00  0.00    +0.000 NA
ATOM     16  C   UNL     1      28.604  22.735  25.407  0.00  0.00    +0.000 C 
ATOM     17  C   UNL     1      28.580  23.323  24.037  0.00  0.00    +0.000 C 
ATOM     18  C   UNL     1      29.427  24.570  23.914  0.00  0.00    +0.000 C 
ATOM     19  C   UNL     1      30.803  24.251  24.448  0.00  0.00    +0.000 C 
ATOM     20  C   UNL     1      30.853  22.765  24.729  0.00  0.00    +0.000 C 
BRANCH  15  21
ATOM     21  C   UNL     1      30.212  23.578  26.865  0.00  0.00    +0.000 C 
BRANCH  21  23
ATOM     22  N   UNL     1      28.386  23.936  28.593  0.00  0.00    +0.000 NA
ATOM     23  C   UNL     1      29.568  23.271  28.169  0.00  0.00    +0.000 C 
ATOM     24  O   UNL     1      30.056  22.404  28.942  0.00  0.00    +0.000 OA
BRANCH  22  25
ATOM     25  C   UNL     1      27.797  23.587  29.892  0.00  0.00    +0.000 C 
BRANCH  25  27
ATOM     26  C   UNL     1      26.385  21.588  30.437  0.00  0.00    +0.000 C 
ATOM     27  C   UNL     1      26.472  22.914  29.695  0.00  0.00    +0.000 C 
ENDBRANCH  25  27
ENDBRANCH  22  25
ENDBRANCH  21  23
ENDBRANCH  15  21
ENDBRANCH   1  18
TORSDOF 6
ENDMDL
