MODEL 1
REMARK VINA RESULT:      -8.1      0.000      0.000
REMARK  Name = 
REMARK  1 active torsions:
REMARK  status: ('A' for Active; 'I' for Inactive)
REMARK    1  A    between atoms: C_6  and  N_7
REMARK                            x       y       z     vdW  Elec       q    Type
REMARK                         _______ _______ _______ _____ _____    ______ ____
ROOT
ATOM      1  N   UNL     1      15.416  12.078  35.449  0.00  0.00    +0.000 NA
ATOM      2  C   UNL     1      14.681  11.627  36.576  0.00  0.00    +0.000 A 
ATOM      3  N   UNL     1      13.369  11.800  36.559  0.00  0.00    +0.000 NA
ATOM      4  C   UNL     1      12.536  11.433  37.534  0.00  0.00    +0.000 A 
ATOM      5  N   UNL     1      13.089  10.848  38.608  0.00  0.00    +0.000 NA
ATOM      6  C   UNL     1      14.434  10.657  38.658  0.00  0.00    +0.000 A 
ATOM      7  S   UNL     1      15.473   9.956  39.845  0.00  0.00    +0.000 S 
ATOM      8  C   UNL     1      16.965  10.157  39.041  0.00  0.00    +0.000 A 
ATOM      9  C   UNL     1      16.604  10.763  37.876  0.00  0.00    +0.000 A 
ATOM     10  C   UNL     1      15.308  11.020  37.677  0.00  0.00    +0.000 A 
ATOM     11  C   UNL     1      17.811  11.038  36.993  0.00  0.00    +0.000 C 
ATOM     12  C   UNL     1      18.801  11.727  37.909  0.00  0.00    +0.000 C 
ATOM     13  C   UNL     1      19.392  10.655  38.791  0.00  0.00    +0.000 C 
ATOM     14  C   UNL     1      18.352   9.795  39.439  0.00  0.00    +0.000 C 
ENDROOT
BRANCH   1  20
ATOM     15  O   UNL     1      14.542  12.352  30.682  0.00  0.00    +0.000 OA
ATOM     16  C   UNL     1      14.369  12.851  31.972  0.00  0.00    +0.000 A 
ATOM     17  C   UNL     1      13.587  13.984  32.157  0.00  0.00    +0.000 A 
ATOM     18  C   UNL     1      13.433  14.457  33.448  0.00  0.00    +0.000 A 
ATOM     19  C   UNL     1      14.045  13.810  34.497  0.00  0.00    +0.000 A 
ATOM     20  C   UNL     1      14.822  12.688  34.334  0.00  0.00    +0.000 A 
ATOM     21  C   UNL     1      14.976  12.213  33.033  0.00  0.00    +0.000 A 
ENDBRANCH   1  20
TORSDOF 1
ENDMDL
MODEL 2
REMARK VINA RESULT:      -7.7      2.921      4.448
REMARK  Name = 
REMARK  1 active torsions:
REMARK  status: ('A' for Active; 'I' for Inactive)
REMARK    1  A    between atoms: C_6  and  N_7
REMARK                            x       y       z     vdW  Elec       q    Type
REMARK                         _______ _______ _______ _____ _____    ______ ____
ROOT
ATOM      1  N   UNL     1      14.959  10.642  38.788  0.00  0.00    +0.000 NA
ATOM      2  C   UNL     1      16.193  10.438  38.116  0.00  0.00    +0.000 A 
ATOM      3  N   UNL     1      16.239  10.724  36.824  0.00  0.00    +0.000 NA
ATOM      4  C   UNL     1      17.316  10.591  36.049  0.00  0.00    +0.000 A 
ATOM      5  N   UNL     1      18.429  10.130  36.642  0.00  0.00    +0.000 NA
ATOM      6  C   UNL     1      18.415   9.826  37.967  0.00  0.00    +0.000 A 
ATOM      7  S   UNL     1      19.624   9.226  39.043  0.00  0.00    +0.000 S 
ATOM      8  C   UNL     1      18.696   9.164  40.475  0.00  0.00    +0.000 A 
ATOM      9  C   UNL     1      17.477   9.613  40.066  0.00  0.00    +0.000 A 
ATOM     10  C   UNL     1      17.330   9.953  38.782  0.00  0.00    +0.000 A 
ATOM     11  C   UNL     1      16.479   9.637  41.214  0.00  0.00    +0.000 C 
ATOM     12  C   UNL     1      16.589   8.263  41.841  0.00  0.00    +0.000 C 
ATOM     13  C   UNL     1      17.869   8.255  42.640  0.00  0.00    +0.000 C 
ATOM     14  C   UNL     1      19.049   8.740  41.856  0.00  0.00    +0.000 C 
ENDROOT
BRANCH   1  20
ATOM     15  O   UNL     1      12.690  13.730  35.809  0.00  0.00    +0.000 OA
ATOM     16  C   UNL     1      12.649  12.642  36.679  0.00  0.00    +0.000 A 
ATOM     17  C   UNL     1      11.432  12.021  36.925  0.00  0.00    +0.000 A 
ATOM     18  C   UNL     1      11.421  10.943  37.794  0.00  0.00    +0.000 A 
ATOM     19  C   UNL     1      12.591  10.522  38.383  0.00  0.00    +0.000 A 
ATOM     20  C   UNL     1      13.805  11.124  38.153  0.00  0.00    +0.000 A 
ATOM     21  C   UNL     1      13.813  12.208  37.277  0.00  0.00    +0.000 A 
ENDBRANCH   1  20
TORSDOF 1
ENDMDL
MODEL 3
REMARK VINA RESULT:      -7.7      1.826      2.102
REMARK  Name = 
REMARK  1 active torsions:
REMARK  status: ('A' for Active; 'I' for Inactive)
REMARK    1  A    between atoms: C_6  and  N_7
REMARK                            x       y       z     vdW  Elec       q    Type
REMARK                         _______ _______ _______ _____ _____    ______ ____
ROOT
ATOM      1  N   UNL     1      16.408  10.790  34.402  0.00  0.00    +0.000 NA
ATOM      2  C   UNL     1      15.712  11.058  35.609  0.00  0.00    +0.000 A 
ATOM      3  N   UNL     1      14.540  11.667  35.517  0.00  0.00    +0.000 NA
ATOM      4  C   UNL     1      13.762  11.990  36.550  0.00  0.00    +0.000 A 
ATOM      5  N   UNL     1      14.219  11.666  37.771  0.00  0.00    +0.000 NA
ATOM      6  C   UNL     1      15.419  11.041  37.901  0.00  0.00    +0.000 A 
ATOM      7  S   UNL     1      16.306  10.484  39.273  0.00  0.00    +0.000 S 
ATOM      8  C   UNL     1      17.668   9.845  38.466  0.00  0.00    +0.000 A 
ATOM      9  C   UNL     1      17.385  10.086  37.155  0.00  0.00    +0.000 A 
ATOM     10  C   UNL     1      16.234  10.698  36.863  0.00  0.00    +0.000 A 
ATOM     11  C   UNL     1      18.495   9.584  36.245  0.00  0.00    +0.000 C 
ATOM     12  C   UNL     1      19.764  10.152  36.845  0.00  0.00    +0.000 C 
ATOM     13  C   UNL     1      20.070   9.325  38.069  0.00  0.00    +0.000 C 
ATOM     14  C   UNL     1      18.893   9.179  38.983  0.00  0.00    +0.000 C 
ENDROOT
BRANCH   1  20
ATOM     15  O   UNL     1      16.397  13.585  30.434  0.00  0.00    +0.000 OA
ATOM     16  C   UNL     1      15.886  12.505  31.150  0.00  0.00    +0.000 A 
ATOM     17  C   UNL     1      14.862  11.751  30.594  0.00  0.00    +0.000 A 
ATOM     18  C   UNL     1      14.374  10.683  31.328  0.00  0.00    +0.000 A 
ATOM     19  C   UNL     1      14.903  10.401  32.566  0.00  0.00    +0.000 A 
ATOM     20  C   UNL     1      15.916  11.135  33.135  0.00  0.00    +0.000 A 
ATOM     21  C   UNL     1      16.406  12.209  32.393  0.00  0.00    +0.000 A 
ENDBRANCH   1  20
TORSDOF 1
ENDMDL
MODEL 4
REMARK VINA RESULT:      -7.0      3.134      4.996
REMARK  Name = 
REMARK  1 active torsions:
REMARK  status: ('A' for Active; 'I' for Inactive)
REMARK    1  A    between atoms: C_6  and  N_7
REMARK                            x       y       z     vdW  Elec       q    Type
REMARK                         _______ _______ _______ _____ _____    ______ ____
ROOT
ATOM      1  N   UNL     1      17.031  10.162  37.903  0.00  0.00    +0.000 NA
ATOM      2  C   UNL     1      18.313  10.294  38.499  0.00  0.00    +0.000 A 
ATOM      3  N   UNL     1      19.310  10.688  37.722  0.00  0.00    +0.000 NA
ATOM      4  C   UNL     1      20.570  10.862  38.123  0.00  0.00    +0.000 A 
ATOM      5  N   UNL     1      20.828  10.612  39.417  0.00  0.00    +0.000 NA
ATOM      6  C   UNL     1      19.827  10.206  40.241  0.00  0.00    +0.000 A 
ATOM      7  S   UNL     1      19.784   9.802  41.919  0.00  0.00    +0.000 S 
ATOM      8  C   UNL     1      18.126   9.418  42.056  0.00  0.00    +0.000 A 
ATOM      9  C   UNL     1      17.662   9.617  40.790  0.00  0.00    +0.000 A 
ATOM     10  C   UNL     1      18.532  10.021  39.859  0.00  0.00    +0.000 A 
ATOM     11  C   UNL     1      16.174   9.324  40.690  0.00  0.00    +0.000 C 
ATOM     12  C   UNL     1      16.011   7.962  41.331  0.00  0.00    +0.000 C 
ATOM     13  C   UNL     1      16.111   8.173  42.822  0.00  0.00    +0.000 C 
ATOM     14  C   UNL     1      17.314   8.971  43.219  0.00  0.00    +0.000 C 
ENDROOT
BRANCH   1  20
ATOM     15  O   UNL     1      14.754  12.592  34.372  0.00  0.00    +0.000 OA
ATOM     16  C   UNL     1      15.664  11.616  34.772  0.00  0.00    +0.000 A 
ATOM     17  C   UNL     1      16.339  10.886  33.803  0.00  0.00    +0.000 A 
ATOM     18  C   UNL     1      17.238   9.923  34.229  0.00  0.00    +0.000 A 
ATOM     19  C   UNL     1      17.437   9.715  35.575  0.00  0.00    +0.000 A 
ATOM     20  C   UNL     1      16.779  10.427  36.549  0.00  0.00    +0.000 A 
ATOM     21  C   UNL     1      15.875  11.396  36.117  0.00  0.00    +0.000 A 
ENDBRANCH   1  20
TORSDOF 1
ENDMDL
MODEL 5
REMARK VINA RESULT:      -6.9      4.605      7.497
REMARK  Name = 
REMARK  1 active torsions:
REMARK  status: ('A' for Active; 'I' for Inactive)
REMARK    1  A    between atoms: C_6  and  N_7
REMARK                            x       y       z     vdW  Elec       q    Type
REMARK                         _______ _______ _______ _____ _____    ______ ____
ROOT
ATOM      1  N   UNL     1      20.614  10.508  37.592  0.00  0.00    +0.000 NA
ATOM      2  C   UNL     1      20.109   9.805  38.717  0.00  0.00    +0.000 A 
ATOM      3  N   UNL     1      20.974   9.121  39.449  0.00  0.00    +0.000 NA
ATOM      4  C   UNL     1      20.666   8.410  40.534  0.00  0.00    +0.000 A 
ATOM      5  N   UNL     1      19.373   8.399  40.897  0.00  0.00    +0.000 NA
ATOM      6  C   UNL     1      18.458   9.091  40.167  0.00  0.00    +0.000 A 
ATOM      7  S   UNL     1      16.753   9.303  40.326  0.00  0.00    +0.000 S 
ATOM      8  C   UNL     1      16.485  10.312  38.975  0.00  0.00    +0.000 A 
ATOM      9  C   UNL     1      17.733  10.450  38.446  0.00  0.00    +0.000 A 
ATOM     10  C   UNL     1      18.746   9.825  39.055  0.00  0.00    +0.000 A 
ATOM     11  C   UNL     1      17.719  11.331  37.207  0.00  0.00    +0.000 C 
ATOM     12  C   UNL     1      16.611  10.760  36.348  0.00  0.00    +0.000 C 
ATOM     13  C   UNL     1      15.310  11.205  36.970  0.00  0.00    +0.000 C 
ATOM     14  C   UNL     1      15.241  10.927  38.440  0.00  0.00    +0.000 C 
ENDROOT
BRANCH   1  20
ATOM     15  O   UNL     1      25.058  12.459  37.651  0.00  0.00    +0.000 OA
ATOM     16  C   UNL     1      24.187  11.453  37.237  0.00  0.00    +0.000 A 
ATOM     17  C   UNL     1      24.674  10.424  36.442  0.00  0.00    +0.000 A 
ATOM     18  C   UNL     1      23.786   9.439  36.047  0.00  0.00    +0.000 A 
ATOM     19  C   UNL     1      22.469   9.500  36.441  0.00  0.00    +0.000 A 
ATOM     20  C   UNL     1      21.968  10.509  37.227  0.00  0.00    +0.000 A 
ATOM     21  C   UNL     1      22.864  11.500  37.625  0.00  0.00    +0.000 A 
ENDBRANCH   1  20
TORSDOF 1
ENDMDL
MODEL 6
REMARK VINA RESULT:      -6.9      4.467      6.654
REMARK  Name = 
REMARK  1 active torsions:
REMARK  status: ('A' for Active; 'I' for Inactive)
REMARK    1  A    between atoms: C_6  and  N_7
REMARK                            x       y       z     vdW  Elec       q    Type
REMARK                         _______ _______ _______ _____ _____    ______ ____
ROOT
ATOM      1  N   UNL     1      19.669  11.379  37.674  0.00  0.00    +0.000 NA
ATOM      2  C   UNL     1      20.420  12.459  38.206  0.00  0.00    +0.000 A 
ATOM      3  N   UNL     1      19.747  13.481  38.712  0.00  0.00    +0.000 NA
ATOM      4  C   UNL     1      20.298  14.570  39.250  0.00  0.00    +0.000 A 
ATOM      5  N   UNL     1      21.640  14.616  39.270  0.00  0.00    +0.000 NA
ATOM      6  C   UNL     1      22.361  13.584  38.757  0.00  0.00    +0.000 A 
ATOM      7  S   UNL     1      24.057  13.300  38.613  0.00  0.00    +0.000 S 
ATOM      8  C   UNL     1      24.006  11.771  37.856  0.00  0.00    +0.000 A 
ATOM      9  C   UNL     1      22.669  11.533  37.742  0.00  0.00    +0.000 A 
ATOM     10  C   UNL     1      21.825  12.460  38.203  0.00  0.00    +0.000 A 
ATOM     11  C   UNL     1      22.397  10.192  37.079  0.00  0.00    +0.000 C 
ATOM     12  C   UNL     1      23.255  10.204  35.832  0.00  0.00    +0.000 C 
ATOM     13  C   UNL     1      24.675   9.961  36.282  0.00  0.00    +0.000 C 
ATOM     14  C   UNL     1      25.093  10.862  37.403  0.00  0.00    +0.000 C 
ENDROOT
BRANCH   1  20
ATOM     15  O   UNL     1      15.369  12.898  36.010  0.00  0.00    +0.000 OA
ATOM     16  C   UNL     1      16.116  12.080  36.855  0.00  0.00    +0.000 A 
ATOM     17  C   UNL     1      15.452  11.208  37.708  0.00  0.00    +0.000 A 
ATOM     18  C   UNL     1      16.218  10.407  38.536  0.00  0.00    +0.000 A 
ATOM     19  C   UNL     1      17.591  10.491  38.497  0.00  0.00    +0.000 A 
ATOM     20  C   UNL     1      18.267  11.347  37.661  0.00  0.00    +0.000 A 
ATOM     21  C   UNL     1      17.493  12.152  36.827  0.00  0.00    +0.000 A 
ENDBRANCH   1  20
TORSDOF 1
ENDMDL
MODEL 7
REMARK VINA RESULT:      -6.8      2.093      2.991
REMARK  Name = 
REMARK  1 active torsions:
REMARK  status: ('A' for Active; 'I' for Inactive)
REMARK    1  A    between atoms: C_6  and  N_7
REMARK                            x       y       z     vdW  Elec       q    Type
REMARK                         _______ _______ _______ _____ _____    ______ ____
ROOT
ATOM      1  N   UNL     1      17.607  10.596  35.567  0.00  0.00    +0.000 NA
ATOM      2  C   UNL     1      17.085  10.499  36.883  0.00  0.00    +0.000 A 
ATOM      3  N   UNL     1      15.802  10.777  37.054  0.00  0.00    +0.000 NA
ATOM      4  C   UNL     1      15.159  10.733  38.221  0.00  0.00    +0.000 A 
ATOM      5  N   UNL     1      15.884  10.379  39.294  0.00  0.00    +0.000 NA
ATOM      6  C   UNL     1      17.204  10.087  39.153  0.00  0.00    +0.000 A 
ATOM      7  S   UNL     1      18.423   9.606  40.277  0.00  0.00    +0.000 S 
ATOM      8  C   UNL     1      19.739   9.473  39.198  0.00  0.00    +0.000 A 
ATOM      9  C   UNL     1      19.185   9.808  38.000  0.00  0.00    +0.000 A 
ATOM     10  C   UNL     1      17.887  10.123  37.974  0.00  0.00    +0.000 A 
ATOM     11  C   UNL     1      20.210   9.753  36.878  0.00  0.00    +0.000 C 
ATOM     12  C   UNL     1      21.386  10.552  37.398  0.00  0.00    +0.000 C 
ATOM     13  C   UNL     1      22.091   9.678  38.405  0.00  0.00    +0.000 C 
ATOM     14  C   UNL     1      21.160   9.096  39.424  0.00  0.00    +0.000 C 
ENDROOT
BRANCH   1  20
ATOM     15  O   UNL     1      14.172  13.301  33.458  0.00  0.00    +0.000 OA
ATOM     16  C   UNL     1      15.134  12.296  33.380  0.00  0.00    +0.000 A 
ATOM     17  C   UNL     1      15.333  11.646  32.170  0.00  0.00    +0.000 A 
ATOM     18  C   UNL     1      16.295  10.652  32.121  0.00  0.00    +0.000 A 
ATOM     19  C   UNL     1      17.017  10.337  33.250  0.00  0.00    +0.000 A 
ATOM     20  C   UNL     1      16.835  10.968  34.457  0.00  0.00    +0.000 A 
ATOM     21  C   UNL     1      15.866  11.969  34.502  0.00  0.00    +0.000 A 
ENDBRANCH   1  20
TORSDOF 1
ENDMDL
MODEL 8
REMARK VINA RESULT:      -6.7      4.706      8.007
REMARK  Name = 
REMARK  1 active torsions:
REMARK  status: ('A' for Active; 'I' for Inactive)
REMARK    1  A    between atoms: C_6  and  N_7
REMARK                            x       y       z     vdW  Elec       q    Type
REMARK                         _______ _______ _______ _____ _____    ______ ____
ROOT
ATOM      1  N   UNL     1      16.170   9.608  40.471  0.00  0.00    +0.000 NA
ATOM      2  C   UNL     1      17.330   9.555  39.653  0.00  0.00    +0.000 A 
ATOM      3  N   UNL     1      18.432   9.051  40.187  0.00  0.00    +0.000 NA
ATOM      4  C   UNL     1      19.601   8.930  39.558  0.00  0.00    +0.000 A 
ATOM      5  N   UNL     1      19.645   9.358  38.286  0.00  0.00    +0.000 NA
ATOM      6  C   UNL     1      18.532   9.881  37.708  0.00  0.00    +0.000 A 
ATOM      7  S   UNL     1      18.220  10.517  36.134  0.00  0.00    +0.000 S 
ATOM      8  C   UNL     1      16.574  10.924  36.335  0.00  0.00    +0.000 A 
ATOM      9  C   UNL     1      16.324  10.551  37.621  0.00  0.00    +0.000 A 
ATOM     10  C   UNL     1      17.325  10.016  38.326  0.00  0.00    +0.000 A 
ATOM     11  C   UNL     1      14.882  10.834  38.012  0.00  0.00    +0.000 C 
ATOM     12  C   UNL     1      14.653  12.273  37.602  0.00  0.00    +0.000 C 
ATOM     13  C   UNL     1      14.495  12.275  36.101  0.00  0.00    +0.000 C 
ATOM     14  C   UNL     1      15.592  11.535  35.399  0.00  0.00    +0.000 C 
ENDROOT
BRANCH   1  20
ATOM     15  O   UNL     1      16.730  10.309  45.241  0.00  0.00    +0.000 OA
ATOM     16  C   UNL     1      16.410   9.473  44.173  0.00  0.00    +0.000 A 
ATOM     17  C   UNL     1      16.052   8.157  44.432  0.00  0.00    +0.000 A 
ATOM     18  C   UNL     1      15.739   7.349  43.352  0.00  0.00    +0.000 A 
ATOM     19  C   UNL     1      15.789   7.857  42.075  0.00  0.00    +0.000 A 
ATOM     20  C   UNL     1      16.141   9.157  41.798  0.00  0.00    +0.000 A 
ATOM     21  C   UNL     1      16.455   9.968  42.886  0.00  0.00    +0.000 A 
ENDBRANCH   1  20
TORSDOF 1
ENDMDL
MODEL 9
REMARK VINA RESULT:      -6.7     23.277     24.098
REMARK  Name = 
REMARK  1 active torsions:
REMARK  status: ('A' for Active; 'I' for Inactive)
REMARK    1  A    between atoms: C_6  and  N_7
REMARK                            x       y       z     vdW  Elec       q    Type
REMARK                         _______ _______ _______ _____ _____    ______ ____
ROOT
ATOM      1  N   UNL     1      21.358  -7.593  25.241  0.00  0.00    +0.000 NA
ATOM      2  C   UNL     1      21.943  -8.797  25.713  0.00  0.00    +0.000 A 
ATOM      3  N   UNL     1      21.279  -9.479  26.634  0.00  0.00    +0.000 NA
ATOM      4  C   UNL     1      21.688 -10.625  27.180  0.00  0.00    +0.000 A 
ATOM      5  N   UNL     1      22.866 -11.107  26.753  0.00  0.00    +0.000 NA
ATOM      6  C   UNL     1      23.573 -10.430  25.810  0.00  0.00    +0.000 A 
ATOM      7  S   UNL     1      25.087 -10.737  25.039  0.00  0.00    +0.000 S 
ATOM      8  C   UNL     1      25.149  -9.366  24.024  0.00  0.00    +0.000 A 
ATOM      9  C   UNL     1      23.989  -8.716  24.320  0.00  0.00    +0.000 A 
ATOM     10  C   UNL     1      23.180  -9.259  25.234  0.00  0.00    +0.000 A 
ATOM     11  C   UNL     1      23.843  -7.439  23.508  0.00  0.00    +0.000 C 
ATOM     12  C   UNL     1      25.162  -6.719  23.693  0.00  0.00    +0.000 C 
ATOM     13  C   UNL     1      26.170  -7.435  22.829  0.00  0.00    +0.000 C 
ATOM     14  C   UNL     1      26.170  -8.918  23.040  0.00  0.00    +0.000 C 
ENDROOT
BRANCH   1  20
ATOM     15  O   UNL     1      16.678  -8.185  26.388  0.00  0.00    +0.000 OA
ATOM     16  C   UNL     1      17.799  -7.365  26.276  0.00  0.00    +0.000 A 
ATOM     17  C   UNL     1      17.692  -6.026  26.626  0.00  0.00    +0.000 A 
ATOM     18  C   UNL     1      18.821  -5.235  26.506  0.00  0.00    +0.000 A 
ATOM     19  C   UNL     1      19.999  -5.781  26.050  0.00  0.00    +0.000 A 
ATOM     20  C   UNL     1      20.126  -7.103  25.697  0.00  0.00    +0.000 A 
ATOM     21  C   UNL     1      18.987  -7.898  25.821  0.00  0.00    +0.000 A 
ENDBRANCH   1  20
TORSDOF 1
ENDMDL
MODEL 10
REMARK VINA RESULT:      -6.6     18.878     20.226
REMARK  Name = 
REMARK  1 active torsions:
REMARK  status: ('A' for Active; 'I' for Inactive)
REMARK    1  A    between atoms: C_6  and  N_7
REMARK                            x       y       z     vdW  Elec       q    Type
REMARK                         _______ _______ _______ _____ _____    ______ ____
ROOT
ATOM      1  N   UNL     1      28.718  23.553  25.553  0.00  0.00    +0.000 NA
ATOM      2  C   UNL     1      27.985  23.548  26.769  0.00  0.00    +0.000 A 
ATOM      3  N   UNL     1      26.708  23.893  26.713  0.00  0.00    +0.000 NA
ATOM      4  C   UNL     1      25.882  23.939  27.759  0.00  0.00    +0.000 A 
ATOM      5  N   UNL     1      26.403  23.610  28.951  0.00  0.00    +0.000 NA
ATOM      6  C   UNL     1      27.711  23.252  29.043  0.00  0.00    +0.000 A 
ATOM      7  S   UNL     1      28.703  22.776  30.373  0.00  0.00    +0.000 S 
ATOM      8  C   UNL     1      30.169  22.528  29.534  0.00  0.00    +0.000 A 
ATOM      9  C   UNL     1      29.836  22.824  28.247  0.00  0.00    +0.000 A 
ATOM     10  C   UNL     1      28.577  23.195  27.993  0.00  0.00    +0.000 A 
ATOM     11  C   UNL     1      31.025  22.664  27.313  0.00  0.00    +0.000 C 
ATOM     12  C   UNL     1      32.141  23.436  27.984  0.00  0.00    +0.000 C 
ATOM     13  C   UNL     1      32.626  22.585  29.132  0.00  0.00    +0.000 C 
ATOM     14  C   UNL     1      31.513  22.100  30.008  0.00  0.00    +0.000 C 
ENDROOT
BRANCH   1  20
ATOM     15  O   UNL     1      25.494  22.902  21.984  0.00  0.00    +0.000 OA
ATOM     16  C   UNL     1      26.570  23.603  22.526  0.00  0.00    +0.000 A 
ATOM     17  C   UNL     1      27.101  24.674  21.820  0.00  0.00    +0.000 A 
ATOM     18  C   UNL     1      28.168  25.352  22.382  0.00  0.00    +0.000 A 
ATOM     19  C   UNL     1      28.669  24.957  23.602  0.00  0.00    +0.000 A 
ATOM     20  C   UNL     1      28.158  23.900  24.316  0.00  0.00    +0.000 A 
ATOM     21  C   UNL     1      27.083  23.219  23.748  0.00  0.00    +0.000 A 
ENDBRANCH   1  20
TORSDOF 1
ENDMDL
