MODEL 1
REMARK VINA RESULT:      -7.6      0.000      0.000
REMARK  Name = 
REMARK  8 active torsions:
REMARK  status: ('A' for Active; 'I' for Inactive)
REMARK    1  A    between atoms: O_2  and  C_3
REMARK    2  A    between atoms: C_6  and  C_7
REMARK    3  A    between atoms: C_9  and  C_10
REMARK    4  A    between atoms: C_16  and  C_17
REMARK    5  A    between atoms: C_19  and  S_20
REMARK    6  A    between atoms: S_20  and  C_21
REMARK    7  A    between atoms: C_21  and  C_22
REMARK    8  A    between atoms: C_22  and  N_23
REMARK                            x       y       z     vdW  Elec       q    Type
REMARK                         _______ _______ _______ _____ _____    ______ ____
ROOT
ATOM      1  C   UNL     1      36.424   2.673  15.635  0.00  0.00    +0.000 A 
ATOM      2  C   UNL     1      35.695   3.463  14.768  0.00  0.00    +0.000 A 
ATOM      3  C   UNL     1      36.076   4.739  14.504  0.00  0.00    +0.000 A 
ATOM      4  C   UNL     1      37.214   5.268  15.110  0.00  0.00    +0.000 A 
ATOM      5  C   UNL     1      37.921   4.483  15.959  0.00  0.00    +0.000 A 
ATOM      6  N   UNL     1      37.505   3.219  16.193  0.00  0.00    +0.000 NA
ENDROOT
BRANCH   1  10
ATOM      7  C   UNL     1      35.253  -1.324  16.472  0.00  0.00    +0.000 A 
ATOM      8  C   UNL     1      34.731  -0.262  17.176  0.00  0.00    +0.000 A 
ATOM      9  C   UNL     1      35.114   1.054  16.900  0.00  0.00    +0.000 A 
ATOM     10  C   UNL     1      36.020   1.308  15.923  0.00  0.00    +0.000 A 
ATOM     11  C   UNL     1      36.558   0.264  15.203  0.00  0.00    +0.000 A 
ATOM     12  C   UNL     1      36.177  -1.048  15.476  0.00  0.00    +0.000 A 
BRANCH   7  14
ATOM     13  C   UNL     1      35.455  -3.672  15.946  0.00  0.00    +0.000 C 
ATOM     14  O   UNL     1      34.877  -2.638  16.739  0.00  0.00    +0.000 OA
ENDBRANCH   7  14
ENDBRANCH   1  10
BRANCH   3  15
ATOM     15  C   UNL     1      35.322   5.603  13.585  0.00  0.00    +0.000 A 
ATOM     16  C   UNL     1      35.734   5.750  12.282  0.00  0.00    +0.000 A 
ATOM     17  C   UNL     1      35.025   6.554  11.443  0.00  0.00    +0.000 A 
ATOM     18  C   UNL     1      33.909   7.212  11.900  0.00  0.00    +0.000 A 
ATOM     19  C   UNL     1      33.480   7.082  13.188  0.00  0.00    +0.000 A 
ATOM     20  C   UNL     1      34.197   6.271  14.023  0.00  0.00    +0.000 A 
ENDBRANCH   3  15
BRANCH   4  21
ATOM     21  C   UNL     1      37.585   6.610  14.821  0.00  0.00    +0.000 C 
ATOM     22  N   UNL     1      37.869   7.690  14.609  0.00  0.00    +0.000 NA
ENDBRANCH   4  21
BRANCH   5  23
ATOM     23  S   UNL     1      39.387   5.001  16.808  0.00  0.00    +0.000 S 
BRANCH  23  24
ATOM     24  C   UNL     1      38.989   5.247  18.552  0.00  0.00    +0.000 C 
BRANCH  24  25
ATOM     25  C   UNL     1      39.818   6.356  19.144  0.00  0.00    +0.000 C 
BRANCH  25  26
ATOM     26  N   UNL     1      38.949   7.240  19.957  0.00  0.00    +0.000 NA
ATOM     27  C   UNL     1      37.941   7.687  18.970  0.00  0.00    +0.000 C 
ATOM     28  C   UNL     1      37.116   8.825  19.493  0.00  0.00    +0.000 C 
ATOM     29  C   UNL     1      38.030  10.023  19.765  0.00  0.00    +0.000 C 
ATOM     30  C   UNL     1      38.983   9.539  20.862  0.00  0.00    +0.000 C 
ATOM     31  C   UNL     1      39.769   8.399  20.305  0.00  0.00    +0.000 C 
ENDBRANCH  25  26
ENDBRANCH  24  25
ENDBRANCH  23  24
ENDBRANCH   5  23
TORSDOF 8
ENDMDL
MODEL 2
REMARK VINA RESULT:      -7.6      4.409      8.269
REMARK  Name = 
REMARK  8 active torsions:
REMARK  status: ('A' for Active; 'I' for Inactive)
REMARK    1  A    between atoms: O_2  and  C_3
REMARK    2  A    between atoms: C_6  and  C_7
REMARK    3  A    between atoms: C_9  and  C_10
REMARK    4  A    between atoms: C_16  and  C_17
REMARK    5  A    between atoms: C_19  and  S_20
REMARK    6  A    between atoms: S_20  and  C_21
REMARK    7  A    between atoms: C_21  and  C_22
REMARK    8  A    between atoms: C_22  and  N_23
REMARK                            x       y       z     vdW  Elec       q    Type
REMARK                         _______ _______ _______ _____ _____    ______ ____
ROOT
ATOM      1  C   UNL     1      38.339  -1.344  15.512  0.00  0.00    +0.000 A 
ATOM      2  C   UNL     1      37.635  -2.509  15.275  0.00  0.00    +0.000 A 
ATOM      3  C   UNL     1      36.382  -2.676  15.768  0.00  0.00    +0.000 A 
ATOM      4  C   UNL     1      35.788  -1.667  16.523  0.00  0.00    +0.000 A 
ATOM      5  C   UNL     1      36.488  -0.528  16.750  0.00  0.00    +0.000 A 
ATOM      6  N   UNL     1      37.733  -0.405  16.241  0.00  0.00    +0.000 NA
ENDROOT
BRANCH   1  10
ATOM      7  C   UNL     1      42.267  -0.818  13.981  0.00  0.00    +0.000 A 
ATOM      8  C   UNL     1      41.369   0.225  14.025  0.00  0.00    +0.000 A 
ATOM      9  C   UNL     1      40.076   0.053  14.530  0.00  0.00    +0.000 A 
ATOM     10  C   UNL     1      39.681  -1.160  14.989  0.00  0.00    +0.000 A 
ATOM     11  C   UNL     1      40.560  -2.221  14.957  0.00  0.00    +0.000 A 
ATOM     12  C   UNL     1      41.848  -2.052  14.455  0.00  0.00    +0.000 A 
BRANCH   7  14
ATOM     13  C   UNL     1      44.246  -1.819  13.026  0.00  0.00    +0.000 C 
ATOM     14  O   UNL     1      43.556  -0.657  13.480  0.00  0.00    +0.000 OA
ENDBRANCH   7  14
ENDBRANCH   1  10
BRANCH   3  15
ATOM     15  C   UNL     1      35.608  -3.902  15.530  0.00  0.00    +0.000 A 
ATOM     16  C   UNL     1      35.905  -5.051  16.223  0.00  0.00    +0.000 A 
ATOM     17  C   UNL     1      35.179  -6.179  15.990  0.00  0.00    +0.000 A 
ATOM     18  C   UNL     1      34.160  -6.164  15.069  0.00  0.00    +0.000 A 
ATOM     19  C   UNL     1      33.847  -5.036  14.368  0.00  0.00    +0.000 A 
ATOM     20  C   UNL     1      34.581  -3.908  14.609  0.00  0.00    +0.000 A 
ENDBRANCH   3  15
BRANCH   4  21
ATOM     21  C   UNL     1      34.476  -1.872  17.034  0.00  0.00    +0.000 C 
ATOM     22  N   UNL     1      33.420  -2.038  17.420  0.00  0.00    +0.000 NA
ENDBRANCH   4  21
BRANCH   5  23
ATOM     23  S   UNL     1      35.879   0.846  17.687  0.00  0.00    +0.000 S 
BRANCH  23  24
ATOM     24  C   UNL     1      35.674   2.257  16.578  0.00  0.00    +0.000 C 
BRANCH  24  25
ATOM     25  C   UNL     1      36.836   3.207  16.693  0.00  0.00    +0.000 C 
BRANCH  25  26
ATOM     26  N   UNL     1      37.865   2.850  15.687  0.00  0.00    +0.000 NA
ATOM     27  C   UNL     1      38.734   4.048  15.682  0.00  0.00    +0.000 C 
ATOM     28  C   UNL     1      39.688   4.039  14.525  0.00  0.00    +0.000 C 
ATOM     29  C   UNL     1      38.891   4.066  13.218  0.00  0.00    +0.000 C 
ATOM     30  C   UNL     1      38.092   2.760  13.228  0.00  0.00    +0.000 C 
ATOM     31  C   UNL     1      37.170   2.804  14.401  0.00  0.00    +0.000 C 
ENDBRANCH  25  26
ENDBRANCH  24  25
ENDBRANCH  23  24
ENDBRANCH   5  23
TORSDOF 8
ENDMDL
MODEL 3
REMARK VINA RESULT:      -7.4      1.770      5.623
REMARK  Name = 
REMARK  8 active torsions:
REMARK  status: ('A' for Active; 'I' for Inactive)
REMARK    1  A    between atoms: O_2  and  C_3
REMARK    2  A    between atoms: C_6  and  C_7
REMARK    3  A    between atoms: C_9  and  C_10
REMARK    4  A    between atoms: C_16  and  C_17
REMARK    5  A    between atoms: C_19  and  S_20
REMARK    6  A    between atoms: S_20  and  C_21
REMARK    7  A    between atoms: C_21  and  C_22
REMARK    8  A    between atoms: C_22  and  N_23
REMARK                            x       y       z     vdW  Elec       q    Type
REMARK                         _______ _______ _______ _____ _____    ______ ____
ROOT
ATOM      1  C   UNL     1      37.426   3.346  15.938  0.00  0.00    +0.000 A 
ATOM      2  C   UNL     1      37.758   4.086  17.056  0.00  0.00    +0.000 A 
ATOM      3  C   UNL     1      38.405   5.272  16.938  0.00  0.00    +0.000 A 
ATOM      4  C   UNL     1      38.743   5.761  15.677  0.00  0.00    +0.000 A 
ATOM      5  C   UNL     1      38.413   5.027  14.587  0.00  0.00    +0.000 A 
ATOM      6  N   UNL     1      37.769   3.851  14.751  0.00  0.00    +0.000 NA
ENDROOT
BRANCH   1  10
ATOM      7  C   UNL     1      35.397  -0.369  16.293  0.00  0.00    +0.000 A 
ATOM      8  C   UNL     1      36.487  -0.224  15.465  0.00  0.00    +0.000 A 
ATOM      9  C   UNL     1      37.156   0.998  15.347  0.00  0.00    +0.000 A 
ATOM     10  C   UNL     1      36.736   2.075  16.058  0.00  0.00    +0.000 A 
ATOM     11  C   UNL     1      35.648   1.957  16.894  0.00  0.00    +0.000 A 
ATOM     12  C   UNL     1      34.980   0.740  17.013  0.00  0.00    +0.000 A 
BRANCH   7  14
ATOM     13  C   UNL     1      33.723  -1.691  17.426  0.00  0.00    +0.000 C 
ATOM     14  O   UNL     1      34.724  -1.582  16.416  0.00  0.00    +0.000 OA
ENDBRANCH   7  14
ENDBRANCH   1  10
BRANCH   3  15
ATOM     15  C   UNL     1      38.768   6.082  18.109  0.00  0.00    +0.000 A 
ATOM     16  C   UNL     1      39.856   5.739  18.875  0.00  0.00    +0.000 A 
ATOM     17  C   UNL     1      40.179   6.499  19.957  0.00  0.00    +0.000 A 
ATOM     18  C   UNL     1      39.420   7.598  20.278  0.00  0.00    +0.000 A 
ATOM     19  C   UNL     1      38.335   7.959  19.533  0.00  0.00    +0.000 A 
ATOM     20  C   UNL     1      38.019   7.190  18.448  0.00  0.00    +0.000 A 
ENDBRANCH   3  15
BRANCH   4  21
ATOM     21  C   UNL     1      39.428   7.005  15.583  0.00  0.00    +0.000 C 
ATOM     22  N   UNL     1      39.994   7.988  15.516  0.00  0.00    +0.000 NA
ENDBRANCH   4  21
BRANCH   5  23
ATOM     23  S   UNL     1      38.769   5.505  12.919  0.00  0.00    +0.000 S 
BRANCH  23  24
ATOM     24  C   UNL     1      37.430   6.558  12.320  0.00  0.00    +0.000 C 
BRANCH  24  25
ATOM     25  C   UNL     1      36.236   5.736  11.913  0.00  0.00    +0.000 C 
BRANCH  25  26
ATOM     26  N   UNL     1      34.995   6.484  12.223  0.00  0.00    +0.000 NA
ATOM     27  C   UNL     1      35.440   7.892  12.124  0.00  0.00    +0.000 C 
ATOM     28  C   UNL     1      34.420   8.839  12.682  0.00  0.00    +0.000 C 
ATOM     29  C   UNL     1      34.222   8.542  14.171  0.00  0.00    +0.000 C 
ATOM     30  C   UNL     1      33.665   7.116  14.208  0.00  0.00    +0.000 C 
ATOM     31  C   UNL     1      34.703   6.212  13.630  0.00  0.00    +0.000 C 
ENDBRANCH  25  26
ENDBRANCH  24  25
ENDBRANCH  23  24
ENDBRANCH   5  23
TORSDOF 8
ENDMDL
MODEL 4
REMARK VINA RESULT:      -7.4      2.345      5.223
REMARK  Name = 
REMARK  8 active torsions:
REMARK  status: ('A' for Active; 'I' for Inactive)
REMARK    1  A    between atoms: O_2  and  C_3
REMARK    2  A    between atoms: C_6  and  C_7
REMARK    3  A    between atoms: C_9  and  C_10
REMARK    4  A    between atoms: C_16  and  C_17
REMARK    5  A    between atoms: C_19  and  S_20
REMARK    6  A    between atoms: S_20  and  C_21
REMARK    7  A    between atoms: C_21  and  C_22
REMARK    8  A    between atoms: C_22  and  N_23
REMARK                            x       y       z     vdW  Elec       q    Type
REMARK                         _______ _______ _______ _____ _____    ______ ____
ROOT
ATOM      1  C   UNL     1      37.160   3.758  15.982  0.00  0.00    +0.000 A 
ATOM      2  C   UNL     1      38.061   4.206  16.929  0.00  0.00    +0.000 A 
ATOM      3  C   UNL     1      38.544   5.473  16.884  0.00  0.00    +0.000 A 
ATOM      4  C   UNL     1      38.133   6.343  15.875  0.00  0.00    +0.000 A 
ATOM      5  C   UNL     1      37.249   5.892  14.952  0.00  0.00    +0.000 A 
ATOM      6  N   UNL     1      36.795   4.623  15.034  0.00  0.00    +0.000 NA
ENDROOT
BRANCH   1  10
ATOM      7  C   UNL     1      35.634  -0.204  16.106  0.00  0.00    +0.000 A 
ATOM      8  C   UNL     1      36.718   0.123  15.323  0.00  0.00    +0.000 A 
ATOM      9  C   UNL     1      37.222   1.426  15.282  0.00  0.00    +0.000 A 
ATOM     10  C   UNL     1      36.642   2.403  16.023  0.00  0.00    +0.000 A 
ATOM     11  C   UNL     1      35.556   2.103  16.816  0.00  0.00    +0.000 A 
ATOM     12  C   UNL     1      35.053   0.805  16.858  0.00  0.00    +0.000 A 
BRANCH   7  14
ATOM     13  C   UNL     1      34.214  -1.821  17.201  0.00  0.00    +0.000 C 
ATOM     14  O   UNL     1      35.125  -1.500  16.153  0.00  0.00    +0.000 OA
ENDBRANCH   7  14
ENDBRANCH   1  10
BRANCH   3  15
ATOM     15  C   UNL     1      39.500   5.978  17.879  0.00  0.00    +0.000 A 
ATOM     16  C   UNL     1      39.062   6.376  19.119  0.00  0.00    +0.000 A 
ATOM     17  C   UNL     1      39.961   6.842  20.029  0.00  0.00    +0.000 A 
ATOM     18  C   UNL     1      41.294   6.913  19.705  0.00  0.00    +0.000 A 
ATOM     19  C   UNL     1      41.754   6.525  18.481  0.00  0.00    +0.000 A 
ATOM     20  C   UNL     1      40.844   6.057  17.574  0.00  0.00    +0.000 A 
ENDBRANCH   3  15
BRANCH   4  21
ATOM     21  C   UNL     1      38.660   7.663  15.849  0.00  0.00    +0.000 C 
ATOM     22  N   UNL     1      39.102   8.710  15.836  0.00  0.00    +0.000 NA
ENDBRANCH   4  21
BRANCH   5  23
ATOM     23  S   UNL     1      36.627   6.867  13.609  0.00  0.00    +0.000 S 
BRANCH  23  24
ATOM     24  C   UNL     1      35.017   7.536  14.078  0.00  0.00    +0.000 C 
BRANCH  24  25
ATOM     25  C   UNL     1      35.114   9.003  14.401  0.00  0.00    +0.000 C 
BRANCH  25  26
ATOM     26  N   UNL     1      34.964   9.196  15.863  0.00  0.00    +0.000 NA
ATOM     27  C   UNL     1      33.510   9.004  16.061  0.00  0.00    +0.000 C 
ATOM     28  C   UNL     1      33.072   9.438  17.427  0.00  0.00    +0.000 C 
ATOM     29  C   UNL     1      33.346  10.935  17.590  0.00  0.00    +0.000 C 
ATOM     30  C   UNL     1      34.868  11.062  17.480  0.00  0.00    +0.000 C 
ATOM     31  C   UNL     1      35.261  10.606  16.114  0.00  0.00    +0.000 C 
ENDBRANCH  25  26
ENDBRANCH  24  25
ENDBRANCH  23  24
ENDBRANCH   5  23
TORSDOF 8
ENDMDL
MODEL 5
REMARK VINA RESULT:      -7.4      3.258      6.492
REMARK  Name = 
REMARK  8 active torsions:
REMARK  status: ('A' for Active; 'I' for Inactive)
REMARK    1  A    between atoms: O_2  and  C_3
REMARK    2  A    between atoms: C_6  and  C_7
REMARK    3  A    between atoms: C_9  and  C_10
REMARK    4  A    between atoms: C_16  and  C_17
REMARK    5  A    between atoms: C_19  and  S_20
REMARK    6  A    between atoms: S_20  and  C_21
REMARK    7  A    between atoms: C_21  and  C_22
REMARK    8  A    between atoms: C_22  and  N_23
REMARK                            x       y       z     vdW  Elec       q    Type
REMARK                         _______ _______ _______ _____ _____    ______ ____
ROOT
ATOM      1  C   UNL     1      39.254   5.912  17.139  0.00  0.00    +0.000 A 
ATOM      2  C   UNL     1      38.700   4.655  16.988  0.00  0.00    +0.000 A 
ATOM      3  C   UNL     1      37.710   4.436  16.086  0.00  0.00    +0.000 A 
ATOM      4  C   UNL     1      37.239   5.484  15.297  0.00  0.00    +0.000 A 
ATOM      5  C   UNL     1      37.790   6.713  15.454  0.00  0.00    +0.000 A 
ATOM      6  N   UNL     1      38.773   6.886  16.365  0.00  0.00    +0.000 NA
ENDROOT
BRANCH   1  10
ATOM      7  C   UNL     1      42.343   6.612  19.970  0.00  0.00    +0.000 A 
ATOM      8  C   UNL     1      42.587   6.661  18.616  0.00  0.00    +0.000 A 
ATOM      9  C   UNL     1      41.571   6.432  17.683  0.00  0.00    +0.000 A 
ATOM     10  C   UNL     1      40.312   6.153  18.104  0.00  0.00    +0.000 A 
ATOM     11  C   UNL     1      40.040   6.098  19.453  0.00  0.00    +0.000 A 
ATOM     12  C   UNL     1      41.051   6.326  20.384  0.00  0.00    +0.000 A 
BRANCH   7  14
ATOM     13  C   UNL     1      43.855   5.719  21.627  0.00  0.00    +0.000 C 
ATOM     14  O   UNL     1      43.348   6.839  20.907  0.00  0.00    +0.000 OA
ENDBRANCH   7  14
ENDBRANCH   1  10
BRANCH   3  15
ATOM     15  C   UNL     1      37.104   3.110  15.902  0.00  0.00    +0.000 A 
ATOM     16  C   UNL     1      37.673   2.204  15.040  0.00  0.00    +0.000 A 
ATOM     17  C   UNL     1      37.099   0.981  14.880  0.00  0.00    +0.000 A 
ATOM     18  C   UNL     1      35.959   0.660  15.576  0.00  0.00    +0.000 A 
ATOM     19  C   UNL     1      35.375   1.541  16.437  0.00  0.00    +0.000 A 
ATOM     20  C   UNL     1      35.959   2.767  16.592  0.00  0.00    +0.000 A 
ENDBRANCH   3  15
BRANCH   4  21
ATOM     21  C   UNL     1      36.196   5.227  14.365  0.00  0.00    +0.000 C 
ATOM     22  N   UNL     1      35.378   5.021  13.604  0.00  0.00    +0.000 NA
ENDBRANCH   4  21
BRANCH   5  23
ATOM     23  S   UNL     1      37.307   8.146  14.532  0.00  0.00    +0.000 S 
BRANCH  23  24
ATOM     24  C   UNL     1      37.180   9.546  15.665  0.00  0.00    +0.000 C 
BRANCH  24  25
ATOM     25  C   UNL     1      36.220   9.250  16.786  0.00  0.00    +0.000 C 
BRANCH  25  26
ATOM     26  N   UNL     1      36.736   9.838  18.044  0.00  0.00    +0.000 NA
ATOM     27  C   UNL     1      38.071  10.332  17.640  0.00  0.00    +0.000 C 
ATOM     28  C   UNL     1      38.907  10.714  18.825  0.00  0.00    +0.000 C 
ATOM     29  C   UNL     1      39.139   9.475  19.694  0.00  0.00    +0.000 C 
ATOM     30  C   UNL     1      37.740   9.070  20.168  0.00  0.00    +0.000 C 
ATOM     31  C   UNL     1      36.940   8.715  18.959  0.00  0.00    +0.000 C 
ENDBRANCH  25  26
ENDBRANCH  24  25
ENDBRANCH  23  24
ENDBRANCH   5  23
TORSDOF 8
ENDMDL
MODEL 6
REMARK VINA RESULT:      -7.3      3.854      8.597
REMARK  Name = 
REMARK  8 active torsions:
REMARK  status: ('A' for Active; 'I' for Inactive)
REMARK    1  A    between atoms: O_2  and  C_3
REMARK    2  A    between atoms: C_6  and  C_7
REMARK    3  A    between atoms: C_9  and  C_10
REMARK    4  A    between atoms: C_16  and  C_17
REMARK    5  A    between atoms: C_19  and  S_20
REMARK    6  A    between atoms: S_20  and  C_21
REMARK    7  A    between atoms: C_21  and  C_22
REMARK    8  A    between atoms: C_22  and  N_23
REMARK                            x       y       z     vdW  Elec       q    Type
REMARK                         _______ _______ _______ _____ _____    ______ ____
ROOT
ATOM      1  C   UNL     1      38.026   3.853  16.468  0.00  0.00    +0.000 A 
ATOM      2  C   UNL     1      38.840   3.347  15.474  0.00  0.00    +0.000 A 
ATOM      3  C   UNL     1      38.538   2.176  14.858  0.00  0.00    +0.000 A 
ATOM      4  C   UNL     1      37.396   1.468  15.224  0.00  0.00    +0.000 A 
ATOM      5  C   UNL     1      36.604   1.974  16.201  0.00  0.00    +0.000 A 
ATOM      6  N   UNL     1      36.943   3.143  16.788  0.00  0.00    +0.000 NA
ENDROOT
BRANCH   1  10
ATOM      7  C   UNL     1      38.950   7.518  18.407  0.00  0.00    +0.000 A 
ATOM      8  C   UNL     1      39.158   6.306  19.027  0.00  0.00    +0.000 A 
ATOM      9  C   UNL     1      38.855   5.100  18.390  0.00  0.00    +0.000 A 
ATOM     10  C   UNL     1      38.344   5.104  17.133  0.00  0.00    +0.000 A 
ATOM     11  C   UNL     1      38.127   6.302  16.490  0.00  0.00    +0.000 A 
ATOM     12  C   UNL     1      38.429   7.506  17.123  0.00  0.00    +0.000 A 
BRANCH   7  14
ATOM     13  C   UNL     1      39.538   8.699  20.430  0.00  0.00    +0.000 C 
ATOM     14  O   UNL     1      39.250   8.725  19.034  0.00  0.00    +0.000 OA
ENDBRANCH   7  14
ENDBRANCH   1  10
BRANCH   3  15
ATOM     15  C   UNL     1      39.384   1.615  13.795  0.00  0.00    +0.000 A 
ATOM     16  C   UNL     1      39.147   1.937  12.481  0.00  0.00    +0.000 A 
ATOM     17  C   UNL     1      39.939   1.407  11.509  0.00  0.00    +0.000 A 
ATOM     18  C   UNL     1      40.965   0.558  11.844  0.00  0.00    +0.000 A 
ATOM     19  C   UNL     1      41.221   0.223  13.141  0.00  0.00    +0.000 A 
ATOM     20  C   UNL     1      40.421   0.760  14.111  0.00  0.00    +0.000 A 
ENDBRANCH   3  15
BRANCH   4  21
ATOM     21  C   UNL     1      37.108   0.240  14.566  0.00  0.00    +0.000 C 
ATOM     22  N   UNL     1      36.857  -0.742  14.052  0.00  0.00    +0.000 NA
ENDBRANCH   4  21
BRANCH   5  23
ATOM     23  S   UNL     1      35.120   1.200  16.782  0.00  0.00    +0.000 S 
BRANCH  23  24
ATOM     24  C   UNL     1      35.569  -0.175  17.862  0.00  0.00    +0.000 C 
BRANCH  24  25
ATOM     25  C   UNL     1      35.121  -1.489  17.280  0.00  0.00    +0.000 C 
BRANCH  25  26
ATOM     26  N   UNL     1      36.099  -2.544  17.635  0.00  0.00    +0.000 NA
ATOM     27  C   UNL     1      37.344  -1.768  17.833  0.00  0.00    +0.000 C 
ATOM     28  C   UNL     1      38.547  -2.658  17.919  0.00  0.00    +0.000 C 
ATOM     29  C   UNL     1      38.705  -3.416  16.599  0.00  0.00    +0.000 C 
ATOM     30  C   UNL     1      37.443  -4.277  16.495  0.00  0.00    +0.000 C 
ATOM     31  C   UNL     1      36.272  -3.353  16.429  0.00  0.00    +0.000 C 
ENDBRANCH  25  26
ENDBRANCH  24  25
ENDBRANCH  23  24
ENDBRANCH   5  23
TORSDOF 8
ENDMDL
MODEL 7
REMARK VINA RESULT:      -7.0      5.144      8.581
REMARK  Name = 
REMARK  8 active torsions:
REMARK  status: ('A' for Active; 'I' for Inactive)
REMARK    1  A    between atoms: O_2  and  C_3
REMARK    2  A    between atoms: C_6  and  C_7
REMARK    3  A    between atoms: C_9  and  C_10
REMARK    4  A    between atoms: C_16  and  C_17
REMARK    5  A    between atoms: C_19  and  S_20
REMARK    6  A    between atoms: S_20  and  C_21
REMARK    7  A    between atoms: C_21  and  C_22
REMARK    8  A    between atoms: C_22  and  N_23
REMARK                            x       y       z     vdW  Elec       q    Type
REMARK                         _______ _______ _______ _____ _____    ______ ____
ROOT
ATOM      1  C   UNL     1      39.898  -1.932  14.710  0.00  0.00    +0.000 A 
ATOM      2  C   UNL     1      41.211  -2.342  14.579  0.00  0.00    +0.000 A 
ATOM      3  C   UNL     1      42.175  -1.470  14.192  0.00  0.00    +0.000 A 
ATOM      4  C   UNL     1      41.850  -0.142  13.921  0.00  0.00    +0.000 A 
ATOM      5  C   UNL     1      40.558   0.248  14.052  0.00  0.00    +0.000 A 
ATOM      6  N   UNL     1      39.630  -0.654  14.439  0.00  0.00    +0.000 NA
ENDROOT
BRANCH   1  10
ATOM      7  C   UNL     1      36.865  -4.648  15.924  0.00  0.00    +0.000 A 
ATOM      8  C   UNL     1      36.845  -4.060  14.679  0.00  0.00    +0.000 A 
ATOM      9  C   UNL     1      37.843  -3.167  14.278  0.00  0.00    +0.000 A 
ATOM     10  C   UNL     1      38.861  -2.861  15.121  0.00  0.00    +0.000 A 
ATOM     11  C   UNL     1      38.906  -3.435  16.372  0.00  0.00    +0.000 A 
ATOM     12  C   UNL     1      37.912  -4.326  16.774  0.00  0.00    +0.000 A 
BRANCH   7  14
ATOM     13  C   UNL     1      34.729  -5.691  15.500  0.00  0.00    +0.000 C 
ATOM     14  O   UNL     1      35.876  -5.539  16.333  0.00  0.00    +0.000 OA
ENDBRANCH   7  14
ENDBRANCH   1  10
BRANCH   3  15
ATOM     15  C   UNL     1      43.580  -1.876  14.047  0.00  0.00    +0.000 A 
ATOM     16  C   UNL     1      44.000  -2.514  12.905  0.00  0.00    +0.000 A 
ATOM     17  C   UNL     1      45.305  -2.884  12.788  0.00  0.00    +0.000 A 
ATOM     18  C   UNL     1      46.190  -2.621  13.804  0.00  0.00    +0.000 A 
ATOM     19  C   UNL     1      45.797  -1.989  14.948  0.00  0.00    +0.000 A 
ATOM     20  C   UNL     1      44.486  -1.620  15.057  0.00  0.00    +0.000 A 
ENDBRANCH   3  15
BRANCH   4  21
ATOM     21  C   UNL     1      42.880   0.748  13.510  0.00  0.00    +0.000 C 
ATOM     22  N   UNL     1      43.693   1.477  13.195  0.00  0.00    +0.000 NA
ENDBRANCH   4  21
BRANCH   5  23
ATOM     23  S   UNL     1      39.980   1.895  13.747  0.00  0.00    +0.000 S 
BRANCH  23  24
ATOM     24  C   UNL     1      38.379   2.105  14.557  0.00  0.00    +0.000 C 
BRANCH  24  25
ATOM     25  C   UNL     1      37.251   1.956  13.570  0.00  0.00    +0.000 C 
BRANCH  25  26
ATOM     26  N   UNL     1      36.029   1.515  14.284  0.00  0.00    +0.000 NA
ATOM     27  C   UNL     1      35.786   2.635  15.219  0.00  0.00    +0.000 C 
ATOM     28  C   UNL     1      34.760   2.283  16.255  0.00  0.00    +0.000 C 
ATOM     29  C   UNL     1      35.276   1.111  17.094  0.00  0.00    +0.000 C 
ATOM     30  C   UNL     1      35.411  -0.045  16.098  0.00  0.00    +0.000 C 
ATOM     31  C   UNL     1      36.426   0.354  15.080  0.00  0.00    +0.000 C 
ENDBRANCH  25  26
ENDBRANCH  24  25
ENDBRANCH  23  24
ENDBRANCH   5  23
TORSDOF 8
ENDMDL
MODEL 8
REMARK VINA RESULT:      -6.9      2.430      6.842
REMARK  Name = 
REMARK  8 active torsions:
REMARK  status: ('A' for Active; 'I' for Inactive)
REMARK    1  A    between atoms: O_2  and  C_3
REMARK    2  A    between atoms: C_6  and  C_7
REMARK    3  A    between atoms: C_9  and  C_10
REMARK    4  A    between atoms: C_16  and  C_17
REMARK    5  A    between atoms: C_19  and  S_20
REMARK    6  A    between atoms: S_20  and  C_21
REMARK    7  A    between atoms: C_21  and  C_22
REMARK    8  A    between atoms: C_22  and  N_23
REMARK                            x       y       z     vdW  Elec       q    Type
REMARK                         _______ _______ _______ _____ _____    ______ ____
ROOT
ATOM      1  C   UNL     1      38.516   5.247  16.839  0.00  0.00    +0.000 A 
ATOM      2  C   UNL     1      39.699   5.286  17.552  0.00  0.00    +0.000 A 
ATOM      3  C   UNL     1      40.173   6.456  18.048  0.00  0.00    +0.000 A 
ATOM      4  C   UNL     1      39.466   7.640  17.843  0.00  0.00    +0.000 A 
ATOM      5  C   UNL     1      38.307   7.589  17.142  0.00  0.00    +0.000 A 
ATOM      6  N   UNL     1      37.873   6.403  16.665  0.00  0.00    +0.000 NA
ENDROOT
BRANCH   1  10
ATOM      7  C   UNL     1      37.032   1.590  15.266  0.00  0.00    +0.000 A 
ATOM      8  C   UNL     1      36.421   2.214  16.331  0.00  0.00    +0.000 A 
ATOM      9  C   UNL     1      36.908   3.417  16.849  0.00  0.00    +0.000 A 
ATOM     10  C   UNL     1      38.006   3.998  16.303  0.00  0.00    +0.000 A 
ATOM     11  C   UNL     1      38.636   3.396  15.237  0.00  0.00    +0.000 A 
ATOM     12  C   UNL     1      38.153   2.197  14.719  0.00  0.00    +0.000 A 
BRANCH   7  14
ATOM     13  C   UNL     1      36.028  -0.571  15.654  0.00  0.00    +0.000 C 
ATOM     14  O   UNL     1      36.554   0.392  14.743  0.00  0.00    +0.000 OA
ENDBRANCH   7  14
ENDBRANCH   1  10
BRANCH   3  15
ATOM     15  C   UNL     1      41.426   6.528  18.812  0.00  0.00    +0.000 A 
ATOM     16  C   UNL     1      42.614   6.778  18.169  0.00  0.00    +0.000 A 
ATOM     17  C   UNL     1      43.766   6.841  18.891  0.00  0.00    +0.000 A 
ATOM     18  C   UNL     1      43.737   6.653  20.251  0.00  0.00    +0.000 A 
ATOM     19  C   UNL     1      42.570   6.404  20.913  0.00  0.00    +0.000 A 
ATOM     20  C   UNL     1      41.418   6.344  20.180  0.00  0.00    +0.000 A 
ENDBRANCH   3  15
BRANCH   4  21
ATOM     21  C   UNL     1      39.990   8.853  18.369  0.00  0.00    +0.000 C 
ATOM     22  N   UNL     1      40.429   9.812  18.791  0.00  0.00    +0.000 NA
ENDBRANCH   4  21
BRANCH   5  23
ATOM     23  S   UNL     1      37.291   8.999  16.795  0.00  0.00    +0.000 S 
BRANCH  23  24
ATOM     24  C   UNL     1      36.252   8.625  15.367  0.00  0.00    +0.000 C 
BRANCH  24  25
ATOM     25  C   UNL     1      34.923   9.325  15.467  0.00  0.00    +0.000 C 
BRANCH  25  26
ATOM     26  N   UNL     1      34.097   8.984  14.284  0.00  0.00    +0.000 NA
ATOM     27  C   UNL     1      33.963   7.515  14.404  0.00  0.00    +0.000 C 
ATOM     28  C   UNL     1      33.405   6.902  13.154  0.00  0.00    +0.000 C 
ATOM     29  C   UNL     1      34.370   7.165  11.995  0.00  0.00    +0.000 C 
ATOM     30  C   UNL     1      34.391   8.689  11.848  0.00  0.00    +0.000 C 
ATOM     31  C   UNL     1      34.936   9.256  13.117  0.00  0.00    +0.000 C 
ENDBRANCH  25  26
ENDBRANCH  24  25
ENDBRANCH  23  24
ENDBRANCH   5  23
TORSDOF 8
ENDMDL
MODEL 9
REMARK VINA RESULT:      -6.9      2.287      6.421
REMARK  Name = 
REMARK  8 active torsions:
REMARK  status: ('A' for Active; 'I' for Inactive)
REMARK    1  A    between atoms: O_2  and  C_3
REMARK    2  A    between atoms: C_6  and  C_7
REMARK    3  A    between atoms: C_9  and  C_10
REMARK    4  A    between atoms: C_16  and  C_17
REMARK    5  A    between atoms: C_19  and  S_20
REMARK    6  A    between atoms: S_20  and  C_21
REMARK    7  A    between atoms: C_21  and  C_22
REMARK    8  A    between atoms: C_22  and  N_23
REMARK                            x       y       z     vdW  Elec       q    Type
REMARK                         _______ _______ _______ _____ _____    ______ ____
ROOT
ATOM      1  C   UNL     1      37.217   3.750  16.006  0.00  0.00    +0.000 A 
ATOM      2  C   UNL     1      38.169   4.163  16.917  0.00  0.00    +0.000 A 
ATOM      3  C   UNL     1      38.655   5.429  16.888  0.00  0.00    +0.000 A 
ATOM      4  C   UNL     1      38.197   6.332  15.930  0.00  0.00    +0.000 A 
ATOM      5  C   UNL     1      37.263   5.915  15.041  0.00  0.00    +0.000 A 
ATOM      6  N   UNL     1      36.806   4.645  15.106  0.00  0.00    +0.000 NA
ENDROOT
BRANCH   1  10
ATOM      7  C   UNL     1      35.677  -0.209  16.083  0.00  0.00    +0.000 A 
ATOM      8  C   UNL     1      36.705   0.144  15.239  0.00  0.00    +0.000 A 
ATOM      9  C   UNL     1      37.214   1.446  15.213  0.00  0.00    +0.000 A 
ATOM     10  C   UNL     1      36.694   2.395  16.031  0.00  0.00    +0.000 A 
ATOM     11  C   UNL     1      35.665   2.069  16.886  0.00  0.00    +0.000 A 
ATOM     12  C   UNL     1      35.157   0.772  16.914  0.00  0.00    +0.000 A 
BRANCH   7  14
ATOM     13  C   UNL     1      35.452  -2.306  17.259  0.00  0.00    +0.000 C 
ATOM     14  O   UNL     1      35.164  -1.503  16.117  0.00  0.00    +0.000 OA
ENDBRANCH   7  14
ENDBRANCH   1  10
BRANCH   3  15
ATOM     15  C   UNL     1      39.666   5.898  17.846  0.00  0.00    +0.000 A 
ATOM     16  C   UNL     1      40.967   6.083  17.443  0.00  0.00    +0.000 A 
ATOM     17  C   UNL     1      41.890   6.517  18.344  0.00  0.00    +0.000 A 
ATOM     18  C   UNL     1      41.521   6.766  19.643  0.00  0.00    +0.000 A 
ATOM     19  C   UNL     1      40.237   6.591  20.067  0.00  0.00    +0.000 A 
ATOM     20  C   UNL     1      39.315   6.155  19.156  0.00  0.00    +0.000 A 
ENDBRANCH   3  15
BRANCH   4  21
ATOM     21  C   UNL     1      38.730   7.651  15.918  0.00  0.00    +0.000 C 
ATOM     22  N   UNL     1      39.145   8.708  15.887  0.00  0.00    +0.000 NA
ENDBRANCH   4  21
BRANCH   5  23
ATOM     23  S   UNL     1      36.576   6.935  13.765  0.00  0.00    +0.000 S 
BRANCH  23  24
ATOM     24  C   UNL     1      36.900   6.159  12.167  0.00  0.00    +0.000 C 
BRANCH  24  25
ATOM     25  C   UNL     1      38.380   6.044  11.912  0.00  0.00    +0.000 C 
BRANCH  25  26
ATOM     26  N   UNL     1      38.672   4.727  11.298  0.00  0.00    +0.000 NA
ATOM     27  C   UNL     1      37.361   4.346  10.727  0.00  0.00    +0.000 C 
ATOM     28  C   UNL     1      37.336   2.909  10.299  0.00  0.00    +0.000 C 
ATOM     29  C   UNL     1      37.560   2.019  11.524  0.00  0.00    +0.000 C 
ATOM     30  C   UNL     1      38.966   2.379  12.011  0.00  0.00    +0.000 C 
ATOM     31  C   UNL     1      38.949   3.818  12.409  0.00  0.00    +0.000 C 
ENDBRANCH  25  26
ENDBRANCH  24  25
ENDBRANCH  23  24
ENDBRANCH   5  23
TORSDOF 8
ENDMDL
MODEL 10
REMARK VINA RESULT:      -6.9      2.104      6.613
REMARK  Name = 
REMARK  8 active torsions:
REMARK  status: ('A' for Active; 'I' for Inactive)
REMARK    1  A    between atoms: O_2  and  C_3
REMARK    2  A    between atoms: C_6  and  C_7
REMARK    3  A    between atoms: C_9  and  C_10
REMARK    4  A    between atoms: C_16  and  C_17
REMARK    5  A    between atoms: C_19  and  S_20
REMARK    6  A    between atoms: S_20  and  C_21
REMARK    7  A    between atoms: C_21  and  C_22
REMARK    8  A    between atoms: C_22  and  N_23
REMARK                            x       y       z     vdW  Elec       q    Type
REMARK                         _______ _______ _______ _____ _____    ______ ____
ROOT
ATOM      1  C   UNL     1      37.569   3.817  15.631  0.00  0.00    +0.000 A 
ATOM      2  C   UNL     1      38.535   4.178  16.550  0.00  0.00    +0.000 A 
ATOM      3  C   UNL     1      38.834   5.483  16.767  0.00  0.00    +0.000 A 
ATOM      4  C   UNL     1      38.166   6.481  16.060  0.00  0.00    +0.000 A 
ATOM      5  C   UNL     1      37.220   6.115  15.160  0.00  0.00    +0.000 A 
ATOM      6  N   UNL     1      36.954   4.803  14.976  0.00  0.00    +0.000 NA
ENDROOT
BRANCH   1  10
ATOM      7  C   UNL     1      36.635  -0.268  14.934  0.00  0.00    +0.000 A 
ATOM      8  C   UNL     1      35.764   0.563  15.604  0.00  0.00    +0.000 A 
ATOM      9  C   UNL     1      36.070   1.907  15.833  0.00  0.00    +0.000 A 
ATOM     10  C   UNL     1      37.246   2.422  15.393  0.00  0.00    +0.000 A 
ATOM     11  C   UNL     1      38.135   1.613  14.720  0.00  0.00    +0.000 A 
ATOM     12  C   UNL     1      37.832   0.273  14.490  0.00  0.00    +0.000 A 
BRANCH   7  14
ATOM     13  C   UNL     1      35.560  -2.300  15.675  0.00  0.00    +0.000 C 
ATOM     14  O   UNL     1      36.338  -1.609  14.700  0.00  0.00    +0.000 OA
ENDBRANCH   7  14
ENDBRANCH   1  10
BRANCH   3  15
ATOM     15  C   UNL     1      39.855   5.898  17.740  0.00  0.00    +0.000 A 
ATOM     16  C   UNL     1      41.131   6.188  17.321  0.00  0.00    +0.000 A 
ATOM     17  C   UNL     1      42.065   6.570  18.235  0.00  0.00    +0.000 A 
ATOM     18  C   UNL     1      41.730   6.661  19.564  0.00  0.00    +0.000 A 
ATOM     19  C   UNL     1      40.470   6.378  20.005  0.00  0.00    +0.000 A 
ATOM     20  C   UNL     1      39.539   5.996  19.080  0.00  0.00    +0.000 A 
ENDBRANCH   3  15
BRANCH   4  21
ATOM     21  C   UNL     1      38.505   7.841  16.302  0.00  0.00    +0.000 C 
ATOM     22  N   UNL     1      38.757   8.930  16.507  0.00  0.00    +0.000 NA
ENDBRANCH   4  21
BRANCH   5  23
ATOM     23  S   UNL     1      36.281   7.255  14.183  0.00  0.00    +0.000 S 
BRANCH  23  24
ATOM     24  C   UNL     1      35.444   6.339  12.871  0.00  0.00    +0.000 C 
BRANCH  24  25
ATOM     25  C   UNL     1      34.114   6.964  12.539  0.00  0.00    +0.000 C 
BRANCH  25  26
ATOM     26  N   UNL     1      34.091   7.337  11.105  0.00  0.00    +0.000 NA
ATOM     27  C   UNL     1      35.213   6.547  10.552  0.00  0.00    +0.000 C 
ATOM     28  C   UNL     1      35.570   6.981   9.162  0.00  0.00    +0.000 C 
ATOM     29  C   UNL     1      36.032   8.440   9.197  0.00  0.00    +0.000 C 
ATOM     30  C   UNL     1      34.806   9.222   9.675  0.00  0.00    +0.000 C 
ATOM     31  C   UNL     1      34.477   8.747  11.051  0.00  0.00    +0.000 C 
ENDBRANCH  25  26
ENDBRANCH  24  25
ENDBRANCH  23  24
ENDBRANCH   5  23
TORSDOF 8
ENDMDL
