MODEL 1
REMARK VINA RESULT:      -6.2      0.000      0.000
REMARK  Name = 
REMARK  4 active torsions:
REMARK  status: ('A' for Active; 'I' for Inactive)
REMARK    1  A    between atoms: C_2  and  C_12
REMARK    2  A    between atoms: N_3  and  C_4
REMARK    3  A    between atoms: C_4  and  C_5
REMARK    4  A    between atoms: C_17  and  N_18
REMARK                            x       y       z     vdW  Elec       q    Type
REMARK                         _______ _______ _______ _____ _____    ______ ____
ROOT
ATOM      1  O   UNL     1      16.154  11.509  37.539  0.00  0.00    +0.000 OA
ATOM      2  C   UNL     1      17.128  11.898  36.863  0.00  0.00    +0.000 C 
ATOM      3  N   UNL     1      16.750  12.101  35.530  0.00  0.00    +0.000 NA
ENDROOT
BRANCH   2   4
ATOM      4  C   UNL     1      18.460  12.099  37.423  0.00  0.00    +0.000 A 
ATOM      5  C   UNL     1      18.952  13.297  37.885  0.00  0.00    +0.000 A 
ATOM      6  C   UNL     1      20.235  13.370  38.459  0.00  0.00    +0.000 A 
ATOM      7  C   UNL     1      21.041  12.262  38.581  0.00  0.00    +0.000 A 
ATOM      8  C   UNL     1      20.549  11.039  38.113  0.00  0.00    +0.000 A 
ATOM      9  C   UNL     1      19.278  10.988  37.549  0.00  0.00    +0.000 A 
BRANCH   9  10
ATOM     10  N   UNL     1      18.772   9.757  37.036  0.00  0.00    +0.000 N 
ATOM     11  O   UNL     1      18.242   8.925  37.783  0.00  0.00    +0.000 OA
ATOM     12  O   UNL     1      18.836   9.412  35.710  0.00  0.00    +0.000 OA
ENDBRANCH   9  10
ENDBRANCH   2   4
BRANCH   3  13
ATOM     13  C   UNL     1      15.652  12.030  34.748  0.00  0.00    +0.000 C 
BRANCH  13  14
ATOM     14  C   UNL     1      15.446  10.766  33.820  0.00  0.00    +0.000 C 
ATOM     15  C   UNL     1      16.754  10.674  33.016  0.00  0.00    +0.000 C 
ATOM     16  C   UNL     1      16.236  10.574  31.438  0.00  0.00    +0.000 C 
ATOM     17  C   UNL     1      16.088  12.125  31.303  0.00  0.00    +0.000 C 
ATOM     18  C   UNL     1      15.162  12.530  31.998  0.00  0.00    +0.000 C 
ATOM     19  C   UNL     1      14.385  11.437  32.800  0.00  0.00    +0.000 C 
ATOM     20  C   UNL     1      14.717  10.231  31.741  0.00  0.00    +0.000 C 
ENDBRANCH  13  14
ENDBRANCH   3  13
TORSDOF 4
ENDMDL
MODEL 2
REMARK VINA RESULT:      -5.7     21.491     23.794
REMARK  Name = 
REMARK  4 active torsions:
REMARK  status: ('A' for Active; 'I' for Inactive)
REMARK    1  A    between atoms: C_2  and  C_12
REMARK    2  A    between atoms: N_3  and  C_4
REMARK    3  A    between atoms: C_4  and  C_5
REMARK    4  A    between atoms: C_17  and  N_18
REMARK                            x       y       z     vdW  Elec       q    Type
REMARK                         _______ _______ _______ _____ _____    ______ ____
ROOT
ATOM      1  O   UNL     1      32.265  -5.874  32.689  0.00  0.00    +0.000 OA
ATOM      2  C   UNL     1      33.206  -5.440  31.995  0.00  0.00    +0.000 C 
ATOM      3  N   UNL     1      33.882  -4.418  32.671  0.00  0.00    +0.000 NA
ENDROOT
BRANCH   2   4
ATOM      4  C   UNL     1      33.523  -5.955  30.668  0.00  0.00    +0.000 A 
ATOM      5  C   UNL     1      32.987  -5.489  29.489  0.00  0.00    +0.000 A 
ATOM      6  C   UNL     1      33.405  -6.020  28.255  0.00  0.00    +0.000 A 
ATOM      7  C   UNL     1      34.352  -7.013  28.174  0.00  0.00    +0.000 A 
ATOM      8  C   UNL     1      34.902  -7.494  29.366  0.00  0.00    +0.000 A 
ATOM      9  C   UNL     1      34.476  -6.955  30.577  0.00  0.00    +0.000 A 
BRANCH   9  10
ATOM     10  N   UNL     1      35.001  -7.455  31.806  0.00  0.00    +0.000 N 
ATOM     11  O   UNL     1      36.075  -7.039  32.256  0.00  0.00    +0.000 OA
ATOM     12  O   UNL     1      34.369  -8.412  32.559  0.00  0.00    +0.000 OA
ENDBRANCH   9  10
ENDBRANCH   2   4
BRANCH   3  13
ATOM     13  C   UNL     1      33.851  -3.766  33.853  0.00  0.00    +0.000 C 
BRANCH  13  14
ATOM     14  C   UNL     1      32.921  -2.496  34.009  0.00  0.00    +0.000 C 
ATOM     15  C   UNL     1      33.813  -1.322  33.572  0.00  0.00    +0.000 C 
ATOM     16  C   UNL     1      33.677  -0.239  34.828  0.00  0.00    +0.000 C 
ATOM     17  C   UNL     1      34.779  -0.958  35.673  0.00  0.00    +0.000 C 
ATOM     18  C   UNL     1      34.383  -2.055  36.052  0.00  0.00    +0.000 C 
ATOM     19  C   UNL     1      32.931  -2.438  35.625  0.00  0.00    +0.000 C 
ATOM     20  C   UNL     1      32.407  -0.889  35.523  0.00  0.00    +0.000 C 
ENDBRANCH  13  14
ENDBRANCH   3  13
TORSDOF 4
ENDMDL
MODEL 3
REMARK VINA RESULT:      -5.7     19.943     21.811
REMARK  Name = 
REMARK  4 active torsions:
REMARK  status: ('A' for Active; 'I' for Inactive)
REMARK    1  A    between atoms: C_2  and  C_12
REMARK    2  A    between atoms: N_3  and  C_4
REMARK    3  A    between atoms: C_4  and  C_5
REMARK    4  A    between atoms: C_17  and  N_18
REMARK                            x       y       z     vdW  Elec       q    Type
REMARK                         _______ _______ _______ _____ _____    ______ ____
ROOT
ATOM      1  O   UNL     1      24.016   2.408  18.896  0.00  0.00    +0.000 OA
ATOM      2  C   UNL     1      23.280   2.941  18.041  0.00  0.00    +0.000 C 
ATOM      3  N   UNL     1      23.825   4.158  17.615  0.00  0.00    +0.000 NA
ENDROOT
BRANCH   2   4
ATOM      4  C   UNL     1      22.031   2.346  17.580  0.00  0.00    +0.000 A 
ATOM      5  C   UNL     1      20.780   2.658  18.060  0.00  0.00    +0.000 A 
ATOM      6  C   UNL     1      19.632   2.064  17.505  0.00  0.00    +0.000 A 
ATOM      7  C   UNL     1      19.709   1.158  16.473  0.00  0.00    +0.000 A 
ATOM      8  C   UNL     1      20.976   0.834  15.978  0.00  0.00    +0.000 A 
ATOM      9  C   UNL     1      22.099   1.433  16.541  0.00  0.00    +0.000 A 
BRANCH   9  10
ATOM     10  N   UNL     1      23.403   1.091  16.073  0.00  0.00    +0.000 N 
ATOM     11  O   UNL     1      23.995   0.095  16.505  0.00  0.00    +0.000 OA
ATOM     12  O   UNL     1      24.081   1.825  15.132  0.00  0.00    +0.000 OA
ENDBRANCH   9  10
ENDBRANCH   2   4
BRANCH   3  13
ATOM     13  C   UNL     1      24.915   4.928  17.821  0.00  0.00    +0.000 C 
BRANCH  13  14
ATOM     14  C   UNL     1      25.824   5.323  16.588  0.00  0.00    +0.000 C 
ATOM     15  C   UNL     1      27.167   4.630  16.876  0.00  0.00    +0.000 C 
ATOM     16  C   UNL     1      28.281   5.855  16.712  0.00  0.00    +0.000 C 
ATOM     17  C   UNL     1      28.058   6.362  18.175  0.00  0.00    +0.000 C 
ATOM     18  C   UNL     1      26.942   6.856  18.293  0.00  0.00    +0.000 C 
ATOM     19  C   UNL     1      26.063   6.867  17.002  0.00  0.00    +0.000 C 
ATOM     20  C   UNL     1      27.338   6.894  15.972  0.00  0.00    +0.000 C 
ENDBRANCH  13  14
ENDBRANCH   3  13
TORSDOF 4
ENDMDL
MODEL 4
REMARK VINA RESULT:      -5.6     18.195     19.407
REMARK  Name = 
REMARK  4 active torsions:
REMARK  status: ('A' for Active; 'I' for Inactive)
REMARK    1  A    between atoms: C_2  and  C_12
REMARK    2  A    between atoms: N_3  and  C_4
REMARK    3  A    between atoms: C_4  and  C_5
REMARK    4  A    between atoms: C_17  and  N_18
REMARK                            x       y       z     vdW  Elec       q    Type
REMARK                         _______ _______ _______ _____ _____    ______ ____
ROOT
ATOM      1  O   UNL     1      25.620  22.790  24.954  0.00  0.00    +0.000 OA
ATOM      2  C   UNL     1      26.555  23.570  25.227  0.00  0.00    +0.000 C 
ATOM      3  N   UNL     1      26.080  24.882  25.345  0.00  0.00    +0.000 NA
ENDROOT
BRANCH   2   4
ATOM      4  C   UNL     1      27.937  23.134  25.391  0.00  0.00    +0.000 A 
ATOM      5  C   UNL     1      28.467  22.593  26.540  0.00  0.00    +0.000 A 
ATOM      6  C   UNL     1      29.802  22.153  26.573  0.00  0.00    +0.000 A 
ATOM      7  C   UNL     1      30.625  22.243  25.475  0.00  0.00    +0.000 A 
ATOM      8  C   UNL     1      30.097  22.791  24.302  0.00  0.00    +0.000 A 
ATOM      9  C   UNL     1      28.772  23.221  24.289  0.00  0.00    +0.000 A 
BRANCH   9  10
ATOM     10  N   UNL     1      28.224  23.813  23.113  0.00  0.00    +0.000 N 
ATOM     11  O   UNL     1      28.355  25.023  22.888  0.00  0.00    +0.000 OA
ATOM     12  O   UNL     1      27.526  23.104  22.169  0.00  0.00    +0.000 OA
ENDBRANCH   9  10
ENDBRANCH   2   4
BRANCH   3  13
ATOM     13  C   UNL     1      24.919  25.568  25.279  0.00  0.00    +0.000 C 
BRANCH  13  14
ATOM     14  C   UNL     1      24.577  26.615  26.414  0.00  0.00    +0.000 C 
ATOM     15  C   UNL     1      23.580  25.874  27.320  0.00  0.00    +0.000 C 
ATOM     16  C   UNL     1      22.306  26.937  27.452  0.00  0.00    +0.000 C 
ATOM     17  C   UNL     1      21.667  26.463  26.106  0.00  0.00    +0.000 C 
ATOM     18  C   UNL     1      22.366  26.798  25.156  0.00  0.00    +0.000 C 
ATOM     19  C   UNL     1      23.661  27.596  25.513  0.00  0.00    +0.000 C 
ATOM     20  C   UNL     1      23.055  28.223  26.901  0.00  0.00    +0.000 C 
ENDBRANCH  13  14
ENDBRANCH   3  13
TORSDOF 4
ENDMDL
MODEL 5
REMARK VINA RESULT:      -5.6     20.451     21.776
REMARK  Name = 
REMARK  4 active torsions:
REMARK  status: ('A' for Active; 'I' for Inactive)
REMARK    1  A    between atoms: C_2  and  C_12
REMARK    2  A    between atoms: N_3  and  C_4
REMARK    3  A    between atoms: C_4  and  C_5
REMARK    4  A    between atoms: C_17  and  N_18
REMARK                            x       y       z     vdW  Elec       q    Type
REMARK                         _______ _______ _______ _____ _____    ______ ____
ROOT
ATOM      1  O   UNL     1      27.406  23.091  22.107  0.00  0.00    +0.000 OA
ATOM      2  C   UNL     1      28.022  23.778  22.947  0.00  0.00    +0.000 C 
ATOM      3  N   UNL     1      28.018  25.127  22.573  0.00  0.00    +0.000 NA
ENDROOT
BRANCH   2   4
ATOM      4  C   UNL     1      28.646  23.214  24.137  0.00  0.00    +0.000 A 
ATOM      5  C   UNL     1      29.954  22.794  24.223  0.00  0.00    +0.000 A 
ATOM      6  C   UNL     1      30.473  22.315  25.440  0.00  0.00    +0.000 A 
ATOM      7  C   UNL     1      29.707  22.246  26.580  0.00  0.00    +0.000 A 
ATOM      8  C   UNL     1      28.377  22.671  26.504  0.00  0.00    +0.000 A 
ATOM      9  C   UNL     1      27.883  23.141  25.291  0.00  0.00    +0.000 A 
BRANCH   9  10
ATOM     10  N   UNL     1      26.519  23.548  25.183  0.00  0.00    +0.000 N 
ATOM     11  O   UNL     1      25.629  22.730  24.921  0.00  0.00    +0.000 OA
ATOM     12  O   UNL     1      26.105  24.844  25.357  0.00  0.00    +0.000 OA
ENDBRANCH   9  10
ENDBRANCH   2   4
BRANCH   3  13
ATOM     13  C   UNL     1      27.535  25.926  21.598  0.00  0.00    +0.000 C 
BRANCH  13  14
ATOM     14  C   UNL     1      27.701  27.494  21.732  0.00  0.00    +0.000 C 
ATOM     15  C   UNL     1      27.211  28.039  20.380  0.00  0.00    +0.000 C 
ATOM     16  C   UNL     1      28.451  29.033  19.887  0.00  0.00    +0.000 C 
ATOM     17  C   UNL     1      29.270  27.847  19.282  0.00  0.00    +0.000 C 
ATOM     18  C   UNL     1      29.683  27.111  20.172  0.00  0.00    +0.000 C 
ATOM     19  C   UNL     1      29.314  27.534  21.630  0.00  0.00    +0.000 C 
ATOM     20  C   UNL     1      29.202  29.132  21.282  0.00  0.00    +0.000 C 
ENDBRANCH  13  14
ENDBRANCH   3  13
TORSDOF 4
ENDMDL
MODEL 6
REMARK VINA RESULT:      -5.6      5.439      7.092
REMARK  Name = 
REMARK  4 active torsions:
REMARK  status: ('A' for Active; 'I' for Inactive)
REMARK    1  A    between atoms: C_2  and  C_12
REMARK    2  A    between atoms: N_3  and  C_4
REMARK    3  A    between atoms: C_4  and  C_5
REMARK    4  A    between atoms: C_17  and  N_18
REMARK                            x       y       z     vdW  Elec       q    Type
REMARK                         _______ _______ _______ _____ _____    ______ ____
ROOT
ATOM      1  O   UNL     1      20.938  10.165  40.754  0.00  0.00    +0.000 OA
ATOM      2  C   UNL     1      20.995   9.287  39.870  0.00  0.00    +0.000 C 
ATOM      3  N   UNL     1      20.085   8.258  40.143  0.00  0.00    +0.000 NA
ENDROOT
BRANCH   2   4
ATOM      4  C   UNL     1      21.899   9.359  38.728  0.00  0.00    +0.000 A 
ATOM      5  C   UNL     1      23.209   8.938  38.727  0.00  0.00    +0.000 A 
ATOM      6  C   UNL     1      23.980   9.002  37.551  0.00  0.00    +0.000 A 
ATOM      7  C   UNL     1      23.465   9.482  36.370  0.00  0.00    +0.000 A 
ATOM      8  C   UNL     1      22.135   9.913  36.361  0.00  0.00    +0.000 A 
ATOM      9  C   UNL     1      21.389   9.841  37.534  0.00  0.00    +0.000 A 
BRANCH   9  10
ATOM     10  N   UNL     1      20.041  10.307  37.554  0.00  0.00    +0.000 N 
ATOM     11  O   UNL     1      19.769  11.457  37.918  0.00  0.00    +0.000 OA
ATOM     12  O   UNL     1      18.972   9.531  37.183  0.00  0.00    +0.000 OA
ENDBRANCH   9  10
ENDBRANCH   2   4
BRANCH   3  13
ATOM     13  C   UNL     1      19.145   7.927  41.053  0.00  0.00    +0.000 C 
BRANCH  13  14
ATOM     14  C   UNL     1      17.638   7.794  40.591  0.00  0.00    +0.000 C 
ATOM     15  C   UNL     1      17.208   9.240  40.292  0.00  0.00    +0.000 C 
ATOM     16  C   UNL     1      15.799   9.416  41.160  0.00  0.00    +0.000 C 
ATOM     17  C   UNL     1      16.561   9.757  42.482  0.00  0.00    +0.000 C 
ATOM     18  C   UNL     1      17.162   8.772  42.899  0.00  0.00    +0.000 C 
ATOM     19  C   UNL     1      17.010   7.472  42.046  0.00  0.00    +0.000 C 
ATOM     20  C   UNL     1      15.539   7.876  41.446  0.00  0.00    +0.000 C 
ENDBRANCH  13  14
ENDBRANCH   3  13
TORSDOF 4
ENDMDL
MODEL 7
REMARK VINA RESULT:      -5.5     21.110     23.176
REMARK  Name = 
REMARK  4 active torsions:
REMARK  status: ('A' for Active; 'I' for Inactive)
REMARK    1  A    between atoms: C_2  and  C_12
REMARK    2  A    between atoms: N_3  and  C_4
REMARK    3  A    between atoms: C_4  and  C_5
REMARK    4  A    between atoms: C_17  and  N_18
REMARK                            x       y       z     vdW  Elec       q    Type
REMARK                         _______ _______ _______ _____ _____    ______ ____
ROOT
ATOM      1  O   UNL     1      22.314  -8.069  25.598  0.00  0.00    +0.000 OA
ATOM      2  C   UNL     1      21.126  -7.996  25.225  0.00  0.00    +0.000 C 
ATOM      3  N   UNL     1      20.921  -8.780  24.084  0.00  0.00    +0.000 NA
ENDROOT
BRANCH   2   4
ATOM      4  C   UNL     1      20.122  -7.191  25.911  0.00  0.00    +0.000 A 
ATOM      5  C   UNL     1      19.943  -5.836  25.745  0.00  0.00    +0.000 A 
ATOM      6  C   UNL     1      18.906  -5.164  26.416  0.00  0.00    +0.000 A 
ATOM      7  C   UNL     1      18.037  -5.822  27.255  0.00  0.00    +0.000 A 
ATOM      8  C   UNL     1      18.209  -7.198  27.431  0.00  0.00    +0.000 A 
ATOM      9  C   UNL     1      19.242  -7.844  26.758  0.00  0.00    +0.000 A 
BRANCH   9  10
ATOM     10  N   UNL     1      19.456  -9.242  26.950  0.00  0.00    +0.000 N 
ATOM     11  O   UNL     1      20.278  -9.654  27.777  0.00  0.00    +0.000 OA
ATOM     12  O   UNL     1      18.784 -10.209  26.245  0.00  0.00    +0.000 OA
ENDBRANCH   9  10
ENDBRANCH   2   4
BRANCH   3  13
ATOM     13  C   UNL     1      21.602  -9.614  23.270  0.00  0.00    +0.000 C 
BRANCH  13  14
ATOM     14  C   UNL     1      21.587  -9.352  21.710  0.00  0.00    +0.000 C 
ATOM     15  C   UNL     1      22.553 -10.407  21.144  0.00  0.00    +0.000 C 
ATOM     16  C   UNL     1      23.591  -9.518  20.195  0.00  0.00    +0.000 C 
ATOM     17  C   UNL     1      24.494  -9.126  21.410  0.00  0.00    +0.000 C 
ATOM     18  C   UNL     1      23.896  -8.365  22.163  0.00  0.00    +0.000 C 
ATOM     19  C   UNL     1      22.445  -7.982  21.729  0.00  0.00    +0.000 C 
ATOM     20  C   UNL     1      22.722  -8.192  20.128  0.00  0.00    +0.000 C 
ENDBRANCH  13  14
ENDBRANCH   3  13
TORSDOF 4
ENDMDL
MODEL 8
REMARK VINA RESULT:      -5.5     20.361     22.066
REMARK  Name = 
REMARK  4 active torsions:
REMARK  status: ('A' for Active; 'I' for Inactive)
REMARK    1  A    between atoms: C_2  and  C_12
REMARK    2  A    between atoms: N_3  and  C_4
REMARK    3  A    between atoms: C_4  and  C_5
REMARK    4  A    between atoms: C_17  and  N_18
REMARK                            x       y       z     vdW  Elec       q    Type
REMARK                         _______ _______ _______ _____ _____    ______ ____
ROOT
ATOM      1  O   UNL     1      24.685   2.536  14.913  0.00  0.00    +0.000 OA
ATOM      2  C   UNL     1      23.946   3.099  15.746  0.00  0.00    +0.000 C 
ATOM      3  N   UNL     1      24.536   4.283  16.203  0.00  0.00    +0.000 NA
ENDROOT
BRANCH   2   4
ATOM      4  C   UNL     1      22.655   2.561  16.160  0.00  0.00    +0.000 A 
ATOM      5  C   UNL     1      21.474   2.716  15.471  0.00  0.00    +0.000 A 
ATOM      6  C   UNL     1      20.292   2.107  15.932  0.00  0.00    +0.000 A 
ATOM      7  C   UNL     1      20.266   1.342  17.074  0.00  0.00    +0.000 A 
ATOM      8  C   UNL     1      21.461   1.178  17.781  0.00  0.00    +0.000 A 
ATOM      9  C   UNL     1      22.620   1.789  17.309  0.00  0.00    +0.000 A 
BRANCH   9  10
ATOM     10  N   UNL     1      23.841   1.661  18.035  0.00  0.00    +0.000 N 
ATOM     11  O   UNL     1      24.614   0.719  17.822  0.00  0.00    +0.000 OA
ATOM     12  O   UNL     1      24.239   2.551  19.001  0.00  0.00    +0.000 OA
ENDBRANCH   9  10
ENDBRANCH   2   4
BRANCH   3  13
ATOM     13  C   UNL     1      25.647   5.025  16.007  0.00  0.00    +0.000 C 
BRANCH  13  14
ATOM     14  C   UNL     1      26.012   6.157  17.049  0.00  0.00    +0.000 C 
ATOM     15  C   UNL     1      27.080   6.998  16.329  0.00  0.00    +0.000 C 
ATOM     16  C   UNL     1      28.322   7.081  17.432  0.00  0.00    +0.000 C 
ATOM     17  C   UNL     1      28.906   5.697  17.000  0.00  0.00    +0.000 C 
ATOM     18  C   UNL     1      28.148   4.789  17.325  0.00  0.00    +0.000 C 
ATOM     19  C   UNL     1      26.848   5.225  18.072  0.00  0.00    +0.000 C 
ATOM     20  C   UNL     1      27.504   6.590  18.700  0.00  0.00    +0.000 C 
ENDBRANCH  13  14
ENDBRANCH   3  13
TORSDOF 4
ENDMDL
MODEL 9
REMARK VINA RESULT:      -5.4     20.130     22.238
REMARK  Name = 
REMARK  4 active torsions:
REMARK  status: ('A' for Active; 'I' for Inactive)
REMARK    1  A    between atoms: C_2  and  C_12
REMARK    2  A    between atoms: N_3  and  C_4
REMARK    3  A    between atoms: C_4  and  C_5
REMARK    4  A    between atoms: C_17  and  N_18
REMARK                            x       y       z     vdW  Elec       q    Type
REMARK                         _______ _______ _______ _____ _____    ______ ____
ROOT
ATOM      1  O   UNL     1      17.179  -9.444  27.492  0.00  0.00    +0.000 OA
ATOM      2  C   UNL     1      17.018  -8.587  26.600  0.00  0.00    +0.000 C 
ATOM      3  N   UNL     1      15.916  -8.913  25.801  0.00  0.00    +0.000 NA
ENDROOT
BRANCH   2   4
ATOM      4  C   UNL     1      17.882  -7.423  26.446  0.00  0.00    +0.000 A 
ATOM      5  C   UNL     1      17.625  -6.171  26.957  0.00  0.00    +0.000 A 
ATOM      6  C   UNL     1      18.555  -5.128  26.798  0.00  0.00    +0.000 A 
ATOM      7  C   UNL     1      19.745  -5.311  26.133  0.00  0.00    +0.000 A 
ATOM      8  C   UNL     1      20.017  -6.578  25.610  0.00  0.00    +0.000 A 
ATOM      9  C   UNL     1      19.083  -7.597  25.779  0.00  0.00    +0.000 A 
BRANCH   9  10
ATOM     10  N   UNL     1      19.326  -8.889  25.224  0.00  0.00    +0.000 N 
ATOM     11  O   UNL     1      19.997  -9.730  25.835  0.00  0.00    +0.000 OA
ATOM     12  O   UNL     1      18.848  -9.283  23.999  0.00  0.00    +0.000 OA
ENDBRANCH   9  10
ENDBRANCH   2   4
BRANCH   3  13
ATOM     13  C   UNL     1      14.954  -9.855  25.705  0.00  0.00    +0.000 C 
BRANCH  13  14
ATOM     14  C   UNL     1      13.762  -9.848  26.746  0.00  0.00    +0.000 C 
ATOM     15  C   UNL     1      12.794 -10.918  26.213  0.00  0.00    +0.000 C 
ATOM     16  C   UNL     1      11.329 -10.130  26.164  0.00  0.00    +0.000 C 
ATOM     17  C   UNL     1      11.629  -9.492  24.768  0.00  0.00    +0.000 C 
ATOM     18  C   UNL     1      12.524  -8.658  24.859  0.00  0.00    +0.000 C 
ATOM     19  C   UNL     1      13.108  -8.442  26.292  0.00  0.00    +0.000 C 
ATOM     20  C   UNL     1      11.734  -8.888  27.066  0.00  0.00    +0.000 C 
ENDBRANCH  13  14
ENDBRANCH   3  13
TORSDOF 4
ENDMDL
MODEL 10
REMARK VINA RESULT:      -5.4     21.092     23.220
REMARK  Name = 
REMARK  4 active torsions:
REMARK  status: ('A' for Active; 'I' for Inactive)
REMARK    1  A    between atoms: C_2  and  C_12
REMARK    2  A    between atoms: N_3  and  C_4
REMARK    3  A    between atoms: C_4  and  C_5
REMARK    4  A    between atoms: C_17  and  N_18
REMARK                            x       y       z     vdW  Elec       q    Type
REMARK                         _______ _______ _______ _____ _____    ______ ____
ROOT
ATOM      1  O   UNL     1      22.118  -8.583  25.938  0.00  0.00    +0.000 OA
ATOM      2  C   UNL     1      21.326  -7.956  25.206  0.00  0.00    +0.000 C 
ATOM      3  N   UNL     1      21.655  -8.140  23.858  0.00  0.00    +0.000 NA
ENDROOT
BRANCH   2   4
ATOM      4  C   UNL     1      20.224  -7.154  25.725  0.00  0.00    +0.000 A 
ATOM      5  C   UNL     1      20.231  -5.783  25.848  0.00  0.00    +0.000 A 
ATOM      6  C   UNL     1      19.091  -5.101  26.310  0.00  0.00    +0.000 A 
ATOM      7  C   UNL     1      17.937  -5.764  26.654  0.00  0.00    +0.000 A 
ATOM      8  C   UNL     1      17.919  -7.157  26.533  0.00  0.00    +0.000 A 
ATOM      9  C   UNL     1      19.058  -7.814  26.074  0.00  0.00    +0.000 A 
BRANCH   9  10
ATOM     10  N   UNL     1      19.071  -9.236  25.975  0.00  0.00    +0.000 N 
ATOM     11  O   UNL     1      18.797  -9.805  24.911  0.00  0.00    +0.000 OA
ATOM     12  O   UNL     1      19.380 -10.061  27.028  0.00  0.00    +0.000 OA
ENDBRANCH   9  10
ENDBRANCH   2   4
BRANCH   3  13
ATOM     13  C   UNL     1      22.549  -8.804  23.096  0.00  0.00    +0.000 C 
BRANCH  13  14
ATOM     14  C   UNL     1      23.768  -8.013  22.470  0.00  0.00    +0.000 C 
ATOM     15  C   UNL     1      24.464  -9.048  21.570  0.00  0.00    +0.000 C 
ATOM     16  C   UNL     1      26.056  -8.974  22.049  0.00  0.00    +0.000 C 
ATOM     17  C   UNL     1      25.824  -9.950  23.248  0.00  0.00    +0.000 C 
ATOM     18  C   UNL     1      25.128  -9.419  24.107  0.00  0.00    +0.000 C 
ATOM     19  C   UNL     1      24.676  -7.955  23.806  0.00  0.00    +0.000 C 
ATOM     20  C   UNL     1      25.965  -7.609  22.854  0.00  0.00    +0.000 C 
ENDBRANCH  13  14
ENDBRANCH   3  13
TORSDOF 4
ENDMDL
