MODEL 1
REMARK VINA RESULT:      -6.0      0.000      0.000
REMARK  Name = 
REMARK  3 active torsions:
REMARK  status: ('A' for Active; 'I' for Inactive)
REMARK    1  A    between atoms: C_5  and  C_6
REMARK    2  A    between atoms: C_6  and  N_7
REMARK    3  A    between atoms: C_11  and  C_12
REMARK                            x       y       z     vdW  Elec       q    Type
REMARK                         _______ _______ _______ _____ _____    ______ ____
ROOT
ATOM      1  N   UNL     1      29.694  25.629  23.016  0.00  0.00    +0.000 N 
ATOM      2  C   UNL     1      29.064  26.841  23.225  0.00  0.00    +0.000 C 
ATOM      3  O   UNL     1      29.272  27.610  24.233  0.00  0.00    +0.000 OA
ATOM      4  N   UNL     1      28.187  27.074  22.177  0.00  0.00    +0.000 NA
ATOM      5  C   UNL     1      27.783  25.694  21.563  0.00  0.00    +0.000 C 
ATOM      6  C   UNL     1      29.257  25.050  21.855  0.00  0.00    +0.000 C 
ATOM      7  O   UNL     1      29.703  24.218  21.052  0.00  0.00    +0.000 OA
ENDROOT
BRANCH   5   8
ATOM      8  C   UNL     1      27.117  25.114  22.857  0.00  0.00    +0.000 A 
ATOM      9  C   UNL     1      26.627  26.011  23.755  0.00  0.00    +0.000 A 
ATOM     10  C   UNL     1      26.023  25.500  24.894  0.00  0.00    +0.000 A 
ATOM     11  C   UNL     1      25.934  24.140  25.091  0.00  0.00    +0.000 A 
ATOM     12  F   UNL     1      25.348  23.638  26.198  0.00  0.00    +0.000 F 
ATOM     13  C   UNL     1      26.437  23.217  24.174  0.00  0.00    +0.000 A 
ATOM     14  C   UNL     1      27.032  23.766  23.048  0.00  0.00    +0.000 A 
ENDBRANCH   5   8
BRANCH   1  15
ATOM     15  C   UNL     1      30.716  24.956  23.866  0.00  0.00    +0.000 C 
BRANCH  15  20
ATOM     16  C   UNL     1      28.042  22.339  28.166  0.00  0.00    +0.000 C 
ATOM     17  C   UNL     1      28.750  22.999  27.023  0.00  0.00    +0.000 A 
ATOM     18  C   UNL     1      28.854  24.362  27.034  0.00  0.00    +0.000 A 
ATOM     19  C   UNL     1      29.491  25.040  26.018  0.00  0.00    +0.000 A 
ATOM     20  C   UNL     1      30.015  24.299  24.998  0.00  0.00    +0.000 A 
ATOM     21  C   UNL     1      29.929  22.918  24.951  0.00  0.00    +0.000 A 
ATOM     22  C   UNL     1      29.282  22.286  25.992  0.00  0.00    +0.000 A 
ENDBRANCH  15  20
ENDBRANCH   1  15
TORSDOF 3
ENDMDL
MODEL 2
REMARK VINA RESULT:      -5.9     13.777     15.954
REMARK  Name = 
REMARK  3 active torsions:
REMARK  status: ('A' for Active; 'I' for Inactive)
REMARK    1  A    between atoms: C_5  and  C_6
REMARK    2  A    between atoms: C_6  and  N_7
REMARK    3  A    between atoms: C_11  and  C_12
REMARK                            x       y       z     vdW  Elec       q    Type
REMARK                         _______ _______ _______ _____ _____    ______ ____
ROOT
ATOM      1  N   UNL     1      31.202  21.379   9.629  0.00  0.00    +0.000 N 
ATOM      2  C   UNL     1      31.345  22.631   9.062  0.00  0.00    +0.000 C 
ATOM      3  O   UNL     1      30.450  23.553   9.085  0.00  0.00    +0.000 OA
ATOM      4  N   UNL     1      32.599  22.715   8.476  0.00  0.00    +0.000 NA
ATOM      5  C   UNL     1      33.070  21.266   8.124  0.00  0.00    +0.000 C 
ATOM      6  C   UNL     1      32.330  20.628   9.433  0.00  0.00    +0.000 C 
ATOM      7  O   UNL     1      32.859  19.656   9.990  0.00  0.00    +0.000 OA
ENDROOT
BRANCH   5   8
ATOM      8  C   UNL     1      31.904  20.939   7.130  0.00  0.00    +0.000 A 
ATOM      9  C   UNL     1      31.561  21.910   6.239  0.00  0.00    +0.000 A 
ATOM     10  C   UNL     1      30.539  21.617   5.348  0.00  0.00    +0.000 A 
ATOM     11  C   UNL     1      29.910  20.392   5.379  0.00  0.00    +0.000 A 
ATOM     12  F   UNL     1      28.915  20.104   4.514  0.00  0.00    +0.000 F 
ATOM     13  C   UNL     1      30.258  19.395   6.291  0.00  0.00    +0.000 A 
ATOM     14  C   UNL     1      31.284  19.725   7.165  0.00  0.00    +0.000 A 
ENDBRANCH   5   8
BRANCH   1  15
ATOM     15  C   UNL     1      30.034  20.824  10.367  0.00  0.00    +0.000 C 
BRANCH  15  20
ATOM     16  C   UNL     1      28.486  24.557  14.388  0.00  0.00    +0.000 C 
ATOM     17  C   UNL     1      28.864  23.580  13.318  0.00  0.00    +0.000 A 
ATOM     18  C   UNL     1      30.109  23.017  13.375  0.00  0.00    +0.000 A 
ATOM     19  C   UNL     1      30.530  22.110  12.427  0.00  0.00    +0.000 A 
ATOM     20  C   UNL     1      29.655  21.794  11.427  0.00  0.00    +0.000 A 
ATOM     21  C   UNL     1      28.387  22.342  11.336  0.00  0.00    +0.000 A 
ATOM     22  C   UNL     1      28.014  23.245  12.309  0.00  0.00    +0.000 A 
ENDBRANCH  15  20
ENDBRANCH   1  15
TORSDOF 3
ENDMDL
MODEL 3
REMARK VINA RESULT:      -5.9      2.004      3.068
REMARK  Name = 
REMARK  3 active torsions:
REMARK  status: ('A' for Active; 'I' for Inactive)
REMARK    1  A    between atoms: C_5  and  C_6
REMARK    2  A    between atoms: C_6  and  N_7
REMARK    3  A    between atoms: C_11  and  C_12
REMARK                            x       y       z     vdW  Elec       q    Type
REMARK                         _______ _______ _______ _____ _____    ______ ____
ROOT
ATOM      1  N   UNL     1      28.819  25.566  23.129  0.00  0.00    +0.000 N 
ATOM      2  C   UNL     1      27.534  25.492  23.632  0.00  0.00    +0.000 C 
ATOM      3  O   UNL     1      27.057  26.268  24.538  0.00  0.00    +0.000 OA
ATOM      4  N   UNL     1      26.866  24.456  22.998  0.00  0.00    +0.000 NA
ATOM      5  C   UNL     1      27.931  23.429  22.490  0.00  0.00    +0.000 C 
ATOM      6  C   UNL     1      29.022  24.604  22.177  0.00  0.00    +0.000 C 
ATOM      7  O   UNL     1      29.789  24.450  21.216  0.00  0.00    +0.000 OA
ENDROOT
BRANCH   5   8
ATOM      8  C   UNL     1      28.513  23.068  23.900  0.00  0.00    +0.000 A 
ATOM      9  C   UNL     1      27.657  23.128  24.956  0.00  0.00    +0.000 A 
ATOM     10  C   UNL     1      28.166  22.794  26.203  0.00  0.00    +0.000 A 
ATOM     11  C   UNL     1      29.485  22.421  26.345  0.00  0.00    +0.000 A 
ATOM     12  F   UNL     1      29.984  22.097  27.555  0.00  0.00    +0.000 F 
ATOM     13  C   UNL     1      30.365  22.360  25.265  0.00  0.00    +0.000 A 
ATOM     14  C   UNL     1      29.819  22.700  24.036  0.00  0.00    +0.000 A 
ENDBRANCH   5   8
BRANCH   1  15
ATOM     15  C   UNL     1      29.906  26.516  23.497  0.00  0.00    +0.000 C 
BRANCH  15  20
ATOM     16  C   UNL     1      32.316  24.714  28.338  0.00  0.00    +0.000 C 
ATOM     17  C   UNL     1      31.710  25.180  27.051  0.00  0.00    +0.000 A 
ATOM     18  C   UNL     1      30.436  25.677  27.085  0.00  0.00    +0.000 A 
ATOM     19  C   UNL     1      29.811  26.125  25.942  0.00  0.00    +0.000 A 
ATOM     20  C   UNL     1      30.511  26.053  24.772  0.00  0.00    +0.000 A 
ATOM     21  C   UNL     1      31.801  25.556  24.697  0.00  0.00    +0.000 A 
ATOM     22  C   UNL     1      32.383  25.121  25.868  0.00  0.00    +0.000 A 
ENDBRANCH  15  20
ENDBRANCH   1  15
TORSDOF 3
ENDMDL
MODEL 4
REMARK VINA RESULT:      -5.7      2.838      4.459
REMARK  Name = 
REMARK  3 active torsions:
REMARK  status: ('A' for Active; 'I' for Inactive)
REMARK    1  A    between atoms: C_5  and  C_6
REMARK    2  A    between atoms: C_6  and  N_7
REMARK    3  A    between atoms: C_11  and  C_12
REMARK                            x       y       z     vdW  Elec       q    Type
REMARK                         _______ _______ _______ _____ _____    ______ ____
ROOT
ATOM      1  N   UNL     1      26.580  23.244  25.786  0.00  0.00    +0.000 N 
ATOM      2  C   UNL     1      26.086  23.537  24.529  0.00  0.00    +0.000 C 
ATOM      3  O   UNL     1      26.419  22.925  23.449  0.00  0.00    +0.000 OA
ATOM      4  N   UNL     1      25.186  24.587  24.637  0.00  0.00    +0.000 NA
ATOM      5  C   UNL     1      25.548  25.408  25.918  0.00  0.00    +0.000 C 
ATOM      6  C   UNL     1      26.032  24.073  26.726  0.00  0.00    +0.000 C 
ATOM      7  O   UNL     1      25.842  24.028  27.950  0.00  0.00    +0.000 OA
ENDROOT
BRANCH   5   8
ATOM      8  C   UNL     1      26.988  25.824  25.459  0.00  0.00    +0.000 A 
ATOM      9  C   UNL     1      27.193  25.966  24.121  0.00  0.00    +0.000 A 
ATOM     10  C   UNL     1      28.462  26.349  23.713  0.00  0.00    +0.000 A 
ATOM     11  C   UNL     1      29.459  26.571  24.638  0.00  0.00    +0.000 A 
ATOM     12  F   UNL     1      30.695  26.943  24.245  0.00  0.00    +0.000 F 
ATOM     13  C   UNL     1      29.252  26.425  26.010  0.00  0.00    +0.000 A 
ATOM     14  C   UNL     1      27.971  26.042  26.378  0.00  0.00    +0.000 A 
ENDBRANCH   5   8
BRANCH   1  15
ATOM     15  C   UNL     1      27.567  22.198  26.172  0.00  0.00    +0.000 C 
BRANCH  15  20
ATOM     16  C   UNL     1      32.780  24.021  24.760  0.00  0.00    +0.000 C 
ATOM     17  C   UNL     1      31.419  23.544  25.161  0.00  0.00    +0.000 A 
ATOM     18  C   UNL     1      30.523  23.254  24.170  0.00  0.00    +0.000 A 
ATOM     19  C   UNL     1      29.251  22.810  24.461  0.00  0.00    +0.000 A 
ATOM     20  C   UNL     1      28.919  22.671  25.778  0.00  0.00    +0.000 A 
ATOM     21  C   UNL     1      29.798  22.955  26.809  0.00  0.00    +0.000 A 
ATOM     22  C   UNL     1      31.058  23.396  26.466  0.00  0.00    +0.000 A 
ENDBRANCH  15  20
ENDBRANCH   1  15
TORSDOF 3
ENDMDL
MODEL 5
REMARK VINA RESULT:      -5.7     20.094     21.444
REMARK  Name = 
REMARK  3 active torsions:
REMARK  status: ('A' for Active; 'I' for Inactive)
REMARK    1  A    between atoms: C_5  and  C_6
REMARK    2  A    between atoms: C_6  and  N_7
REMARK    3  A    between atoms: C_11  and  C_12
REMARK                            x       y       z     vdW  Elec       q    Type
REMARK                         _______ _______ _______ _____ _____    ______ ____
ROOT
ATOM      1  N   UNL     1      27.649   5.398  13.930  0.00  0.00    +0.000 N 
ATOM      2  C   UNL     1      28.977   5.450  14.309  0.00  0.00    +0.000 C 
ATOM      3  O   UNL     1      29.715   4.423  14.535  0.00  0.00    +0.000 OA
ATOM      4  N   UNL     1      29.363   6.778  14.399  0.00  0.00    +0.000 NA
ATOM      5  C   UNL     1      28.087   7.640  14.671  0.00  0.00    +0.000 C 
ATOM      6  C   UNL     1      27.143   6.659  13.767  0.00  0.00    +0.000 C 
ATOM      7  O   UNL     1      26.205   7.167  13.135  0.00  0.00    +0.000 OA
ENDROOT
BRANCH   5   8
ATOM      8  C   UNL     1      27.713   6.972  16.039  0.00  0.00    +0.000 A 
ATOM      9  C   UNL     1      28.721   6.370  16.729  0.00  0.00    +0.000 A 
ATOM     10  C   UNL     1      28.396   5.792  17.947  0.00  0.00    +0.000 A 
ATOM     11  C   UNL     1      27.103   5.835  18.421  0.00  0.00    +0.000 A 
ATOM     12  F   UNL     1      26.782   5.273  19.605  0.00  0.00    +0.000 F 
ATOM     13  C   UNL     1      26.067   6.449  17.717  0.00  0.00    +0.000 A 
ATOM     14  C   UNL     1      26.432   7.016  16.504  0.00  0.00    +0.000 A 
ENDBRANCH   5   8
BRANCH   1  15
ATOM     15  C   UNL     1      26.796   4.198  13.703  0.00  0.00    +0.000 C 
BRANCH  15  20
ATOM     16  C   UNL     1      24.402   2.738  18.666  0.00  0.00    +0.000 C 
ATOM     17  C   UNL     1      25.003   3.135  17.353  0.00  0.00    +0.000 A 
ATOM     18  C   UNL     1      26.304   2.789  17.114  0.00  0.00    +0.000 A 
ATOM     19  C   UNL     1      26.927   3.119  15.930  0.00  0.00    +0.000 A 
ATOM     20  C   UNL     1      26.196   3.806  15.004  0.00  0.00    +0.000 A 
ATOM     21  C   UNL     1      24.878   4.174  15.210  0.00  0.00    +0.000 A 
ATOM     22  C   UNL     1      24.299   3.821  16.410  0.00  0.00    +0.000 A 
ENDBRANCH  15  20
ENDBRANCH   1  15
TORSDOF 3
ENDMDL
MODEL 6
REMARK VINA RESULT:      -5.7      1.857      3.773
REMARK  Name = 
REMARK  3 active torsions:
REMARK  status: ('A' for Active; 'I' for Inactive)
REMARK    1  A    between atoms: C_5  and  C_6
REMARK    2  A    between atoms: C_6  and  N_7
REMARK    3  A    between atoms: C_11  and  C_12
REMARK                            x       y       z     vdW  Elec       q    Type
REMARK                         _______ _______ _______ _____ _____    ______ ____
ROOT
ATOM      1  N   UNL     1      27.557  25.114  23.406  0.00  0.00    +0.000 N 
ATOM      2  C   UNL     1      28.067  24.210  22.493  0.00  0.00    +0.000 C 
ATOM      3  O   UNL     1      27.556  23.059  22.238  0.00  0.00    +0.000 OA
ATOM      4  N   UNL     1      29.204  24.753  21.915  0.00  0.00    +0.000 NA
ATOM      5  C   UNL     1      29.805  25.799  22.910  0.00  0.00    +0.000 C 
ATOM      6  C   UNL     1      28.327  26.244  23.449  0.00  0.00    +0.000 C 
ATOM      7  O   UNL     1      28.156  27.426  23.780  0.00  0.00    +0.000 OA
ENDROOT
BRANCH   5   8
ATOM      8  C   UNL     1      30.082  24.791  24.078  0.00  0.00    +0.000 A 
ATOM      9  C   UNL     1      30.228  23.480  23.741  0.00  0.00    +0.000 A 
ATOM     10  C   UNL     1      30.489  22.588  24.770  0.00  0.00    +0.000 A 
ATOM     11  C   UNL     1      30.591  23.029  26.072  0.00  0.00    +0.000 A 
ATOM     12  F   UNL     1      30.844  22.164  27.076  0.00  0.00    +0.000 F 
ATOM     13  C   UNL     1      30.441  24.371  26.421  0.00  0.00    +0.000 A 
ATOM     14  C   UNL     1      30.181  25.232  25.364  0.00  0.00    +0.000 A 
ENDBRANCH   5   8
BRANCH   1  15
ATOM     15  C   UNL     1      26.351  24.979  24.269  0.00  0.00    +0.000 C 
BRANCH  15  20
ATOM     16  C   UNL     1      27.875  22.331  29.081  0.00  0.00    +0.000 C 
ATOM     17  C   UNL     1      27.474  23.054  27.833  0.00  0.00    +0.000 A 
ATOM     18  C   UNL     1      27.321  22.321  26.689  0.00  0.00    +0.000 A 
ATOM     19  C   UNL     1      26.954  22.915  25.501  0.00  0.00    +0.000 A 
ATOM     20  C   UNL     1      26.749  24.265  25.509  0.00  0.00    +0.000 A 
ATOM     21  C   UNL     1      26.894  25.040  26.647  0.00  0.00    +0.000 A 
ATOM     22  C   UNL     1      27.262  24.399  27.810  0.00  0.00    +0.000 A 
ENDBRANCH  15  20
ENDBRANCH   1  15
TORSDOF 3
ENDMDL
MODEL 7
REMARK VINA RESULT:      -5.6      2.272      4.862
REMARK  Name = 
REMARK  3 active torsions:
REMARK  status: ('A' for Active; 'I' for Inactive)
REMARK    1  A    between atoms: C_5  and  C_6
REMARK    2  A    between atoms: C_6  and  N_7
REMARK    3  A    between atoms: C_11  and  C_12
REMARK                            x       y       z     vdW  Elec       q    Type
REMARK                         _______ _______ _______ _____ _____    ______ ____
ROOT
ATOM      1  N   UNL     1      27.466  24.918  24.177  0.00  0.00    +0.000 N 
ATOM      2  C   UNL     1      26.544  25.694  24.854  0.00  0.00    +0.000 C 
ATOM      3  O   UNL     1      26.814  26.800  25.450  0.00  0.00    +0.000 OA
ATOM      4  N   UNL     1      25.303  25.080  24.779  0.00  0.00    +0.000 NA
ATOM      5  C   UNL     1      25.530  23.548  24.556  0.00  0.00    +0.000 C 
ATOM      6  C   UNL     1      26.869  23.803  23.654  0.00  0.00    +0.000 C 
ATOM      7  O   UNL     1      27.107  23.019  22.725  0.00  0.00    +0.000 OA
ENDROOT
BRANCH   5   8
ATOM      8  C   UNL     1      26.308  23.290  25.892  0.00  0.00    +0.000 A 
ATOM      9  C   UNL     1      25.798  23.852  27.022  0.00  0.00    +0.000 A 
ATOM     10  C   UNL     1      26.476  23.612  28.208  0.00  0.00    +0.000 A 
ATOM     11  C   UNL     1      27.616  22.837  28.221  0.00  0.00    +0.000 A 
ATOM     12  F   UNL     1      28.279  22.602  29.372  0.00  0.00    +0.000 F 
ATOM     13  C   UNL     1      28.142  22.261  27.064  0.00  0.00    +0.000 A 
ATOM     14  C   UNL     1      27.436  22.523  25.899  0.00  0.00    +0.000 A 
ENDBRANCH   5   8
BRANCH   1  15
ATOM     15  C   UNL     1      28.921  25.166  23.983  0.00  0.00    +0.000 C 
BRANCH  15  20
ATOM     16  C   UNL     1      29.581  28.107  19.145  0.00  0.00    +0.000 C 
ATOM     17  C   UNL     1      29.404  27.362  20.431  0.00  0.00    +0.000 A 
ATOM     18  C   UNL     1      29.493  25.998  20.399  0.00  0.00    +0.000 A 
ATOM     19  C   UNL     1      29.341  25.243  21.542  0.00  0.00    +0.000 A 
ATOM     20  C   UNL     1      29.097  25.909  22.709  0.00  0.00    +0.000 A 
ATOM     21  C   UNL     1      28.999  27.288  22.781  0.00  0.00    +0.000 A 
ATOM     22  C   UNL     1      29.159  27.998  21.610  0.00  0.00    +0.000 A 
ENDBRANCH  15  20
ENDBRANCH   1  15
TORSDOF 3
ENDMDL
MODEL 8
REMARK VINA RESULT:      -5.6      2.054      2.927
REMARK  Name = 
REMARK  3 active torsions:
REMARK  status: ('A' for Active; 'I' for Inactive)
REMARK    1  A    between atoms: C_5  and  C_6
REMARK    2  A    between atoms: C_6  and  N_7
REMARK    3  A    between atoms: C_11  and  C_12
REMARK                            x       y       z     vdW  Elec       q    Type
REMARK                         _______ _______ _______ _____ _____    ______ ____
ROOT
ATOM      1  N   UNL     1      27.463  24.981  23.685  0.00  0.00    +0.000 N 
ATOM      2  C   UNL     1      26.865  26.002  24.400  0.00  0.00    +0.000 C 
ATOM      3  O   UNL     1      27.471  27.053  24.822  0.00  0.00    +0.000 OA
ATOM      4  N   UNL     1      25.524  25.697  24.576  0.00  0.00    +0.000 NA
ATOM      5  C   UNL     1      25.362  24.143  24.495  0.00  0.00    +0.000 C 
ATOM      6  C   UNL     1      26.552  24.004  23.384  0.00  0.00    +0.000 C 
ATOM      7  O   UNL     1      26.450  23.118  22.523  0.00  0.00    +0.000 OA
ENDROOT
BRANCH   5   8
ATOM      8  C   UNL     1      26.277  23.808  25.723  0.00  0.00    +0.000 A 
ATOM      9  C   UNL     1      26.342  24.736  26.717  0.00  0.00    +0.000 A 
ATOM     10  C   UNL     1      27.139  24.434  27.812  0.00  0.00    +0.000 A 
ATOM     11  C   UNL     1      27.828  23.243  27.871  0.00  0.00    +0.000 A 
ATOM     12  F   UNL     1      28.604  22.946  28.934  0.00  0.00    +0.000 F 
ATOM     13  C   UNL     1      27.765  22.290  26.854  0.00  0.00    +0.000 A 
ATOM     14  C   UNL     1      26.958  22.627  25.777  0.00  0.00    +0.000 A 
ENDBRANCH   5   8
BRANCH   1  15
ATOM     15  C   UNL     1      28.883  24.860  23.254  0.00  0.00    +0.000 C 
BRANCH  15  20
ATOM     16  C   UNL     1      31.962  23.005  27.678  0.00  0.00    +0.000 C 
ATOM     17  C   UNL     1      31.157  23.464  26.502  0.00  0.00    +0.000 A 
ATOM     18  C   UNL     1      30.673  24.743  26.516  0.00  0.00    +0.000 A 
ATOM     19  C   UNL     1      29.924  25.237  25.470  0.00  0.00    +0.000 A 
ATOM     20  C   UNL     1      29.682  24.401  24.418  0.00  0.00    +0.000 A 
ATOM     21  C   UNL     1      30.155  23.101  24.368  0.00  0.00    +0.000 A 
ATOM     22  C   UNL     1      30.899  22.653  25.438  0.00  0.00    +0.000 A 
ENDBRANCH  15  20
ENDBRANCH   1  15
TORSDOF 3
ENDMDL
MODEL 9
REMARK VINA RESULT:      -5.6      2.152      3.611
REMARK  Name = 
REMARK  3 active torsions:
REMARK  status: ('A' for Active; 'I' for Inactive)
REMARK    1  A    between atoms: C_5  and  C_6
REMARK    2  A    between atoms: C_6  and  N_7
REMARK    3  A    between atoms: C_11  and  C_12
REMARK                            x       y       z     vdW  Elec       q    Type
REMARK                         _______ _______ _______ _____ _____    ______ ____
ROOT
ATOM      1  N   UNL     1      27.752  24.560  23.343  0.00  0.00    +0.000 N 
ATOM      2  C   UNL     1      28.679  24.993  22.415  0.00  0.00    +0.000 C 
ATOM      3  O   UNL     1      29.521  24.232  21.811  0.00  0.00    +0.000 OA
ATOM      4  N   UNL     1      28.543  26.363  22.253  0.00  0.00    +0.000 NA
ATOM      5  C   UNL     1      27.909  26.947  23.559  0.00  0.00    +0.000 C 
ATOM      6  C   UNL     1      27.003  25.609  23.804  0.00  0.00    +0.000 C 
ATOM      7  O   UNL     1      25.885  25.745  24.320  0.00  0.00    +0.000 OA
ENDROOT
BRANCH   5   8
ATOM      8  C   UNL     1      29.065  26.512  24.525  0.00  0.00    +0.000 A 
ATOM      9  C   UNL     1      30.301  26.353  23.977  0.00  0.00    +0.000 A 
ATOM     10  C   UNL     1      31.329  25.984  24.832  0.00  0.00    +0.000 A 
ATOM     11  C   UNL     1      31.089  25.790  26.175  0.00  0.00    +0.000 A 
ATOM     12  F   UNL     1      32.085  25.430  27.010  0.00  0.00    +0.000 F 
ATOM     13  C   UNL     1      29.823  25.950  26.739  0.00  0.00    +0.000 A 
ATOM     14  C   UNL     1      28.822  26.320  25.852  0.00  0.00    +0.000 A 
ENDBRANCH   5   8
BRANCH   1  15
ATOM     15  C   UNL     1      27.516  23.176  23.842  0.00  0.00    +0.000 C 
BRANCH  15  20
ATOM     16  C   UNL     1      31.338  22.122  27.937  0.00  0.00    +0.000 C 
ATOM     17  C   UNL     1      30.357  22.396  26.840  0.00  0.00    +0.000 A 
ATOM     18  C   UNL     1      29.055  22.629  27.187  0.00  0.00    +0.000 A 
ATOM     19  C   UNL     1      28.094  22.889  26.234  0.00  0.00    +0.000 A 
ATOM     20  C   UNL     1      28.491  22.904  24.928  0.00  0.00    +0.000 A 
ATOM     21  C   UNL     1      29.799  22.673  24.537  0.00  0.00    +0.000 A 
ATOM     22  C   UNL     1      30.723  22.418  25.528  0.00  0.00    +0.000 A 
ENDBRANCH  15  20
ENDBRANCH   1  15
TORSDOF 3
ENDMDL
MODEL 10
REMARK VINA RESULT:      -5.5     19.633     21.675
REMARK  Name = 
REMARK  3 active torsions:
REMARK  status: ('A' for Active; 'I' for Inactive)
REMARK    1  A    between atoms: C_5  and  C_6
REMARK    2  A    between atoms: C_6  and  N_7
REMARK    3  A    between atoms: C_11  and  C_12
REMARK                            x       y       z     vdW  Elec       q    Type
REMARK                         _______ _______ _______ _____ _____    ______ ____
ROOT
ATOM      1  N   UNL     1      19.241  10.783  37.941  0.00  0.00    +0.000 N 
ATOM      2  C   UNL     1      19.657  12.014  38.411  0.00  0.00    +0.000 C 
ATOM      3  O   UNL     1      19.521  13.124  37.778  0.00  0.00    +0.000 OA
ATOM      4  N   UNL     1      20.236  11.843  39.659  0.00  0.00    +0.000 NA
ATOM      5  C   UNL     1      20.759  10.372  39.756  0.00  0.00    +0.000 C 
ATOM      6  C   UNL     1      19.530   9.797  38.846  0.00  0.00    +0.000 C 
ATOM      7  O   UNL     1      19.094   8.665  39.098  0.00  0.00    +0.000 OA
ENDROOT
BRANCH   5   8
ATOM      8  C   UNL     1      21.779  10.470  38.570  0.00  0.00    +0.000 A 
ATOM      9  C   UNL     1      22.616  11.544  38.561  0.00  0.00    +0.000 A 
ATOM     10  C   UNL     1      23.529  11.624  37.521  0.00  0.00    +0.000 A 
ATOM     11  C   UNL     1      23.571  10.651  36.547  0.00  0.00    +0.000 A 
ATOM     12  F   UNL     1      24.458  10.726  35.532  0.00  0.00    +0.000 F 
ATOM     13  C   UNL     1      22.714   9.550  36.551  0.00  0.00    +0.000 A 
ATOM     14  C   UNL     1      21.816   9.504  37.608  0.00  0.00    +0.000 A 
ENDBRANCH   5   8
BRANCH   1  15
ATOM     15  C   UNL     1      18.566  10.463  36.653  0.00  0.00    +0.000 C 
BRANCH  15  20
ATOM     16  C   UNL     1      13.285  12.603  36.770  0.00  0.00    +0.000 C 
ATOM     17  C   UNL     1      14.677  12.056  36.712  0.00  0.00    +0.000 A 
ATOM     18  C   UNL     1      15.087  11.238  37.728  0.00  0.00    +0.000 A 
ATOM     19  C   UNL     1      16.354  10.696  37.744  0.00  0.00    +0.000 A 
ATOM     20  C   UNL     1      17.186  11.007  36.707  0.00  0.00    +0.000 A 
ATOM     21  C   UNL     1      16.807  11.831  35.661  0.00  0.00    +0.000 A 
ATOM     22  C   UNL     1      15.529  12.349  35.691  0.00  0.00    +0.000 A 
ENDBRANCH  15  20
ENDBRANCH   1  15
TORSDOF 3
ENDMDL
