MODEL 1
REMARK VINA RESULT:      -7.9      0.000      0.000
REMARK  Name = 
REMARK  0 active torsions:
REMARK  status: ('A' for Active; 'I' for Inactive)
REMARK                            x       y       z     vdW  Elec       q    Type
REMARK                         _______ _______ _______ _____ _____    ______ ____
ROOT
ATOM      1  C   UNL     1      23.784  -8.141  22.134  0.00  0.00    +0.000 C 
ATOM      2  C   UNL     1      24.212  -8.060  23.571  0.00  0.00    +0.000 C 
ATOM      3  C   UNL     1      24.260  -6.680  24.110  0.00  0.00    +0.000 C 
ATOM      4  C   UNL     1      22.833  -6.336  24.473  0.00  0.00    +0.000 C 
ATOM      5  C   UNL     1      22.067  -7.478  25.061  0.00  0.00    +0.000 C 
ATOM      6  C   UNL     1      22.485  -8.733  25.081  0.00  0.00    +0.000 C 
ATOM      7  C   UNL     1      21.684  -9.804  25.673  0.00  0.00    +0.000 C 
ATOM      8  C   UNL     1      20.393  -9.428  26.246  0.00  0.00    +0.000 C 
ATOM      9  C   UNL     1      19.981  -8.036  26.198  0.00  0.00    +0.000 A 
ATOM     10  C   UNL     1      18.740  -7.690  26.751  0.00  0.00    +0.000 A 
ATOM     11  C   UNL     1      18.291  -6.387  26.737  0.00  0.00    +0.000 A 
ATOM     12  O   UNL     1      17.055  -6.104  27.300  0.00  0.00    +0.000 OA
ATOM     13  C   UNL     1      19.100  -5.430  26.162  0.00  0.00    +0.000 A 
ATOM     14  C   UNL     1      20.330  -5.754  25.610  0.00  0.00    +0.000 A 
ATOM     15  C   UNL     1      20.778  -7.083  25.629  0.00  0.00    +0.000 A 
ATOM     16  C   UNL     1      23.781  -8.963  24.481  0.00  0.00    +0.000 C 
ATOM     17  C   UNL     1      24.565 -10.267  25.133  0.00  0.00    +0.000 C 
ATOM     18  C   UNL     1      23.841 -10.389  23.620  0.00  0.00    +0.000 C 
ATOM     19  C   UNL     1      25.234  -9.994  22.756  0.00  0.00    +0.000 C 
ATOM     20  C   UNL     1      25.737  -8.689  23.635  0.00  0.00    +0.000 C 
ATOM     21  O   UNL     1      26.224  -7.919  22.395  0.00  0.00    +0.000 OA
ENDROOT
TORSDOF 0
ENDMDL
MODEL 2
REMARK VINA RESULT:      -7.6     31.495     32.153
REMARK  Name = 
REMARK  0 active torsions:
REMARK  status: ('A' for Active; 'I' for Inactive)
REMARK                            x       y       z     vdW  Elec       q    Type
REMARK                         _______ _______ _______ _____ _____    ______ ____
ROOT
ATOM      1  C   UNL     1      29.417  24.632  29.532  0.00  0.00    +0.000 C 
ATOM      2  C   UNL     1      29.408  23.175  29.169  0.00  0.00    +0.000 C 
ATOM      3  C   UNL     1      28.062  22.554  29.189  0.00  0.00    +0.000 C 
ATOM      4  C   UNL     1      27.422  22.929  27.872  0.00  0.00    +0.000 C 
ATOM      5  C   UNL     1      28.370  22.922  26.715  0.00  0.00    +0.000 C 
ATOM      6  C   UNL     1      29.685  22.815  26.821  0.00  0.00    +0.000 C 
ATOM      7  C   UNL     1      30.555  22.815  25.646  0.00  0.00    +0.000 C 
ATOM      8  C   UNL     1      29.910  22.937  24.341  0.00  0.00    +0.000 C 
ATOM      9  C   UNL     1      28.463  23.052  24.281  0.00  0.00    +0.000 A 
ATOM     10  C   UNL     1      27.857  23.170  23.021  0.00  0.00    +0.000 A 
ATOM     11  C   UNL     1      26.490  23.282  22.895  0.00  0.00    +0.000 A 
ATOM     12  O   UNL     1      25.946  23.395  21.624  0.00  0.00    +0.000 OA
ATOM     13  C   UNL     1      25.731  23.275  24.047  0.00  0.00    +0.000 A 
ATOM     14  C   UNL     1      26.313  23.160  25.300  0.00  0.00    +0.000 A 
ATOM     15  C   UNL     1      27.706  23.046  25.417  0.00  0.00    +0.000 A 
ATOM     16  C   UNL     1      30.189  22.698  28.172  0.00  0.00    +0.000 C 
ATOM     17  C   UNL     1      31.619  21.869  28.251  0.00  0.00    +0.000 C 
ATOM     18  C   UNL     1      31.607  23.545  28.398  0.00  0.00    +0.000 C 
ATOM     19  C   UNL     1      31.524  23.545  30.082  0.00  0.00    +0.000 C 
ATOM     20  C   UNL     1      30.343  22.411  30.296  0.00  0.00    +0.000 C 
ATOM     21  O   UNL     1      29.708  23.155  31.484  0.00  0.00    +0.000 OA
ENDROOT
TORSDOF 0
ENDMDL
MODEL 3
REMARK VINA RESULT:      -7.6     18.652     20.388
REMARK  Name = 
REMARK  0 active torsions:
REMARK  status: ('A' for Active; 'I' for Inactive)
REMARK                            x       y       z     vdW  Elec       q    Type
REMARK                         _______ _______ _______ _____ _____    ______ ____
ROOT
ATOM      1  C   UNL     1      33.279   5.638  37.894  0.00  0.00    +0.000 C 
ATOM      2  C   UNL     1      34.576   5.187  37.286  0.00  0.00    +0.000 C 
ATOM      3  C   UNL     1      35.257   4.110  38.043  0.00  0.00    +0.000 C 
ATOM      4  C   UNL     1      34.569   2.828  37.631  0.00  0.00    +0.000 C 
ATOM      5  C   UNL     1      34.199   2.778  36.183  0.00  0.00    +0.000 C 
ATOM      6  C   UNL     1      34.252   3.811  35.358  0.00  0.00    +0.000 C 
ATOM      7  C   UNL     1      33.875   3.692  33.950  0.00  0.00    +0.000 C 
ATOM      8  C   UNL     1      33.433   2.378  33.488  0.00  0.00    +0.000 C 
ATOM      9  C   UNL     1      33.393   1.278  34.436  0.00  0.00    +0.000 A 
ATOM     10  C   UNL     1      32.966   0.022  33.980  0.00  0.00    +0.000 A 
ATOM     11  C   UNL     1      32.905  -1.062  34.827  0.00  0.00    +0.000 A 
ATOM     12  O   UNL     1      32.476  -2.280  34.320  0.00  0.00    +0.000 OA
ATOM     13  C   UNL     1      33.277  -0.877  36.143  0.00  0.00    +0.000 A 
ATOM     14  C   UNL     1      33.700   0.357  36.611  0.00  0.00    +0.000 A 
ATOM     15  C   UNL     1      33.759   1.455  35.740  0.00  0.00    +0.000 A 
ATOM     16  C   UNL     1      34.709   5.050  35.947  0.00  0.00    +0.000 C 
ATOM     17  C   UNL     1      35.441   6.049  34.847  0.00  0.00    +0.000 C 
ATOM     18  C   UNL     1      33.875   6.374  35.371  0.00  0.00    +0.000 C 
ATOM     19  C   UNL     1      34.348   7.411  36.614  0.00  0.00    +0.000 C 
ATOM     20  C   UNL     1      35.565   6.509  37.272  0.00  0.00    +0.000 C 
ATOM     21  O   UNL     1      35.220   6.917  38.715  0.00  0.00    +0.000 OA
ENDROOT
TORSDOF 0
ENDMDL
MODEL 4
REMARK VINA RESULT:      -7.6     31.655     32.291
REMARK  Name = 
REMARK  0 active torsions:
REMARK  status: ('A' for Active; 'I' for Inactive)
REMARK                            x       y       z     vdW  Elec       q    Type
REMARK                         _______ _______ _______ _____ _____    ______ ____
ROOT
ATOM      1  C   UNL     1      29.507  25.233  23.715  0.00  0.00    +0.000 C 
ATOM      2  C   UNL     1      29.030  23.813  23.807  0.00  0.00    +0.000 C 
ATOM      3  C   UNL     1      30.110  22.827  24.049  0.00  0.00    +0.000 C 
ATOM      4  C   UNL     1      30.380  22.876  25.536  0.00  0.00    +0.000 C 
ATOM      5  C   UNL     1      29.150  23.046  26.369  0.00  0.00    +0.000 C 
ATOM      6  C   UNL     1      27.952  23.342  25.889  0.00  0.00    +0.000 C 
ATOM      7  C   UNL     1      26.788  23.494  26.762  0.00  0.00    +0.000 C 
ATOM      8  C   UNL     1      27.003  23.303  28.195  0.00  0.00    +0.000 C 
ATOM      9  C   UNL     1      28.338  22.979  28.669  0.00  0.00    +0.000 A 
ATOM     10  C   UNL     1      28.529  22.799  30.046  0.00  0.00    +0.000 A 
ATOM     11  C   UNL     1      29.770  22.491  30.560  0.00  0.00    +0.000 A 
ATOM     12  O   UNL     1      29.899  22.324  31.931  0.00  0.00    +0.000 OA
ATOM     13  C   UNL     1      30.822  22.363  29.677  0.00  0.00    +0.000 A 
ATOM     14  C   UNL     1      30.651  22.538  28.313  0.00  0.00    +0.000 A 
ATOM     15  C   UNL     1      29.384  22.852  27.800  0.00  0.00    +0.000 A 
ATOM     16  C   UNL     1      27.883  23.501  24.454  0.00  0.00    +0.000 C 
ATOM     17  C   UNL     1      26.387  23.142  23.842  0.00  0.00    +0.000 C 
ATOM     18  C   UNL     1      26.872  24.746  23.999  0.00  0.00    +0.000 C 
ATOM     19  C   UNL     1      27.473  24.872  22.428  0.00  0.00    +0.000 C 
ATOM     20  C   UNL     1      28.332  23.463  22.353  0.00  0.00    +0.000 C 
ATOM     21  O   UNL     1      29.473  24.090  21.532  0.00  0.00    +0.000 OA
ENDROOT
TORSDOF 0
ENDMDL
MODEL 5
REMARK VINA RESULT:      -7.6     16.768     18.197
REMARK  Name = 
REMARK  0 active torsions:
REMARK  status: ('A' for Active; 'I' for Inactive)
REMARK                            x       y       z     vdW  Elec       q    Type
REMARK                         _______ _______ _______ _____ _____    ______ ____
ROOT
ATOM      1  C   UNL     1      32.003  -2.107  34.959  0.00  0.00    +0.000 C 
ATOM      2  C   UNL     1      33.464  -1.815  34.773  0.00  0.00    +0.000 C 
ATOM      3  C   UNL     1      33.804  -1.251  33.445  0.00  0.00    +0.000 C 
ATOM      4  C   UNL     1      33.478   0.223  33.534  0.00  0.00    +0.000 C 
ATOM      5  C   UNL     1      33.812   0.838  34.856  0.00  0.00    +0.000 C 
ATOM      6  C   UNL     1      34.158   0.156  35.936  0.00  0.00    +0.000 C 
ATOM      7  C   UNL     1      34.473   0.821  37.200  0.00  0.00    +0.000 C 
ATOM      8  C   UNL     1      34.389   2.280  37.222  0.00  0.00    +0.000 C 
ATOM      9  C   UNL     1      34.004   2.980  36.008  0.00  0.00    +0.000 A 
ATOM     10  C   UNL     1      33.928   4.379  36.043  0.00  0.00    +0.000 A 
ATOM     11  C   UNL     1      33.569   5.103  34.927  0.00  0.00    +0.000 A 
ATOM     12  O   UNL     1      33.510   6.486  35.021  0.00  0.00    +0.000 OA
ATOM     13  C   UNL     1      33.286   4.408  33.770  0.00  0.00    +0.000 A 
ATOM     14  C   UNL     1      33.356   3.025  33.716  0.00  0.00    +0.000 A 
ATOM     15  C   UNL     1      33.723   2.298  34.859  0.00  0.00    +0.000 A 
ATOM     16  C   UNL     1      34.202  -1.280  35.773  0.00  0.00    +0.000 C 
ATOM     17  C   UNL     1      35.277  -2.008  36.801  0.00  0.00    +0.000 C 
ATOM     18  C   UNL     1      33.626  -2.092  37.111  0.00  0.00    +0.000 C 
ATOM     19  C   UNL     1      33.401  -3.564  36.318  0.00  0.00    +0.000 C 
ATOM     20  C   UNL     1      34.249  -3.258  34.934  0.00  0.00    +0.000 C 
ATOM     21  O   UNL     1      33.255  -4.022  34.041  0.00  0.00    +0.000 OA
ENDROOT
TORSDOF 0
ENDMDL
MODEL 6
REMARK VINA RESULT:      -6.9     14.125     15.926
REMARK  Name = 
REMARK  0 active torsions:
REMARK  status: ('A' for Active; 'I' for Inactive)
REMARK                            x       y       z     vdW  Elec       q    Type
REMARK                         _______ _______ _______ _____ _____    ______ ____
ROOT
ATOM      1  C   UNL     1      28.567   4.923  14.942  0.00  0.00    +0.000 C 
ATOM      2  C   UNL     1      27.584   5.947  15.433  0.00  0.00    +0.000 C 
ATOM      3  C   UNL     1      26.433   6.166  14.525  0.00  0.00    +0.000 C 
ATOM      4  C   UNL     1      25.468   5.039  14.816  0.00  0.00    +0.000 C 
ATOM      5  C   UNL     1      25.382   4.675  16.264  0.00  0.00    +0.000 C 
ATOM      6  C   UNL     1      26.205   5.118  17.201  0.00  0.00    +0.000 C 
ATOM      7  C   UNL     1      26.064   4.722  18.602  0.00  0.00    +0.000 C 
ATOM      8  C   UNL     1      24.969   3.810  18.927  0.00  0.00    +0.000 C 
ATOM      9  C   UNL     1      24.095   3.353  17.861  0.00  0.00    +0.000 A 
ATOM     10  C   UNL     1      23.049   2.478  18.188  0.00  0.00    +0.000 A 
ATOM     11  C   UNL     1      22.184   2.007  17.223  0.00  0.00    +0.000 A 
ATOM     12  O   UNL     1      21.168   1.145  17.605  0.00  0.00    +0.000 OA
ATOM     13  C   UNL     1      22.377   2.425  15.923  0.00  0.00    +0.000 A 
ATOM     14  C   UNL     1      23.406   3.289  15.581  0.00  0.00    +0.000 A 
ATOM     15  C   UNL     1      24.281   3.762  16.571  0.00  0.00    +0.000 A 
ATOM     16  C   UNL     1      27.241   6.016  16.739  0.00  0.00    +0.000 C 
ATOM     17  C   UNL     1      27.740   7.072  17.912  0.00  0.00    +0.000 C 
ATOM     18  C   UNL     1      28.699   5.751  17.503  0.00  0.00    +0.000 C 
ATOM     19  C   UNL     1      29.625   6.587  16.368  0.00  0.00    +0.000 C 
ATOM     20  C   UNL     1      28.418   7.367  15.555  0.00  0.00    +0.000 C 
ATOM     21  O   UNL     1      29.104   7.207  14.187  0.00  0.00    +0.000 OA
ENDROOT
TORSDOF 0
ENDMDL
MODEL 7
REMARK VINA RESULT:      -6.8     21.185     22.920
REMARK  Name = 
REMARK  0 active torsions:
REMARK  status: ('A' for Active; 'I' for Inactive)
REMARK                            x       y       z     vdW  Elec       q    Type
REMARK                         _______ _______ _______ _____ _____    ______ ____
ROOT
ATOM      1  C   UNL     1      24.353   9.143  38.777  0.00  0.00    +0.000 C 
ATOM      2  C   UNL     1      24.205  10.200  37.721  0.00  0.00    +0.000 C 
ATOM      3  C   UNL     1      23.790   9.679  36.398  0.00  0.00    +0.000 C 
ATOM      4  C   UNL     1      22.291   9.498  36.485  0.00  0.00    +0.000 C 
ATOM      5  C   UNL     1      21.596  10.573  37.258  0.00  0.00    +0.000 C 
ATOM      6  C   UNL     1      22.209  11.489  37.990  0.00  0.00    +0.000 C 
ATOM      7  C   UNL     1      21.467  12.515  38.722  0.00  0.00    +0.000 C 
ATOM      8  C   UNL     1      20.010  12.486  38.612  0.00  0.00    +0.000 C 
ATOM      9  C   UNL     1      19.387  11.458  37.796  0.00  0.00    +0.000 A 
ATOM     10  C   UNL     1      17.988  11.442  37.700  0.00  0.00    +0.000 A 
ATOM     11  C   UNL     1      17.335  10.494  36.943  0.00  0.00    +0.000 A 
ATOM     12  O   UNL     1      15.950  10.528  36.885  0.00  0.00    +0.000 OA
ATOM     13  C   UNL     1      18.100   9.558  36.279  0.00  0.00    +0.000 A 
ATOM     14  C   UNL     1      19.484   9.558  36.363  0.00  0.00    +0.000 A 
ATOM     15  C   UNL     1      20.139  10.528  37.137  0.00  0.00    +0.000 A 
ATOM     16  C   UNL     1      23.653  11.401  38.007  0.00  0.00    +0.000 C 
ATOM     17  C   UNL     1      24.379  12.867  38.267  0.00  0.00    +0.000 C 
ATOM     18  C   UNL     1      24.292  11.736  39.510  0.00  0.00    +0.000 C 
ATOM     19  C   UNL     1      25.802  11.054  39.195  0.00  0.00    +0.000 C 
ATOM     20  C   UNL     1      25.692  10.899  37.554  0.00  0.00    +0.000 C 
ATOM     21  O   UNL     1      26.441   9.554  37.534  0.00  0.00    +0.000 OA
ENDROOT
TORSDOF 0
ENDMDL
MODEL 8
REMARK VINA RESULT:      -6.4     31.208     32.879
REMARK  Name = 
REMARK  0 active torsions:
REMARK  status: ('A' for Active; 'I' for Inactive)
REMARK                            x       y       z     vdW  Elec       q    Type
REMARK                         _______ _______ _______ _____ _____    ______ ____
ROOT
ATOM      1  C   UNL     1      32.469  26.093  27.208  0.00  0.00    +0.000 C 
ATOM      2  C   UNL     1      32.625  24.621  26.959  0.00  0.00    +0.000 C 
ATOM      3  C   UNL     1      33.018  23.843  28.158  0.00  0.00    +0.000 C 
ATOM      4  C   UNL     1      31.740  23.618  28.933  0.00  0.00    +0.000 C 
ATOM      5  C   UNL     1      30.547  23.352  28.071  0.00  0.00    +0.000 C 
ATOM      6  C   UNL     1      30.523  23.500  26.756  0.00  0.00    +0.000 C 
ATOM      7  C   UNL     1      29.320  23.221  25.971  0.00  0.00    +0.000 C 
ATOM      8  C   UNL     1      28.139  22.767  26.703  0.00  0.00    +0.000 C 
ATOM      9  C   UNL     1      28.221  22.622  28.146  0.00  0.00    +0.000 A 
ATOM     10  C   UNL     1      27.080  22.186  28.836  0.00  0.00    +0.000 A 
ATOM     11  C   UNL     1      27.090  22.028  30.204  0.00  0.00    +0.000 A 
ATOM     12  O   UNL     1      25.932  21.594  30.832  0.00  0.00    +0.000 OA
ATOM     13  C   UNL     1      28.260  22.309  30.879  0.00  0.00    +0.000 A 
ATOM     14  C   UNL     1      29.397  22.741  30.214  0.00  0.00    +0.000 A 
ATOM     15  C   UNL     1      29.375  22.899  28.820  0.00  0.00    +0.000 A 
ATOM     16  C   UNL     1      31.761  23.952  26.161  0.00  0.00    +0.000 C 
ATOM     17  C   UNL     1      31.941  23.444  24.596  0.00  0.00    +0.000 C 
ATOM     18  C   UNL     1      31.512  25.039  24.921  0.00  0.00    +0.000 C 
ATOM     19  C   UNL     1      33.094  25.623  24.904  0.00  0.00    +0.000 C 
ATOM     20  C   UNL     1      33.821  24.466  25.832  0.00  0.00    +0.000 C 
ATOM     21  O   UNL     1      34.755  25.473  26.527  0.00  0.00    +0.000 OA
ENDROOT
TORSDOF 0
ENDMDL
MODEL 9
REMARK VINA RESULT:      -6.3     31.350     33.411
REMARK  Name = 
REMARK  0 active torsions:
REMARK  status: ('A' for Active; 'I' for Inactive)
REMARK                            x       y       z     vdW  Elec       q    Type
REMARK                         _______ _______ _______ _____ _____    ______ ____
ROOT
ATOM      1  C   UNL     1      27.881  24.857  24.963  0.00  0.00    +0.000 C 
ATOM      2  C   UNL     1      28.424  23.479  25.207  0.00  0.00    +0.000 C 
ATOM      3  C   UNL     1      29.215  22.931  24.080  0.00  0.00    +0.000 C 
ATOM      4  C   UNL     1      30.591  23.543  24.214  0.00  0.00    +0.000 C 
ATOM      5  C   UNL     1      31.060  23.673  25.629  0.00  0.00    +0.000 C 
ATOM      6  C   UNL     1      30.297  23.484  26.694  0.00  0.00    +0.000 C 
ATOM      7  C   UNL     1      30.821  23.627  28.052  0.00  0.00    +0.000 C 
ATOM      8  C   UNL     1      32.230  23.988  28.186  0.00  0.00    +0.000 C 
ATOM      9  C   UNL     1      33.023  24.184  26.985  0.00  0.00    +0.000 A 
ATOM     10  C   UNL     1      34.374  24.531  27.129  0.00  0.00    +0.000 A 
ATOM     11  C   UNL     1      35.180  24.731  26.030  0.00  0.00    +0.000 A 
ATOM     12  O   UNL     1      36.509  25.072  26.233  0.00  0.00    +0.000 OA
ATOM     13  C   UNL     1      34.619  24.578  24.779  0.00  0.00    +0.000 A 
ATOM     14  C   UNL     1      33.285  24.236  24.618  0.00  0.00    +0.000 A 
ATOM     15  C   UNL     1      32.473  24.035  25.744  0.00  0.00    +0.000 A 
ATOM     16  C   UNL     1      28.923  23.129  26.415  0.00  0.00    +0.000 C 
ATOM     17  C   UNL     1      28.239  22.226  27.623  0.00  0.00    +0.000 C 
ATOM     18  C   UNL     1      27.852  23.856  27.465  0.00  0.00    +0.000 C 
ATOM     19  C   UNL     1      26.489  23.592  26.507  0.00  0.00    +0.000 C 
ATOM     20  C   UNL     1      27.116  22.499  25.439  0.00  0.00    +0.000 C 
ATOM     21  O   UNL     1      26.337  23.075  24.243  0.00  0.00    +0.000 OA
ENDROOT
TORSDOF 0
ENDMDL
MODEL 10
REMARK VINA RESULT:      -6.2     15.186     16.683
REMARK  Name = 
REMARK  0 active torsions:
REMARK  status: ('A' for Active; 'I' for Inactive)
REMARK                            x       y       z     vdW  Elec       q    Type
REMARK                         _______ _______ _______ _____ _____    ______ ____
ROOT
ATOM      1  C   UNL     1      31.815  -5.059  34.413  0.00  0.00    +0.000 C 
ATOM      2  C   UNL     1      33.250  -4.788  34.765  0.00  0.00    +0.000 C 
ATOM      3  C   UNL     1      34.115  -4.503  33.595  0.00  0.00    +0.000 C 
ATOM      4  C   UNL     1      33.879  -3.047  33.262  0.00  0.00    +0.000 C 
ATOM      5  C   UNL     1      33.714  -2.170  34.462  0.00  0.00    +0.000 C 
ATOM      6  C   UNL     1      33.568  -2.612  35.701  0.00  0.00    +0.000 C 
ATOM      7  C   UNL     1      33.412  -1.697  36.832  0.00  0.00    +0.000 C 
ATOM      8  C   UNL     1      33.424  -0.266  36.536  0.00  0.00    +0.000 C 
ATOM      9  C   UNL     1      33.588   0.165  35.158  0.00  0.00    +0.000 A 
ATOM     10  C   UNL     1      33.597   1.541  34.889  0.00  0.00    +0.000 A 
ATOM     11  C   UNL     1      33.748   2.016  33.605  0.00  0.00    +0.000 A 
ATOM     12  O   UNL     1      33.750   3.387  33.398  0.00  0.00    +0.000 OA
ATOM     13  C   UNL     1      33.891   1.095  32.588  0.00  0.00    +0.000 A 
ATOM     14  C   UNL     1      33.883  -0.269  32.835  0.00  0.00    +0.000 A 
ATOM     15  C   UNL     1      33.729  -0.742  34.147  0.00  0.00    +0.000 A 
ATOM     16  C   UNL     1      33.577  -4.050  35.850  0.00  0.00    +0.000 C 
ATOM     17  C   UNL     1      34.118  -4.536  37.337  0.00  0.00    +0.000 C 
ATOM     18  C   UNL     1      32.473  -4.580  36.982  0.00  0.00    +0.000 C 
ATOM     19  C   UNL     1      32.476  -6.186  36.467  0.00  0.00    +0.000 C 
ATOM     20  C   UNL     1      33.813  -6.157  35.497  0.00  0.00    +0.000 C 
ATOM     21  O   UNL     1      33.195  -7.101  34.452  0.00  0.00    +0.000 OA
ENDROOT
TORSDOF 0
ENDMDL
