MODEL 1
REMARK VINA RESULT:      -8.4      0.000      0.000
REMARK  Name = 
REMARK  6 active torsions:
REMARK  status: ('A' for Active; 'I' for Inactive)
REMARK    1  A    between atoms: C_2  and  C_3
REMARK    2  A    between atoms: C_6  and  O_7
REMARK    3  A    between atoms: C_9  and  C_10
REMARK    4  A    between atoms: C_20  and  O_21
REMARK    5  A    between atoms: O_21  and  C_22
REMARK    6  A    between atoms: C_22  and  C_23
REMARK                            x       y       z     vdW  Elec       q    Type
REMARK                         _______ _______ _______ _____ _____    ______ ____
ROOT
ATOM      1  C   UNL     1      38.558  -2.650  15.007  0.00  0.00    +0.000 C 
ATOM      2  N   UNL     1      38.166  -2.421  13.485  0.00  0.00    +0.000 NA
ATOM      3  C   UNL     1      39.287  -1.588  13.031  0.00  0.00    +0.000 C 
ATOM      4  C   UNL     1      39.510  -0.430  13.991  0.00  0.00    +0.000 C 
ATOM      5  C   UNL     1      38.378  -0.275  14.946  0.00  0.00    +0.000 A 
ATOM      6  C   UNL     1      37.791  -1.350  15.548  0.00  0.00    +0.000 A 
ATOM      7  N   UNL     1      36.842  -1.026  16.331  0.00  0.00    +0.000 NA
ATOM      8  C   UNL     1      36.700   0.308  16.328  0.00  0.00    +0.000 A 
ATOM      9  C   UNL     1      35.883   1.225  16.938  0.00  0.00    +0.000 A 
ATOM     10  C   UNL     1      36.008   2.594  16.701  0.00  0.00    +0.000 A 
ATOM     11  C   UNL     1      36.956   3.089  15.843  0.00  0.00    +0.000 A 
ATOM     12  C   UNL     1      37.790   2.154  15.219  0.00  0.00    +0.000 A 
ATOM     13  C   UNL     1      37.652   0.805  15.466  0.00  0.00    +0.000 A 
ENDROOT
BRANCH   1  18
ATOM     14  C   UNL     1      35.337  -4.724  14.911  0.00  0.00    +0.000 A 
ATOM     15  C   UNL     1      35.536  -5.567  15.977  0.00  0.00    +0.000 A 
ATOM     16  C   UNL     1      36.679  -5.492  16.739  0.00  0.00    +0.000 A 
ATOM     17  C   UNL     1      37.674  -4.545  16.437  0.00  0.00    +0.000 A 
ATOM     18  C   UNL     1      37.474  -3.713  15.380  0.00  0.00    +0.000 A 
ATOM     19  C   UNL     1      36.354  -3.795  14.644  0.00  0.00    +0.000 A 
BRANCH  14  21
ATOM     20  C   UNL     1      32.910  -4.459  14.983  0.00  0.00    +0.000 C 
ATOM     21  C   UNL     1      34.097  -4.824  14.108  0.00  0.00    +0.000 C 
ENDBRANCH  14  21
BRANCH  17  22
ATOM     22  O   UNL     1      38.823  -4.485  17.218  0.00  0.00    +0.000 OA
ATOM     23  C   UNL     1      38.817  -3.921  18.504  0.00  0.00    +0.000 C 
ENDBRANCH  17  22
ENDBRANCH   1  18
BRANCH  11  24
ATOM     24  O   UNL     1      37.122   4.439  15.571  0.00  0.00    +0.000 OA
BRANCH  24  25
ATOM     25  C   UNL     1      38.354   4.967  15.161  0.00  0.00    +0.000 C 
BRANCH  25  26
ATOM     26  C   UNL     1      39.116   5.394  16.356  0.00  0.00    +0.000 A 
ATOM     27  C   UNL     1      38.528   5.224  17.603  0.00  0.00    +0.000 A 
ATOM     28  C   UNL     1      39.163   5.584  18.786  0.00  0.00    +0.000 A 
ATOM     29  C   UNL     1      40.420   6.128  18.721  0.00  0.00    +0.000 A 
ATOM     30  C   UNL     1      41.035   6.310  17.480  0.00  0.00    +0.000 A 
ATOM     31  C   UNL     1      40.375   5.942  16.331  0.00  0.00    +0.000 A 
ENDBRANCH  25  26
ENDBRANCH  24  25
ENDBRANCH  11  24
TORSDOF 6
ENDMDL
MODEL 2
REMARK VINA RESULT:      -8.3      1.547      3.525
REMARK  Name = 
REMARK  6 active torsions:
REMARK  status: ('A' for Active; 'I' for Inactive)
REMARK    1  A    between atoms: C_2  and  C_3
REMARK    2  A    between atoms: C_6  and  O_7
REMARK    3  A    between atoms: C_9  and  C_10
REMARK    4  A    between atoms: C_20  and  O_21
REMARK    5  A    between atoms: O_21  and  C_22
REMARK    6  A    between atoms: C_22  and  C_23
REMARK                            x       y       z     vdW  Elec       q    Type
REMARK                         _______ _______ _______ _____ _____    ______ ____
ROOT
ATOM      1  C   UNL     1      35.418  -1.353  16.183  0.00  0.00    +0.000 C 
ATOM      2  N   UNL     1      35.598  -0.813  17.664  0.00  0.00    +0.000 NA
ATOM      3  C   UNL     1      34.810   0.425  17.608  0.00  0.00    +0.000 C 
ATOM      4  C   UNL     1      35.203   1.250  16.393  0.00  0.00    +0.000 C 
ATOM      5  C   UNL     1      36.458   0.749  15.766  0.00  0.00    +0.000 A 
ATOM      6  C   UNL     1      36.696  -0.584  15.594  0.00  0.00    +0.000 A 
ATOM      7  N   UNL     1      37.817  -0.823  15.042  0.00  0.00    +0.000 NA
ATOM      8  C   UNL     1      38.443   0.337  14.790  0.00  0.00    +0.000 A 
ATOM      9  C   UNL     1      39.635   0.724  14.235  0.00  0.00    +0.000 A 
ATOM     10  C   UNL     1      39.992   2.068  14.123  0.00  0.00    +0.000 A 
ATOM     11  C   UNL     1      39.165   3.068  14.566  0.00  0.00    +0.000 A 
ATOM     12  C   UNL     1      37.948   2.673  15.133  0.00  0.00    +0.000 A 
ATOM     13  C   UNL     1      37.612   1.340  15.235  0.00  0.00    +0.000 A 
ENDROOT
BRANCH   1  18
ATOM     14  C   UNL     1      37.709  -4.148  17.457  0.00  0.00    +0.000 A 
ATOM     15  C   UNL     1      37.261  -5.214  16.715  0.00  0.00    +0.000 A 
ATOM     16  C   UNL     1      36.238  -5.067  15.806  0.00  0.00    +0.000 A 
ATOM     17  C   UNL     1      35.627  -3.815  15.619  0.00  0.00    +0.000 A 
ATOM     18  C   UNL     1      36.073  -2.761  16.356  0.00  0.00    +0.000 A 
ATOM     19  C   UNL     1      37.073  -2.917  17.240  0.00  0.00    +0.000 A 
BRANCH  14  21
ATOM     20  C   UNL     1      38.629  -3.359  19.578  0.00  0.00    +0.000 C 
ATOM     21  C   UNL     1      38.813  -4.332  18.426  0.00  0.00    +0.000 C 
ENDBRANCH  14  21
BRANCH  17  22
ATOM     22  O   UNL     1      34.595  -3.686  14.696  0.00  0.00    +0.000 OA
ATOM     23  C   UNL     1      33.419  -4.447  14.787  0.00  0.00    +0.000 C 
ENDBRANCH  17  22
ENDBRANCH   1  18
BRANCH  11  24
ATOM     24  O   UNL     1      39.471   4.418  14.479  0.00  0.00    +0.000 OA
BRANCH  24  25
ATOM     25  C   UNL     1      38.737   5.391  15.174  0.00  0.00    +0.000 C 
BRANCH  25  26
ATOM     26  C   UNL     1      39.410   5.672  16.462  0.00  0.00    +0.000 A 
ATOM     27  C   UNL     1      38.710   5.420  17.635  0.00  0.00    +0.000 A 
ATOM     28  C   UNL     1      39.254   5.642  18.895  0.00  0.00    +0.000 A 
ATOM     29  C   UNL     1      40.532   6.128  18.985  0.00  0.00    +0.000 A 
ATOM     30  C   UNL     1      41.259   6.391  17.821  0.00  0.00    +0.000 A 
ATOM     31  C   UNL     1      40.687   6.158  16.592  0.00  0.00    +0.000 A 
ENDBRANCH  25  26
ENDBRANCH  24  25
ENDBRANCH  11  24
TORSDOF 6
ENDMDL
MODEL 3
REMARK VINA RESULT:      -8.2     22.934     26.100
REMARK  Name = 
REMARK  6 active torsions:
REMARK  status: ('A' for Active; 'I' for Inactive)
REMARK    1  A    between atoms: C_2  and  C_3
REMARK    2  A    between atoms: C_6  and  O_7
REMARK    3  A    between atoms: C_9  and  C_10
REMARK    4  A    between atoms: C_20  and  O_21
REMARK    5  A    between atoms: O_21  and  C_22
REMARK    6  A    between atoms: C_22  and  C_23
REMARK                            x       y       z     vdW  Elec       q    Type
REMARK                         _______ _______ _______ _____ _____    ______ ____
ROOT
ATOM      1  C   UNL     1      11.797  -0.617  27.733  0.00  0.00    +0.000 C 
ATOM      2  N   UNL     1      11.503  -0.166  26.239  0.00  0.00    +0.000 NA
ATOM      3  C   UNL     1      11.791  -1.409  25.511  0.00  0.00    +0.000 C 
ATOM      4  C   UNL     1      13.138  -1.973  25.936  0.00  0.00    +0.000 C 
ATOM      5  C   UNL     1      13.925  -0.989  26.730  0.00  0.00    +0.000 A 
ATOM      6  C   UNL     1      13.350  -0.220  27.699  0.00  0.00    +0.000 A 
ATOM      7  N   UNL     1      14.176   0.561  28.272  0.00  0.00    +0.000 NA
ATOM      8  C   UNL     1      15.394   0.388  27.735  0.00  0.00    +0.000 A 
ATOM      9  C   UNL     1      16.645   0.917  27.916  0.00  0.00    +0.000 A 
ATOM     10  C   UNL     1      17.737   0.497  27.156  0.00  0.00    +0.000 A 
ATOM     11  C   UNL     1      17.610  -0.466  26.189  0.00  0.00    +0.000 A 
ATOM     12  C   UNL     1      16.332  -1.006  26.003  0.00  0.00    +0.000 A 
ATOM     13  C   UNL     1      15.265  -0.580  26.764  0.00  0.00    +0.000 A 
ENDROOT
BRANCH   1  18
ATOM     14  C   UNL     1      10.546   2.948  28.374  0.00  0.00    +0.000 A 
ATOM     15  C   UNL     1      10.319   2.907  29.728  0.00  0.00    +0.000 A 
ATOM     16  C   UNL     1      10.558   1.764  30.455  0.00  0.00    +0.000 A 
ATOM     17  C   UNL     1      11.042   0.605  29.820  0.00  0.00    +0.000 A 
ATOM     18  C   UNL     1      11.265   0.649  28.478  0.00  0.00    +0.000 A 
ATOM     19  C   UNL     1      11.028   1.772  27.780  0.00  0.00    +0.000 A 
BRANCH  14  21
ATOM     20  C   UNL     1      11.292   4.307  26.486  0.00  0.00    +0.000 C 
ATOM     21  C   UNL     1      10.283   4.192  27.615  0.00  0.00    +0.000 C 
ENDBRANCH  14  21
BRANCH  17  22
ATOM     22  O   UNL     1      11.277  -0.541  30.571  0.00  0.00    +0.000 OA
ATOM     23  C   UNL     1      12.319  -0.613  31.509  0.00  0.00    +0.000 C 
ENDBRANCH  17  22
ENDBRANCH   1  18
BRANCH  11  24
ATOM     24  O   UNL     1      18.662  -0.918  25.406  0.00  0.00    +0.000 OA
BRANCH  24  25
ATOM     25  C   UNL     1      19.739  -0.089  25.061  0.00  0.00    +0.000 C 
BRANCH  25  26
ATOM     26  C   UNL     1      20.194  -0.436  23.696  0.00  0.00    +0.000 A 
ATOM     27  C   UNL     1      19.945  -1.720  23.228  0.00  0.00    +0.000 A 
ATOM     28  C   UNL     1      20.323  -2.142  21.959  0.00  0.00    +0.000 A 
ATOM     29  C   UNL     1      20.968  -1.256  21.135  0.00  0.00    +0.000 A 
ATOM     30  C   UNL     1      21.232   0.041  21.579  0.00  0.00    +0.000 A 
ATOM     31  C   UNL     1      20.842   0.422  22.842  0.00  0.00    +0.000 A 
ENDBRANCH  25  26
ENDBRANCH  24  25
ENDBRANCH  11  24
TORSDOF 6
ENDMDL
MODEL 4
REMARK VINA RESULT:      -7.7      2.712      9.347
REMARK  Name = 
REMARK  6 active torsions:
REMARK  status: ('A' for Active; 'I' for Inactive)
REMARK    1  A    between atoms: C_2  and  C_3
REMARK    2  A    between atoms: C_6  and  O_7
REMARK    3  A    between atoms: C_9  and  C_10
REMARK    4  A    between atoms: C_20  and  O_21
REMARK    5  A    between atoms: O_21  and  C_22
REMARK    6  A    between atoms: C_22  and  C_23
REMARK                            x       y       z     vdW  Elec       q    Type
REMARK                         _______ _______ _______ _____ _____    ______ ____
ROOT
ATOM      1  C   UNL     1      39.184   6.470  16.109  0.00  0.00    +0.000 C 
ATOM      2  N   UNL     1      40.589   5.748  15.955  0.00  0.00    +0.000 NA
ATOM      3  C   UNL     1      40.657   5.575  14.499  0.00  0.00    +0.000 C 
ATOM      4  C   UNL     1      39.368   4.956  13.978  0.00  0.00    +0.000 C 
ATOM      5  C   UNL     1      38.523   4.424  15.083  0.00  0.00    +0.000 A 
ATOM      6  C   UNL     1      38.341   5.113  16.246  0.00  0.00    +0.000 A 
ATOM      7  N   UNL     1      37.588   4.506  17.073  0.00  0.00    +0.000 NA
ATOM      8  C   UNL     1      37.192   3.340  16.538  0.00  0.00    +0.000 A 
ATOM      9  C   UNL     1      36.407   2.284  16.922  0.00  0.00    +0.000 A 
ATOM     10  C   UNL     1      36.196   1.184  16.090  0.00  0.00    +0.000 A 
ATOM     11  C   UNL     1      36.767   1.107  14.846  0.00  0.00    +0.000 A 
ATOM     12  C   UNL     1      37.568   2.185  14.453  0.00  0.00    +0.000 A 
ATOM     13  C   UNL     1      37.765   3.264  15.288  0.00  0.00    +0.000 A 
ENDROOT
BRANCH   1  18
ATOM     14  C   UNL     1      40.376   6.580  19.748  0.00  0.00    +0.000 A 
ATOM     15  C   UNL     1      39.458   7.440  20.300  0.00  0.00    +0.000 A 
ATOM     16  C   UNL     1      38.454   7.992  19.538  0.00  0.00    +0.000 A 
ATOM     17  C   UNL     1      38.349   7.685  18.169  0.00  0.00    +0.000 A 
ATOM     18  C   UNL     1      39.261   6.833  17.627  0.00  0.00    +0.000 A 
ATOM     19  C   UNL     1      40.236   6.301  18.381  0.00  0.00    +0.000 A 
BRANCH  14  21
ATOM     20  C   UNL     1      42.789   6.538  20.131  0.00  0.00    +0.000 C 
ATOM     21  C   UNL     1      41.446   5.998  20.591  0.00  0.00    +0.000 C 
ENDBRANCH  14  21
BRANCH  17  22
ATOM     22  O   UNL     1      37.328   8.252  17.415  0.00  0.00    +0.000 OA
ATOM     23  C   UNL     1      36.542   9.307  17.905  0.00  0.00    +0.000 C 
ENDBRANCH  17  22
ENDBRANCH   1  18
BRANCH  11  24
ATOM     24  O   UNL     1      36.590   0.038  13.980  0.00  0.00    +0.000 OA
BRANCH  24  25
ATOM     25  C   UNL     1      37.665  -0.750  13.546  0.00  0.00    +0.000 C 
BRANCH  25  26
ATOM     26  C   UNL     1      37.916  -1.814  14.543  0.00  0.00    +0.000 A 
ATOM     27  C   UNL     1      39.087  -1.753  15.288  0.00  0.00    +0.000 A 
ATOM     28  C   UNL     1      39.411  -2.698  16.254  0.00  0.00    +0.000 A 
ATOM     29  C   UNL     1      38.541  -3.732  16.483  0.00  0.00    +0.000 A 
ATOM     30  C   UNL     1      37.356  -3.820  15.748  0.00  0.00    +0.000 A 
ATOM     31  C   UNL     1      37.070  -2.865  14.800  0.00  0.00    +0.000 A 
ENDBRANCH  25  26
ENDBRANCH  24  25
ENDBRANCH  11  24
TORSDOF 6
ENDMDL
MODEL 5
REMARK VINA RESULT:      -7.7      3.253     10.042
REMARK  Name = 
REMARK  6 active torsions:
REMARK  status: ('A' for Active; 'I' for Inactive)
REMARK    1  A    between atoms: C_2  and  C_3
REMARK    2  A    between atoms: C_6  and  O_7
REMARK    3  A    between atoms: C_9  and  C_10
REMARK    4  A    between atoms: C_20  and  O_21
REMARK    5  A    between atoms: O_21  and  C_22
REMARK    6  A    between atoms: C_22  and  C_23
REMARK                            x       y       z     vdW  Elec       q    Type
REMARK                         _______ _______ _______ _____ _____    ______ ____
ROOT
ATOM      1  C   UNL     1      38.183  -2.050  16.010  0.00  0.00    +0.000 C 
ATOM      2  N   UNL     1      37.734  -1.947  17.529  0.00  0.00    +0.000 NA
ATOM      3  C   UNL     1      38.426  -3.109  18.103  0.00  0.00    +0.000 C 
ATOM      4  C   UNL     1      38.163  -4.350  17.264  0.00  0.00    +0.000 C 
ATOM      5  C   UNL     1      37.063  -4.134  16.284  0.00  0.00    +0.000 A 
ATOM      6  C   UNL     1      36.957  -2.982  15.562  0.00  0.00    +0.000 A 
ATOM      7  N   UNL     1      35.957  -2.976  14.775  0.00  0.00    +0.000 NA
ATOM      8  C   UNL     1      35.291  -4.134  14.898  0.00  0.00    +0.000 A 
ATOM      9  C   UNL     1      34.173  -4.703  14.344  0.00  0.00    +0.000 A 
ATOM     10  C   UNL     1      33.737  -5.976  14.712  0.00  0.00    +0.000 A 
ATOM     11  C   UNL     1      34.407  -6.720  15.649  0.00  0.00    +0.000 A 
ATOM     12  C   UNL     1      35.547  -6.139  16.216  0.00  0.00    +0.000 A 
ATOM     13  C   UNL     1      35.963  -4.881  15.839  0.00  0.00    +0.000 A 
ENDROOT
BRANCH   1  18
ATOM     14  C   UNL     1      36.075   1.143  15.791  0.00  0.00    +0.000 A 
ATOM     15  C   UNL     1      36.588   1.719  14.654  0.00  0.00    +0.000 A 
ATOM     16  C   UNL     1      37.597   1.112  13.943  0.00  0.00    +0.000 A 
ATOM     17  C   UNL     1      38.128  -0.119  14.370  0.00  0.00    +0.000 A 
ATOM     18  C   UNL     1      37.618  -0.686  15.497  0.00  0.00    +0.000 A 
ATOM     19  C   UNL     1      36.632  -0.083  16.182  0.00  0.00    +0.000 A 
BRANCH  14  21
ATOM     20  C   UNL     1      34.443   2.958  15.695  0.00  0.00    +0.000 C 
ATOM     21  C   UNL     1      34.988   1.816  16.536  0.00  0.00    +0.000 C 
ENDBRANCH  14  21
BRANCH  17  22
ATOM     22  O   UNL     1      39.148  -0.718  13.639  0.00  0.00    +0.000 OA
ATOM     23  C   UNL     1      38.885  -1.517  12.516  0.00  0.00    +0.000 C 
ENDBRANCH  17  22
ENDBRANCH   1  18
BRANCH  11  24
ATOM     24  O   UNL     1      34.016  -7.988  16.051  0.00  0.00    +0.000 OA
BRANCH  24  25
ATOM     25  C   UNL     1      32.908  -8.193  16.887  0.00  0.00    +0.000 C 
BRANCH  25  26
ATOM     26  C   UNL     1      31.791  -8.731  16.080  0.00  0.00    +0.000 A 
ATOM     27  C   UNL     1      32.098  -9.479  14.951  0.00  0.00    +0.000 A 
ATOM     28  C   UNL     1      31.122 -10.035  14.132  0.00  0.00    +0.000 A 
ATOM     29  C   UNL     1      29.803  -9.838  14.451  0.00  0.00    +0.000 A 
ATOM     30  C   UNL     1      29.465  -9.090  15.580  0.00  0.00    +0.000 A 
ATOM     31  C   UNL     1      30.459  -8.555  16.367  0.00  0.00    +0.000 A 
ENDBRANCH  25  26
ENDBRANCH  24  25
ENDBRANCH  11  24
TORSDOF 6
ENDMDL
MODEL 6
REMARK VINA RESULT:      -7.7     26.304     29.437
REMARK  Name = 
REMARK  6 active torsions:
REMARK  status: ('A' for Active; 'I' for Inactive)
REMARK    1  A    between atoms: C_2  and  C_3
REMARK    2  A    between atoms: C_6  and  O_7
REMARK    3  A    between atoms: C_9  and  C_10
REMARK    4  A    between atoms: C_20  and  O_21
REMARK    5  A    between atoms: O_21  and  C_22
REMARK    6  A    between atoms: C_22  and  C_23
REMARK                            x       y       z     vdW  Elec       q    Type
REMARK                         _______ _______ _______ _____ _____    ______ ____
ROOT
ATOM      1  C   UNL     1      26.976  16.678  34.413  0.00  0.00    +0.000 C 
ATOM      2  N   UNL     1      27.786  17.841  35.129  0.00  0.00    +0.000 NA
ATOM      3  C   UNL     1      29.015  17.133  35.508  0.00  0.00    +0.000 C 
ATOM      4  C   UNL     1      28.679  15.828  36.214  0.00  0.00    +0.000 C 
ATOM      5  C   UNL     1      27.241  15.758  36.595  0.00  0.00    +0.000 A 
ATOM      6  C   UNL     1      26.251  16.166  35.748  0.00  0.00    +0.000 A 
ATOM      7  N   UNL     1      25.086  16.032  36.242  0.00  0.00    +0.000 NA
ATOM      8  C   UNL     1      25.186  15.518  37.478  0.00  0.00    +0.000 A 
ATOM      9  C   UNL     1      24.321  15.160  38.480  0.00  0.00    +0.000 A 
ATOM     10  C   UNL     1      24.775  14.637  39.691  0.00  0.00    +0.000 A 
ATOM     11  C   UNL     1      26.111  14.456  39.937  0.00  0.00    +0.000 A 
ATOM     12  C   UNL     1      26.995  14.821  38.915  0.00  0.00    +0.000 A 
ATOM     13  C   UNL     1      26.528  15.336  37.725  0.00  0.00    +0.000 A 
ENDROOT
BRANCH   1  18
ATOM     14  C   UNL     1      24.471  19.535  33.921  0.00  0.00    +0.000 A 
ATOM     15  C   UNL     1      23.740  19.063  32.858  0.00  0.00    +0.000 A 
ATOM     16  C   UNL     1      24.022  17.844  32.287  0.00  0.00    +0.000 A 
ATOM     17  C   UNL     1      25.074  17.052  32.782  0.00  0.00    +0.000 A 
ATOM     18  C   UNL     1      25.796  17.523  33.835  0.00  0.00    +0.000 A 
ATOM     19  C   UNL     1      25.510  18.715  34.384  0.00  0.00    +0.000 A 
BRANCH  14  21
ATOM     20  C   UNL     1      23.666  20.640  35.945  0.00  0.00    +0.000 C 
ATOM     21  C   UNL     1      24.145  20.849  34.519  0.00  0.00    +0.000 C 
ENDBRANCH  14  21
BRANCH  17  22
ATOM     22  O   UNL     1      25.344  15.822  32.192  0.00  0.00    +0.000 OA
ATOM     23  C   UNL     1      24.773  14.630  32.664  0.00  0.00    +0.000 C 
ENDBRANCH  17  22
ENDBRANCH   1  18
BRANCH  11  24
ATOM     24  O   UNL     1      26.615  13.940  41.122  0.00  0.00    +0.000 OA
BRANCH  24  25
ATOM     25  C   UNL     1      26.269  12.662  41.581  0.00  0.00    +0.000 C 
BRANCH  25  26
ATOM     26  C   UNL     1      27.330  11.707  41.190  0.00  0.00    +0.000 A 
ATOM     27  C   UNL     1      27.026  10.351  41.194  0.00  0.00    +0.000 A 
ATOM     28  C   UNL     1      27.948   9.375  40.836  0.00  0.00    +0.000 A 
ATOM     29  C   UNL     1      29.209   9.764  40.463  0.00  0.00    +0.000 A 
ATOM     30  C   UNL     1      29.542  11.120  40.451  0.00  0.00    +0.000 A 
ATOM     31  C   UNL     1      28.602  12.057  40.812  0.00  0.00    +0.000 A 
ENDBRANCH  25  26
ENDBRANCH  24  25
ENDBRANCH  11  24
TORSDOF 6
ENDMDL
MODEL 7
REMARK VINA RESULT:      -7.7      2.603      3.156
REMARK  Name = 
REMARK  6 active torsions:
REMARK  status: ('A' for Active; 'I' for Inactive)
REMARK    1  A    between atoms: C_2  and  C_3
REMARK    2  A    between atoms: C_6  and  O_7
REMARK    3  A    between atoms: C_9  and  C_10
REMARK    4  A    between atoms: C_20  and  O_21
REMARK    5  A    between atoms: O_21  and  C_22
REMARK    6  A    between atoms: C_22  and  C_23
REMARK                            x       y       z     vdW  Elec       q    Type
REMARK                         _______ _______ _______ _____ _____    ______ ____
ROOT
ATOM      1  C   UNL     1      38.327  -2.596  15.008  0.00  0.00    +0.000 C 
ATOM      2  N   UNL     1      37.905  -2.592  13.477  0.00  0.00    +0.000 NA
ATOM      3  C   UNL     1      38.856  -1.617  12.928  0.00  0.00    +0.000 C 
ATOM      4  C   UNL     1      38.862  -0.349  13.770  0.00  0.00    +0.000 C 
ATOM      5  C   UNL     1      37.717  -0.311  14.722  0.00  0.00    +0.000 A 
ATOM      6  C   UNL     1      37.335  -1.411  15.433  0.00  0.00    +0.000 A 
ATOM      7  N   UNL     1      36.340  -1.191  16.195  0.00  0.00    +0.000 NA
ATOM      8  C   UNL     1      35.957   0.089  16.066  0.00  0.00    +0.000 A 
ATOM      9  C   UNL     1      34.985   0.896  16.597  0.00  0.00    +0.000 A 
ATOM     10  C   UNL     1      34.858   2.235  16.227  0.00  0.00    +0.000 A 
ATOM     11  C   UNL     1      35.702   2.809  15.311  0.00  0.00    +0.000 A 
ATOM     12  C   UNL     1      36.695   1.985  14.768  0.00  0.00    +0.000 A 
ATOM     13  C   UNL     1      36.805   0.664  15.146  0.00  0.00    +0.000 A 
ENDROOT
BRANCH   1  18
ATOM     14  C   UNL     1      35.519  -5.197  15.181  0.00  0.00    +0.000 A 
ATOM     15  C   UNL     1      35.885  -5.905  16.300  0.00  0.00    +0.000 A 
ATOM     16  C   UNL     1      37.014  -5.573  17.013  0.00  0.00    +0.000 A 
ATOM     17  C   UNL     1      37.821  -4.496  16.606  0.00  0.00    +0.000 A 
ATOM     18  C   UNL     1      37.455  -3.797  15.497  0.00  0.00    +0.000 A 
ATOM     19  C   UNL     1      36.351  -4.130  14.810  0.00  0.00    +0.000 A 
BRANCH  14  21
ATOM     20  C   UNL     1      33.202  -4.564  14.732  0.00  0.00    +0.000 C 
ATOM     21  C   UNL     1      34.298  -5.573  14.433  0.00  0.00    +0.000 C 
ENDBRANCH  14  21
BRANCH  17  22
ATOM     22  O   UNL     1      38.958  -4.175  17.340  0.00  0.00    +0.000 OA
ATOM     23  C   UNL     1      38.884  -3.493  18.564  0.00  0.00    +0.000 C 
ENDBRANCH  17  22
ENDBRANCH   1  18
BRANCH  11  24
ATOM     24  O   UNL     1      35.619   4.133  14.909  0.00  0.00    +0.000 OA
BRANCH  24  25
ATOM     25  C   UNL     1      35.946   4.534  13.606  0.00  0.00    +0.000 C 
BRANCH  25  26
ATOM     26  C   UNL     1      35.387   5.883  13.363  0.00  0.00    +0.000 A 
ATOM     27  C   UNL     1      34.297   6.288  14.124  0.00  0.00    +0.000 A 
ATOM     28  C   UNL     1      33.705   7.537  13.980  0.00  0.00    +0.000 A 
ATOM     29  C   UNL     1      34.214   8.405  13.050  0.00  0.00    +0.000 A 
ATOM     30  C   UNL     1      35.309   8.024  12.270  0.00  0.00    +0.000 A 
ATOM     31  C   UNL     1      35.869   6.779  12.442  0.00  0.00    +0.000 A 
ENDBRANCH  25  26
ENDBRANCH  24  25
ENDBRANCH  11  24
TORSDOF 6
ENDMDL
MODEL 8
REMARK VINA RESULT:      -7.6      3.508      5.466
REMARK  Name = 
REMARK  6 active torsions:
REMARK  status: ('A' for Active; 'I' for Inactive)
REMARK    1  A    between atoms: C_2  and  C_3
REMARK    2  A    between atoms: C_6  and  O_7
REMARK    3  A    between atoms: C_9  and  C_10
REMARK    4  A    between atoms: C_20  and  O_21
REMARK    5  A    between atoms: O_21  and  C_22
REMARK    6  A    between atoms: C_22  and  C_23
REMARK                            x       y       z     vdW  Elec       q    Type
REMARK                         _______ _______ _______ _____ _____    ______ ____
ROOT
ATOM      1  C   UNL     1      36.934   1.131  14.751  0.00  0.00    +0.000 C 
ATOM      2  N   UNL     1      37.131   0.518  16.202  0.00  0.00    +0.000 NA
ATOM      3  C   UNL     1      36.018   1.147  16.925  0.00  0.00    +0.000 C 
ATOM      4  C   UNL     1      36.004   2.648  16.675  0.00  0.00    +0.000 C 
ATOM      5  C   UNL     1      37.262   3.114  16.030  0.00  0.00    +0.000 A 
ATOM      6  C   UNL     1      37.852   2.419  15.014  0.00  0.00    +0.000 A 
ATOM      7  N   UNL     1      38.918   2.968  14.587  0.00  0.00    +0.000 NA
ATOM      8  C   UNL     1      39.146   4.092  15.283  0.00  0.00    +0.000 A 
ATOM      9  C   UNL     1      40.097   5.080  15.295  0.00  0.00    +0.000 A 
ATOM     10  C   UNL     1      40.033   6.151  16.187  0.00  0.00    +0.000 A 
ATOM     11  C   UNL     1      39.014   6.267  17.096  0.00  0.00    +0.000 A 
ATOM     12  C   UNL     1      38.043   5.259  17.084  0.00  0.00    +0.000 A 
ATOM     13  C   UNL     1      38.122   4.208  16.196  0.00  0.00    +0.000 A 
ENDROOT
BRANCH   1  18
ATOM     14  C   UNL     1      39.853  -1.251  14.054  0.00  0.00    +0.000 A 
ATOM     15  C   UNL     1      39.851  -1.275  12.680  0.00  0.00    +0.000 A 
ATOM     16  C   UNL     1      38.937  -0.542  11.959  0.00  0.00    +0.000 A 
ATOM     17  C   UNL     1      37.979   0.249  12.618  0.00  0.00    +0.000 A 
ATOM     18  C   UNL     1      37.984   0.269  13.979  0.00  0.00    +0.000 A 
ATOM     19  C   UNL     1      38.882  -0.450  14.672  0.00  0.00    +0.000 A 
BRANCH  14  21
ATOM     20  C   UNL     1      42.245  -1.603  14.405  0.00  0.00    +0.000 C 
ATOM     21  C   UNL     1      40.849  -2.047  14.806  0.00  0.00    +0.000 C 
ENDBRANCH  14  21
BRANCH  17  22
ATOM     22  O   UNL     1      37.064   0.983  11.872  0.00  0.00    +0.000 OA
ATOM     23  C   UNL     1      37.459   2.055  11.057  0.00  0.00    +0.000 C 
ENDBRANCH  17  22
ENDBRANCH   1  18
BRANCH  11  24
ATOM     24  O   UNL     1      38.904   7.309  18.004  0.00  0.00    +0.000 OA
BRANCH  24  25
ATOM     25  C   UNL     1      38.948   7.095  19.389  0.00  0.00    +0.000 C 
BRANCH  25  26
ATOM     26  C   UNL     1      40.353   7.177  19.844  0.00  0.00    +0.000 A 
ATOM     27  C   UNL     1      40.962   8.426  19.869  0.00  0.00    +0.000 A 
ATOM     28  C   UNL     1      42.275   8.611  20.288  0.00  0.00    +0.000 A 
ATOM     29  C   UNL     1      42.998   7.519  20.693  0.00  0.00    +0.000 A 
ATOM     30  C   UNL     1      42.411   6.252  20.677  0.00  0.00    +0.000 A 
ATOM     31  C   UNL     1      41.110   6.108  20.256  0.00  0.00    +0.000 A 
ENDBRANCH  25  26
ENDBRANCH  24  25
ENDBRANCH  11  24
TORSDOF 6
ENDMDL
MODEL 9
REMARK VINA RESULT:      -7.6      1.895      3.823
REMARK  Name = 
REMARK  6 active torsions:
REMARK  status: ('A' for Active; 'I' for Inactive)
REMARK    1  A    between atoms: C_2  and  C_3
REMARK    2  A    between atoms: C_6  and  O_7
REMARK    3  A    between atoms: C_9  and  C_10
REMARK    4  A    between atoms: C_20  and  O_21
REMARK    5  A    between atoms: O_21  and  C_22
REMARK    6  A    between atoms: C_22  and  C_23
REMARK                            x       y       z     vdW  Elec       q    Type
REMARK                         _______ _______ _______ _____ _____    ______ ____
ROOT
ATOM      1  C   UNL     1      35.675  -0.783  15.961  0.00  0.00    +0.000 C 
ATOM      2  N   UNL     1      36.359  -1.021  17.374  0.00  0.00    +0.000 NA
ATOM      3  C   UNL     1      35.511  -0.191  18.238  0.00  0.00    +0.000 C 
ATOM      4  C   UNL     1      35.346   1.199  17.642  0.00  0.00    +0.000 C 
ATOM      5  C   UNL     1      36.305   1.443  16.530  0.00  0.00    +0.000 A 
ATOM      6  C   UNL     1      36.567   0.495  15.584  0.00  0.00    +0.000 A 
ATOM      7  N   UNL     1      37.410   0.879  14.712  0.00  0.00    +0.000 NA
ATOM      8  C   UNL     1      37.798   2.133  14.994  0.00  0.00    +0.000 A 
ATOM      9  C   UNL     1      38.655   3.056  14.452  0.00  0.00    +0.000 A 
ATOM     10  C   UNL     1      38.832   4.317  15.021  0.00  0.00    +0.000 A 
ATOM     11  C   UNL     1      38.157   4.695  16.153  0.00  0.00    +0.000 A 
ATOM     12  C   UNL     1      37.282   3.752  16.707  0.00  0.00    +0.000 A 
ATOM     13  C   UNL     1      37.120   2.511  16.131  0.00  0.00    +0.000 A 
ENDROOT
BRANCH   1  18
ATOM     14  C   UNL     1      38.501  -2.505  14.028  0.00  0.00    +0.000 A 
ATOM     15  C   UNL     1      37.895  -3.686  13.675  0.00  0.00    +0.000 A 
ATOM     16  C   UNL     1      36.595  -3.954  14.035  0.00  0.00    +0.000 A 
ATOM     17  C   UNL     1      35.856  -3.017  14.780  0.00  0.00    +0.000 A 
ATOM     18  C   UNL     1      36.459  -1.849  15.129  0.00  0.00    +0.000 A 
ATOM     19  C   UNL     1      37.729  -1.599  14.771  0.00  0.00    +0.000 A 
BRANCH  14  21
ATOM     20  C   UNL     1      40.719  -1.912  14.863  0.00  0.00    +0.000 C 
ATOM     21  C   UNL     1      39.901  -2.240  13.626  0.00  0.00    +0.000 C 
ENDBRANCH  14  21
BRANCH  17  22
ATOM     22  O   UNL     1      34.543  -3.306  15.135  0.00  0.00    +0.000 OA
ATOM     23  C   UNL     1      34.080  -4.625  15.261  0.00  0.00    +0.000 C 
ENDBRANCH  17  22
ENDBRANCH   1  18
BRANCH  11  24
ATOM     24  O   UNL     1      38.296   5.934  16.758  0.00  0.00    +0.000 OA
BRANCH  24  25
ATOM     25  C   UNL     1      38.438   6.070  18.146  0.00  0.00    +0.000 C 
BRANCH  25  26
ATOM     26  C   UNL     1      39.871   6.253  18.468  0.00  0.00    +0.000 A 
ATOM     27  C   UNL     1      40.237   6.335  19.805  0.00  0.00    +0.000 A 
ATOM     28  C   UNL     1      41.557   6.497  20.213  0.00  0.00    +0.000 A 
ATOM     29  C   UNL     1      42.536   6.580  19.257  0.00  0.00    +0.000 A 
ATOM     30  C   UNL     1      42.196   6.502  17.905  0.00  0.00    +0.000 A 
ATOM     31  C   UNL     1      40.880   6.340  17.540  0.00  0.00    +0.000 A 
ENDBRANCH  25  26
ENDBRANCH  24  25
ENDBRANCH  11  24
TORSDOF 6
ENDMDL
MODEL 10
REMARK VINA RESULT:      -7.6      2.560      8.877
REMARK  Name = 
REMARK  6 active torsions:
REMARK  status: ('A' for Active; 'I' for Inactive)
REMARK    1  A    between atoms: C_2  and  C_3
REMARK    2  A    between atoms: C_6  and  O_7
REMARK    3  A    between atoms: C_9  and  C_10
REMARK    4  A    between atoms: C_20  and  O_21
REMARK    5  A    between atoms: O_21  and  C_22
REMARK    6  A    between atoms: C_22  and  C_23
REMARK                            x       y       z     vdW  Elec       q    Type
REMARK                         _______ _______ _______ _____ _____    ______ ____
ROOT
ATOM      1  C   UNL     1      38.287   5.066  14.727  0.00  0.00    +0.000 C 
ATOM      2  N   UNL     1      39.698   4.375  14.956  0.00  0.00    +0.000 NA
ATOM      3  C   UNL     1      39.848   3.624  13.703  0.00  0.00    +0.000 C 
ATOM      4  C   UNL     1      38.590   2.819  13.413  0.00  0.00    +0.000 C 
ATOM      5  C   UNL     1      37.682   2.766  14.593  0.00  0.00    +0.000 A 
ATOM      6  C   UNL     1      37.435   3.865  15.362  0.00  0.00    +0.000 A 
ATOM      7  N   UNL     1      36.636   3.631  16.324  0.00  0.00    +0.000 NA
ATOM      8  C   UNL     1      36.269   2.341  16.291  0.00  0.00    +0.000 A 
ATOM      9  C   UNL     1      35.462   1.516  17.031  0.00  0.00    +0.000 A 
ATOM     10  C   UNL     1      35.297   0.168  16.711  0.00  0.00    +0.000 A 
ATOM     11  C   UNL     1      35.936  -0.397  15.638  0.00  0.00    +0.000 A 
ATOM     12  C   UNL     1      36.761   0.444  14.882  0.00  0.00    +0.000 A 
ATOM     13  C   UNL     1      36.911   1.774  15.214  0.00  0.00    +0.000 A 
ENDROOT
BRANCH   1  18
ATOM     14  C   UNL     1      39.009   6.470  18.219  0.00  0.00    +0.000 A 
ATOM     15  C   UNL     1      38.312   7.653  18.175  0.00  0.00    +0.000 A 
ATOM     16  C   UNL     1      37.607   8.022  17.053  0.00  0.00    +0.000 A 
ATOM     17  C   UNL     1      37.587   7.189  15.920  0.00  0.00    +0.000 A 
ATOM     18  C   UNL     1      38.279   6.018  15.966  0.00  0.00    +0.000 A 
ATOM     19  C   UNL     1      38.963   5.669  17.068  0.00  0.00    +0.000 A 
BRANCH  14  21
ATOM     20  C   UNL     1      40.056   7.350  20.243  0.00  0.00    +0.000 C 
ATOM     21  C   UNL     1      39.758   6.096  19.439  0.00  0.00    +0.000 C 
ENDBRANCH  14  21
BRANCH  17  22
ATOM     22  O   UNL     1      36.868   7.578  14.795  0.00  0.00    +0.000 OA
ATOM     23  C   UNL     1      35.711   8.366  14.889  0.00  0.00    +0.000 C 
ENDBRANCH  17  22
ENDBRANCH   1  18
BRANCH  11  24
ATOM     24  O   UNL     1      35.808  -1.730  15.277  0.00  0.00    +0.000 OA
BRANCH  24  25
ATOM     25  C   UNL     1      36.635  -2.727  15.813  0.00  0.00    +0.000 C 
BRANCH  25  26
ATOM     26  C   UNL     1      37.931  -2.712  15.099  0.00  0.00    +0.000 A 
ATOM     27  C   UNL     1      37.922  -2.882  13.720  0.00  0.00    +0.000 A 
ATOM     28  C   UNL     1      39.083  -2.875  12.956  0.00  0.00    +0.000 A 
ATOM     29  C   UNL     1      40.286  -2.694  13.588  0.00  0.00    +0.000 A 
ATOM     30  C   UNL     1      40.325  -2.522  14.973  0.00  0.00    +0.000 A 
ATOM     31  C   UNL     1      39.155  -2.534  15.695  0.00  0.00    +0.000 A 
ENDBRANCH  25  26
ENDBRANCH  24  25
ENDBRANCH  11  24
TORSDOF 6
ENDMDL
