MODEL 1
REMARK VINA RESULT:      -8.4      0.000      0.000
REMARK  Name = 
REMARK  8 active torsions:
REMARK  status: ('A' for Active; 'I' for Inactive)
REMARK    1  A    between atoms: C_2  and  C_4
REMARK    2  A    between atoms: C_9  and  N_10
REMARK    3  A    between atoms: C_11  and  C_13
REMARK    4  A    between atoms: C_13  and  O_14
REMARK    5  A    between atoms: O_14  and  C_15
REMARK    6  A    between atoms: C_15  and  C_17
REMARK    7  A    between atoms: C_17  and  C_18
REMARK    8  A    between atoms: C_21  and  C_22
REMARK                            x       y       z     vdW  Elec       q    Type
REMARK                         _______ _______ _______ _____ _____    ______ ____
ROOT
ATOM      1  C   UNL     1      38.373   4.155  16.665  0.00  0.00    +0.000 C 
ATOM      2  O   UNL     1      37.627   3.607  17.490  0.00  0.00    +0.000 OA
ENDROOT
BRANCH   1   3
ATOM      3  O   UNL     1      39.014   3.389  15.716  0.00  0.00    +0.000 OA
BRANCH   3   4
ATOM      4  C   UNL     1      38.386   3.127  14.490  0.00  0.00    +0.000 C 
BRANCH   4   6
ATOM      5  N   UNL     1      37.886   0.797  15.367  0.00  0.00    +0.000 NA
ATOM      6  C   UNL     1      37.599   1.881  14.500  0.00  0.00    +0.000 C 
ATOM      7  O   UNL     1      36.636   1.766  13.712  0.00  0.00    +0.000 OA
BRANCH   5  13
ATOM      8  C   UNL     1      36.120  -0.537  16.311  0.00  0.00    +0.000 A 
ATOM      9  C   UNL     1      35.342  -1.675  16.357  0.00  0.00    +0.000 A 
ATOM     10  C   UNL     1      35.522  -2.720  15.465  0.00  0.00    +0.000 A 
ATOM     11  C   UNL     1      36.520  -2.580  14.518  0.00  0.00    +0.000 A 
ATOM     12  C   UNL     1      37.291  -1.438  14.482  0.00  0.00    +0.000 A 
ATOM     13  C   UNL     1      37.119  -0.397  15.362  0.00  0.00    +0.000 A 
BRANCH   8  15
ATOM     14  C   UNL     1      35.655  -0.011  18.690  0.00  0.00    +0.000 C 
ATOM     15  C   UNL     1      35.850   0.536  17.313  0.00  0.00    +0.000 C 
ATOM     16  C   UNL     1      34.757   1.461  16.857  0.00  0.00    +0.000 C 
ENDBRANCH   8  15
ENDBRANCH   5  13
ENDBRANCH   4   6
ENDBRANCH   3   4
ENDBRANCH   1   3
BRANCH   1  17
ATOM     17  C   UNL     1      38.555   5.626  16.724  0.00  0.00    +0.000 C 
BRANCH  17  18
ATOM     18  C   UNL     1      39.612   5.957  17.695  0.00  0.00    +0.000 A 
ATOM     19  C   UNL     1      39.273   6.060  19.034  0.00  0.00    +0.000 A 
ATOM     20  C   UNL     1      40.269   6.373  19.938  0.00  0.00    +0.000 A 
ATOM     21  C   UNL     1      41.573   6.586  19.583  0.00  0.00    +0.000 A 
ATOM     22  C   UNL     1      41.891   6.479  18.248  0.00  0.00    +0.000 A 
ATOM     23  C   UNL     1      40.925   6.168  17.308  0.00  0.00    +0.000 A 
BRANCH  21  24
ATOM     24  C   UNL     1      42.579   6.916  20.611  0.00  0.00    +0.000 A 
ATOM     25  C   UNL     1      43.184   5.929  21.359  0.00  0.00    +0.000 A 
ATOM     26  C   UNL     1      44.128   6.226  22.331  0.00  0.00    +0.000 A 
ATOM     27  C   UNL     1      44.469   7.540  22.555  0.00  0.00    +0.000 A 
ATOM     28  C   UNL     1      43.855   8.522  21.799  0.00  0.00    +0.000 A 
ATOM     29  C   UNL     1      42.919   8.226  20.835  0.00  0.00    +0.000 A 
ENDBRANCH  21  24
ENDBRANCH  17  18
ENDBRANCH   1  17
TORSDOF 8
ENDMDL
MODEL 2
REMARK VINA RESULT:      -8.1      1.118      2.187
REMARK  Name = 
REMARK  8 active torsions:
REMARK  status: ('A' for Active; 'I' for Inactive)
REMARK    1  A    between atoms: C_2  and  C_4
REMARK    2  A    between atoms: C_9  and  N_10
REMARK    3  A    between atoms: C_11  and  C_13
REMARK    4  A    between atoms: C_13  and  O_14
REMARK    5  A    between atoms: O_14  and  C_15
REMARK    6  A    between atoms: C_15  and  C_17
REMARK    7  A    between atoms: C_17  and  C_18
REMARK    8  A    between atoms: C_21  and  C_22
REMARK                            x       y       z     vdW  Elec       q    Type
REMARK                         _______ _______ _______ _____ _____    ______ ____
ROOT
ATOM      1  C   UNL     1      38.774   4.314  16.108  0.00  0.00    +0.000 C 
ATOM      2  O   UNL     1      39.438   3.901  15.145  0.00  0.00    +0.000 OA
ENDROOT
BRANCH   1   3
ATOM      3  O   UNL     1      38.040   3.421  16.859  0.00  0.00    +0.000 OA
BRANCH   3   4
ATOM      4  C   UNL     1      36.640   3.439  16.792  0.00  0.00    +0.000 C 
BRANCH   4   6
ATOM      5  N   UNL     1      36.451   0.937  17.175  0.00  0.00    +0.000 NA
ATOM      6  C   UNL     1      36.059   2.117  16.496  0.00  0.00    +0.000 C 
ATOM      7  O   UNL     1      35.185   2.025  15.608  0.00  0.00    +0.000 OA
BRANCH   5  13
ATOM      8  C   UNL     1      36.562  -1.160  15.999  0.00  0.00    +0.000 A 
ATOM      9  C   UNL     1      36.060  -2.402  15.668  0.00  0.00    +0.000 A 
ATOM     10  C   UNL     1      34.866  -2.870  16.191  0.00  0.00    +0.000 A 
ATOM     11  C   UNL     1      34.188  -2.040  17.065  0.00  0.00    +0.000 A 
ATOM     12  C   UNL     1      34.699  -0.802  17.389  0.00  0.00    +0.000 A 
ATOM     13  C   UNL     1      35.882  -0.330  16.875  0.00  0.00    +0.000 A 
BRANCH   8  15
ATOM     14  C   UNL     1      37.724  -0.447  13.927  0.00  0.00    +0.000 C 
ATOM     15  C   UNL     1      37.858  -0.743  15.386  0.00  0.00    +0.000 C 
ATOM     16  C   UNL     1      38.966  -1.700  15.722  0.00  0.00    +0.000 C 
ENDBRANCH   8  15
ENDBRANCH   5  13
ENDBRANCH   4   6
ENDBRANCH   3   4
ENDBRANCH   1   3
BRANCH   1  17
ATOM     17  C   UNL     1      38.790   5.763  16.426  0.00  0.00    +0.000 C 
BRANCH  17  18
ATOM     18  C   UNL     1      39.798   6.031  17.468  0.00  0.00    +0.000 A 
ATOM     19  C   UNL     1      39.405   5.987  18.795  0.00  0.00    +0.000 A 
ATOM     20  C   UNL     1      40.354   6.243  19.765  0.00  0.00    +0.000 A 
ATOM     21  C   UNL     1      41.661   6.535  19.486  0.00  0.00    +0.000 A 
ATOM     22  C   UNL     1      42.032   6.574  18.161  0.00  0.00    +0.000 A 
ATOM     23  C   UNL     1      41.114   6.325  17.157  0.00  0.00    +0.000 A 
BRANCH  21  24
ATOM     24  C   UNL     1      42.615   6.796  20.582  0.00  0.00    +0.000 A 
ATOM     25  C   UNL     1      43.183   5.761  21.293  0.00  0.00    +0.000 A 
ATOM     26  C   UNL     1      44.078   5.992  22.327  0.00  0.00    +0.000 A 
ATOM     27  C   UNL     1      44.406   7.288  22.653  0.00  0.00    +0.000 A 
ATOM     28  C   UNL     1      43.829   8.319  21.933  0.00  0.00    +0.000 A 
ATOM     29  C   UNL     1      42.942   8.088  20.907  0.00  0.00    +0.000 A 
ENDBRANCH  21  24
ENDBRANCH  17  18
ENDBRANCH   1  17
TORSDOF 8
ENDMDL
MODEL 3
REMARK VINA RESULT:      -8.0      5.947      8.912
REMARK  Name = 
REMARK  8 active torsions:
REMARK  status: ('A' for Active; 'I' for Inactive)
REMARK    1  A    between atoms: C_2  and  C_4
REMARK    2  A    between atoms: C_9  and  N_10
REMARK    3  A    between atoms: C_11  and  C_13
REMARK    4  A    between atoms: C_13  and  O_14
REMARK    5  A    between atoms: O_14  and  C_15
REMARK    6  A    between atoms: C_15  and  C_17
REMARK    7  A    between atoms: C_17  and  C_18
REMARK    8  A    between atoms: C_21  and  C_22
REMARK                            x       y       z     vdW  Elec       q    Type
REMARK                         _______ _______ _______ _____ _____    ______ ____
ROOT
ATOM      1  C   UNL     1      36.951  -1.516  18.756  0.00  0.00    +0.000 C 
ATOM      2  O   UNL     1      37.479  -2.024  19.757  0.00  0.00    +0.000 OA
ENDROOT
BRANCH   1   3
ATOM      3  O   UNL     1      36.881  -0.144  18.647  0.00  0.00    +0.000 OA
BRANCH   3   4
ATOM      4  C   UNL     1      35.729   0.456  18.120  0.00  0.00    +0.000 C 
BRANCH   4   6
ATOM      5  N   UNL     1      35.434   1.523  15.836  0.00  0.00    +0.000 NA
ATOM      6  C   UNL     1      36.026   1.500  17.123  0.00  0.00    +0.000 C 
ATOM      7  O   UNL     1      36.835   2.405  17.416  0.00  0.00    +0.000 OA
BRANCH   5  13
ATOM      8  C   UNL     1      36.690   2.263  13.921  0.00  0.00    +0.000 A 
ATOM      9  C   UNL     1      37.025   3.207  12.971  0.00  0.00    +0.000 A 
ATOM     10  C   UNL     1      36.427   4.456  12.940  0.00  0.00    +0.000 A 
ATOM     11  C   UNL     1      35.474   4.727  13.904  0.00  0.00    +0.000 A 
ATOM     12  C   UNL     1      35.146   3.776  14.847  0.00  0.00    +0.000 A 
ATOM     13  C   UNL     1      35.734   2.535  14.886  0.00  0.00    +0.000 A 
BRANCH   8  15
ATOM     14  C   UNL     1      38.749   1.002  14.484  0.00  0.00    +0.000 C 
ATOM     15  C   UNL     1      37.387   0.944  13.873  0.00  0.00    +0.000 C 
ATOM     16  C   UNL     1      37.354   0.347  12.495  0.00  0.00    +0.000 C 
ENDBRANCH   8  15
ENDBRANCH   5  13
ENDBRANCH   4   6
ENDBRANCH   3   4
ENDBRANCH   1   3
BRANCH   1  17
ATOM     17  C   UNL     1      36.408  -2.405  17.700  0.00  0.00    +0.000 C 
BRANCH  17  18
ATOM     18  C   UNL     1      37.362  -2.484  16.579  0.00  0.00    +0.000 A 
ATOM     19  C   UNL     1      36.870  -2.718  15.305  0.00  0.00    +0.000 A 
ATOM     20  C   UNL     1      37.770  -2.793  14.261  0.00  0.00    +0.000 A 
ATOM     21  C   UNL     1      39.122  -2.648  14.416  0.00  0.00    +0.000 A 
ATOM     22  C   UNL     1      39.592  -2.417  15.689  0.00  0.00    +0.000 A 
ATOM     23  C   UNL     1      38.726  -2.334  16.764  0.00  0.00    +0.000 A 
BRANCH  21  24
ATOM     24  C   UNL     1      40.018  -2.742  13.247  0.00  0.00    +0.000 A 
ATOM     25  C   UNL     1      39.540  -2.560  11.967  0.00  0.00    +0.000 A 
ATOM     26  C   UNL     1      40.370  -2.649  10.859  0.00  0.00    +0.000 A 
ATOM     27  C   UNL     1      41.705  -2.926  11.043  0.00  0.00    +0.000 A 
ATOM     28  C   UNL     1      42.174  -3.107  12.331  0.00  0.00    +0.000 A 
ATOM     29  C   UNL     1      41.349  -3.018  13.429  0.00  0.00    +0.000 A 
ENDBRANCH  21  24
ENDBRANCH  17  18
ENDBRANCH   1  17
TORSDOF 8
ENDMDL
MODEL 4
REMARK VINA RESULT:      -8.0      1.939      3.912
REMARK  Name = 
REMARK  8 active torsions:
REMARK  status: ('A' for Active; 'I' for Inactive)
REMARK    1  A    between atoms: C_2  and  C_4
REMARK    2  A    between atoms: C_9  and  N_10
REMARK    3  A    between atoms: C_11  and  C_13
REMARK    4  A    between atoms: C_13  and  O_14
REMARK    5  A    between atoms: O_14  and  C_15
REMARK    6  A    between atoms: C_15  and  C_17
REMARK    7  A    between atoms: C_17  and  C_18
REMARK    8  A    between atoms: C_21  and  C_22
REMARK                            x       y       z     vdW  Elec       q    Type
REMARK                         _______ _______ _______ _____ _____    ______ ____
ROOT
ATOM      1  C   UNL     1      35.731   3.329  14.646  0.00  0.00    +0.000 C 
ATOM      2  O   UNL     1      35.156   4.422  14.760  0.00  0.00    +0.000 OA
ENDROOT
BRANCH   1   3
ATOM      3  O   UNL     1      35.032   2.165  14.881  0.00  0.00    +0.000 OA
BRANCH   3   4
ATOM      4  C   UNL     1      35.041   1.592  16.161  0.00  0.00    +0.000 C 
BRANCH   4   6
ATOM      5  N   UNL     1      36.550  -0.286  15.360  0.00  0.00    +0.000 NA
ATOM      6  C   UNL     1      36.145   0.636  16.357  0.00  0.00    +0.000 C 
ATOM      7  O   UNL     1      36.756   0.632  17.447  0.00  0.00    +0.000 OA
BRANCH   5  13
ATOM      8  C   UNL     1      38.822  -0.955  14.932  0.00  0.00    +0.000 A 
ATOM      9  C   UNL     1      39.894  -1.809  15.094  0.00  0.00    +0.000 A 
ATOM     10  C   UNL     1      39.813  -2.940  15.890  0.00  0.00    +0.000 A 
ATOM     11  C   UNL     1      38.608  -3.185  16.522  0.00  0.00    +0.000 A 
ATOM     12  C   UNL     1      37.545  -2.325  16.354  0.00  0.00    +0.000 A 
ATOM     13  C   UNL     1      37.616  -1.201  15.567  0.00  0.00    +0.000 A 
BRANCH   8  15
ATOM     14  C   UNL     1      38.963  -0.112  12.604  0.00  0.00    +0.000 C 
ATOM     15  C   UNL     1      39.005   0.240  14.056  0.00  0.00    +0.000 C 
ATOM     16  C   UNL     1      40.205   1.048  14.460  0.00  0.00    +0.000 C 
ENDBRANCH   8  15
ENDBRANCH   5  13
ENDBRANCH   4   6
ENDBRANCH   3   4
ENDBRANCH   1   3
BRANCH   1  17
ATOM     17  C   UNL     1      37.163   3.306  14.258  0.00  0.00    +0.000 C 
BRANCH  17  18
ATOM     18  C   UNL     1      37.966   3.994  15.284  0.00  0.00    +0.000 A 
ATOM     19  C   UNL     1      39.010   4.806  14.873  0.00  0.00    +0.000 A 
ATOM     20  C   UNL     1      39.760   5.446  15.840  0.00  0.00    +0.000 A 
ATOM     21  C   UNL     1      39.526   5.321  17.183  0.00  0.00    +0.000 A 
ATOM     22  C   UNL     1      38.485   4.509  17.572  0.00  0.00    +0.000 A 
ATOM     23  C   UNL     1      37.709   3.849  16.637  0.00  0.00    +0.000 A 
BRANCH  21  24
ATOM     24  C   UNL     1      40.375   6.039  18.154  0.00  0.00    +0.000 A 
ATOM     25  C   UNL     1      39.914   6.340  19.418  0.00  0.00    +0.000 A 
ATOM     26  C   UNL     1      40.700   7.017  20.339  0.00  0.00    +0.000 A 
ATOM     27  C   UNL     1      41.972   7.398  19.982  0.00  0.00    +0.000 A 
ATOM     28  C   UNL     1      42.425   7.091  18.712  0.00  0.00    +0.000 A 
ATOM     29  C   UNL     1      41.644   6.419  17.799  0.00  0.00    +0.000 A 
ENDBRANCH  21  24
ENDBRANCH  17  18
ENDBRANCH   1  17
TORSDOF 8
ENDMDL
MODEL 5
REMARK VINA RESULT:      -7.9      2.096     10.184
REMARK  Name = 
REMARK  8 active torsions:
REMARK  status: ('A' for Active; 'I' for Inactive)
REMARK    1  A    between atoms: C_2  and  C_4
REMARK    2  A    between atoms: C_9  and  N_10
REMARK    3  A    between atoms: C_11  and  C_13
REMARK    4  A    between atoms: C_13  and  O_14
REMARK    5  A    between atoms: O_14  and  C_15
REMARK    6  A    between atoms: C_15  and  C_17
REMARK    7  A    between atoms: C_17  and  C_18
REMARK    8  A    between atoms: C_21  and  C_22
REMARK                            x       y       z     vdW  Elec       q    Type
REMARK                         _______ _______ _______ _____ _____    ______ ____
ROOT
ATOM      1  C   UNL     1      36.703   3.222  16.576  0.00  0.00    +0.000 C 
ATOM      2  O   UNL     1      37.250   2.803  17.608  0.00  0.00    +0.000 OA
ENDROOT
BRANCH   1   3
ATOM      3  O   UNL     1      37.349   4.159  15.799  0.00  0.00    +0.000 OA
BRANCH   3   4
ATOM      4  C   UNL     1      38.680   4.500  16.077  0.00  0.00    +0.000 C 
BRANCH   4   6
ATOM      5  N   UNL     1      38.768   5.776  18.270  0.00  0.00    +0.000 NA
ATOM      6  C   UNL     1      38.807   5.746  16.854  0.00  0.00    +0.000 C 
ATOM      7  O   UNL     1      38.955   6.827  16.245  0.00  0.00    +0.000 OA
BRANCH   5  13
ATOM      8  C   UNL     1      40.113   7.279  19.583  0.00  0.00    +0.000 A 
ATOM      9  C   UNL     1      40.292   8.439  20.308  0.00  0.00    +0.000 A 
ATOM     10  C   UNL     1      39.267   9.354  20.488  0.00  0.00    +0.000 A 
ATOM     11  C   UNL     1      38.047   9.060  19.909  0.00  0.00    +0.000 A 
ATOM     12  C   UNL     1      37.880   7.898  19.186  0.00  0.00    +0.000 A 
ATOM     13  C   UNL     1      38.890   6.986  19.003  0.00  0.00    +0.000 A 
BRANCH   8  15
ATOM     14  C   UNL     1      42.066   6.242  20.707  0.00  0.00    +0.000 C 
ATOM     15  C   UNL     1      41.277   6.355  19.443  0.00  0.00    +0.000 C 
ATOM     16  C   UNL     1      42.100   6.677  18.229  0.00  0.00    +0.000 C 
ENDBRANCH   8  15
ENDBRANCH   5  13
ENDBRANCH   4   6
ENDBRANCH   3   4
ENDBRANCH   1   3
BRANCH   1  17
ATOM     17  C   UNL     1      35.365   2.700  16.207  0.00  0.00    +0.000 C 
BRANCH  17  18
ATOM     18  C   UNL     1      35.417   1.231  16.101  0.00  0.00    +0.000 A 
ATOM     19  C   UNL     1      34.735   0.474  17.038  0.00  0.00    +0.000 A 
ATOM     20  C   UNL     1      34.791  -0.901  16.933  0.00  0.00    +0.000 A 
ATOM     21  C   UNL     1      35.483  -1.557  15.952  0.00  0.00    +0.000 A 
ATOM     22  C   UNL     1      36.155  -0.788  15.030  0.00  0.00    +0.000 A 
ATOM     23  C   UNL     1      36.127   0.593  15.097  0.00  0.00    +0.000 A 
BRANCH  21  24
ATOM     24  C   UNL     1      35.493  -3.033  15.909  0.00  0.00    +0.000 A 
ATOM     25  C   UNL     1      34.462  -3.735  15.324  0.00  0.00    +0.000 A 
ATOM     26  C   UNL     1      34.457  -5.122  15.280  0.00  0.00    +0.000 A 
ATOM     27  C   UNL     1      35.508  -5.814  15.835  0.00  0.00    +0.000 A 
ATOM     28  C   UNL     1      36.537  -5.099  16.421  0.00  0.00    +0.000 A 
ATOM     29  C   UNL     1      36.541  -3.723  16.463  0.00  0.00    +0.000 A 
ENDBRANCH  21  24
ENDBRANCH  17  18
ENDBRANCH   1  17
TORSDOF 8
ENDMDL
MODEL 6
REMARK VINA RESULT:      -7.5      3.275      8.735
REMARK  Name = 
REMARK  8 active torsions:
REMARK  status: ('A' for Active; 'I' for Inactive)
REMARK    1  A    between atoms: C_2  and  C_4
REMARK    2  A    between atoms: C_9  and  N_10
REMARK    3  A    between atoms: C_11  and  C_13
REMARK    4  A    between atoms: C_13  and  O_14
REMARK    5  A    between atoms: O_14  and  C_15
REMARK    6  A    between atoms: C_15  and  C_17
REMARK    7  A    between atoms: C_17  and  C_18
REMARK    8  A    between atoms: C_21  and  C_22
REMARK                            x       y       z     vdW  Elec       q    Type
REMARK                         _______ _______ _______ _____ _____    ______ ____
ROOT
ATOM      1  C   UNL     1      34.845   7.164  13.234  0.00  0.00    +0.000 C 
ATOM      2  O   UNL     1      33.760   7.168  12.632  0.00  0.00    +0.000 OA
ENDROOT
BRANCH   1   3
ATOM      3  O   UNL     1      35.023   7.998  14.317  0.00  0.00    +0.000 OA
BRANCH   3   4
ATOM      4  C   UNL     1      36.253   8.644  14.506  0.00  0.00    +0.000 C 
BRANCH   4   6
ATOM      5  N   UNL     1      38.022   7.535  15.948  0.00  0.00    +0.000 NA
ATOM      6  C   UNL     1      36.868   8.344  15.811  0.00  0.00    +0.000 C 
ATOM      7  O   UNL     1      36.354   8.819  16.846  0.00  0.00    +0.000 OA
BRANCH   5  13
ATOM      8  C   UNL     1      38.689   5.930  17.613  0.00  0.00    +0.000 A 
ATOM      9  C   UNL     1      39.239   5.594  18.833  0.00  0.00    +0.000 A 
ATOM     10  C   UNL     1      39.724   6.555  19.705  0.00  0.00    +0.000 A 
ATOM     11  C   UNL     1      39.636   7.876  19.306  0.00  0.00    +0.000 A 
ATOM     12  C   UNL     1      39.084   8.199  18.085  0.00  0.00    +0.000 A 
ATOM     13  C   UNL     1      38.601   7.253  17.214  0.00  0.00    +0.000 A 
BRANCH   8  15
ATOM     14  C   UNL     1      37.559   3.723  17.527  0.00  0.00    +0.000 C 
ATOM     15  C   UNL     1      38.194   4.825  16.741  0.00  0.00    +0.000 C 
ATOM     16  C   UNL     1      39.249   4.364  15.775  0.00  0.00    +0.000 C 
ENDBRANCH   8  15
ENDBRANCH   5  13
ENDBRANCH   4   6
ENDBRANCH   3   4
ENDBRANCH   1   3
BRANCH   1  17
ATOM     17  C   UNL     1      35.924   6.258  12.770  0.00  0.00    +0.000 C 
BRANCH  17  18
ATOM     18  C   UNL     1      35.816   4.962  13.464  0.00  0.00    +0.000 A 
ATOM     19  C   UNL     1      36.706   3.955  13.130  0.00  0.00    +0.000 A 
ATOM     20  C   UNL     1      36.597   2.744  13.782  0.00  0.00    +0.000 A 
ATOM     21  C   UNL     1      35.658   2.484  14.743  0.00  0.00    +0.000 A 
ATOM     22  C   UNL     1      34.782   3.496  15.062  0.00  0.00    +0.000 A 
ATOM     23  C   UNL     1      34.855   4.726  14.432  0.00  0.00    +0.000 A 
BRANCH  21  24
ATOM     24  C   UNL     1      35.608   1.160  15.394  0.00  0.00    +0.000 A 
ATOM     25  C   UNL     1      34.933   0.975  16.581  0.00  0.00    +0.000 A 
ATOM     26  C   UNL     1      34.881  -0.262  17.205  0.00  0.00    +0.000 A 
ATOM     27  C   UNL     1      35.519  -1.333  16.624  0.00  0.00    +0.000 A 
ATOM     28  C   UNL     1      36.194  -1.136  15.433  0.00  0.00    +0.000 A 
ATOM     29  C   UNL     1      36.244   0.092  14.815  0.00  0.00    +0.000 A 
ENDBRANCH  21  24
ENDBRANCH  17  18
ENDBRANCH   1  17
TORSDOF 8
ENDMDL
MODEL 7
REMARK VINA RESULT:      -7.4      2.323      3.662
REMARK  Name = 
REMARK  8 active torsions:
REMARK  status: ('A' for Active; 'I' for Inactive)
REMARK    1  A    between atoms: C_2  and  C_4
REMARK    2  A    between atoms: C_9  and  N_10
REMARK    3  A    between atoms: C_11  and  C_13
REMARK    4  A    between atoms: C_13  and  O_14
REMARK    5  A    between atoms: O_14  and  C_15
REMARK    6  A    between atoms: C_15  and  C_17
REMARK    7  A    between atoms: C_17  and  C_18
REMARK    8  A    between atoms: C_21  and  C_22
REMARK                            x       y       z     vdW  Elec       q    Type
REMARK                         _______ _______ _______ _____ _____    ______ ____
ROOT
ATOM      1  C   UNL     1      39.341   1.719  13.830  0.00  0.00    +0.000 C 
ATOM      2  O   UNL     1      39.769   1.476  14.969  0.00  0.00    +0.000 OA
ENDROOT
BRANCH   1   3
ATOM      3  O   UNL     1      39.196   0.689  12.925  0.00  0.00    +0.000 OA
BRANCH   3   4
ATOM      4  C   UNL     1      39.459  -0.630  13.322  0.00  0.00    +0.000 C 
BRANCH   4   6
ATOM      5  N   UNL     1      37.074  -0.952  14.128  0.00  0.00    +0.000 NA
ATOM      6  C   UNL     1      38.468  -1.154  14.279  0.00  0.00    +0.000 C 
ATOM      7  O   UNL     1      38.867  -1.803  15.269  0.00  0.00    +0.000 OA
BRANCH   5  13
ATOM      8  C   UNL     1      35.627  -0.596  16.018  0.00  0.00    +0.000 A 
ATOM      9  C   UNL     1      34.710  -1.032  16.953  0.00  0.00    +0.000 A 
ATOM     10  C   UNL     1      34.260  -2.342  16.978  0.00  0.00    +0.000 A 
ATOM     11  C   UNL     1      34.766  -3.205  16.023  0.00  0.00    +0.000 A 
ATOM     12  C   UNL     1      35.680  -2.757  15.094  0.00  0.00    +0.000 A 
ATOM     13  C   UNL     1      36.133  -1.461  15.062  0.00  0.00    +0.000 A 
BRANCH   8  15
ATOM     14  C   UNL     1      36.095   1.362  17.467  0.00  0.00    +0.000 C 
ATOM     15  C   UNL     1      36.052   0.834  16.070  0.00  0.00    +0.000 C 
ATOM     16  C   UNL     1      35.264   1.684  15.114  0.00  0.00    +0.000 C 
ENDBRANCH   8  15
ENDBRANCH   5  13
ENDBRANCH   4   6
ENDBRANCH   3   4
ENDBRANCH   1   3
BRANCH   1  17
ATOM     17  C   UNL     1      38.994   3.116  13.473  0.00  0.00    +0.000 C 
BRANCH  17  18
ATOM     18  C   UNL     1      39.061   3.966  14.675  0.00  0.00    +0.000 A 
ATOM     19  C   UNL     1      38.068   3.840  15.632  0.00  0.00    +0.000 A 
ATOM     20  C   UNL     1      38.135   4.642  16.754  0.00  0.00    +0.000 A 
ATOM     21  C   UNL     1      39.132   5.554  16.972  0.00  0.00    +0.000 A 
ATOM     22  C   UNL     1      40.110   5.665  16.010  0.00  0.00    +0.000 A 
ATOM     23  C   UNL     1      40.081   4.882  14.870  0.00  0.00    +0.000 A 
BRANCH  21  24
ATOM     24  C   UNL     1      39.132   6.374  18.199  0.00  0.00    +0.000 A 
ATOM     25  C   UNL     1      38.193   7.362  18.396  0.00  0.00    +0.000 A 
ATOM     26  C   UNL     1      38.184   8.142  19.543  0.00  0.00    +0.000 A 
ATOM     27  C   UNL     1      39.137   7.923  20.510  0.00  0.00    +0.000 A 
ATOM     28  C   UNL     1      40.076   6.929  20.302  0.00  0.00    +0.000 A 
ATOM     29  C   UNL     1      40.083   6.156  19.163  0.00  0.00    +0.000 A 
ENDBRANCH  21  24
ENDBRANCH  17  18
ENDBRANCH   1  17
TORSDOF 8
ENDMDL
MODEL 8
REMARK VINA RESULT:      -7.3      2.298      8.816
REMARK  Name = 
REMARK  8 active torsions:
REMARK  status: ('A' for Active; 'I' for Inactive)
REMARK    1  A    between atoms: C_2  and  C_4
REMARK    2  A    between atoms: C_9  and  N_10
REMARK    3  A    between atoms: C_11  and  C_13
REMARK    4  A    between atoms: C_13  and  O_14
REMARK    5  A    between atoms: O_14  and  C_15
REMARK    6  A    between atoms: C_15  and  C_17
REMARK    7  A    between atoms: C_17  and  C_18
REMARK    8  A    between atoms: C_21  and  C_22
REMARK                            x       y       z     vdW  Elec       q    Type
REMARK                         _______ _______ _______ _____ _____    ______ ____
ROOT
ATOM      1  C   UNL     1      35.692   4.036  14.599  0.00  0.00    +0.000 C 
ATOM      2  O   UNL     1      35.707   4.388  13.409  0.00  0.00    +0.000 OA
ENDROOT
BRANCH   1   3
ATOM      3  O   UNL     1      36.582   4.602  15.485  0.00  0.00    +0.000 OA
BRANCH   3   4
ATOM      4  C   UNL     1      37.961   4.441  15.288  0.00  0.00    +0.000 C 
BRANCH   4   6
ATOM      5  N   UNL     1      39.684   5.842  16.519  0.00  0.00    +0.000 NA
ATOM      6  C   UNL     1      38.758   4.770  16.484  0.00  0.00    +0.000 C 
ATOM      7  O   UNL     1      38.616   4.079  17.515  0.00  0.00    +0.000 OA
BRANCH   5  13
ATOM      8  C   UNL     1      41.718   6.663  17.509  0.00  0.00    +0.000 A 
ATOM      9  C   UNL     1      42.506   6.974  18.598  0.00  0.00    +0.000 A 
ATOM     10  C   UNL     1      42.065   6.783  19.898  0.00  0.00    +0.000 A 
ATOM     11  C   UNL     1      40.795   6.264  20.066  0.00  0.00    +0.000 A 
ATOM     12  C   UNL     1      40.016   5.957  18.971  0.00  0.00    +0.000 A 
ATOM     13  C   UNL     1      40.445   6.143  17.679  0.00  0.00    +0.000 A 
BRANCH   8  15
ATOM     14  C   UNL     1      43.746   6.625  16.081  0.00  0.00    +0.000 C 
ATOM     15  C   UNL     1      42.279   6.905  16.148  0.00  0.00    +0.000 C 
ATOM     16  C   UNL     1      41.884   8.253  15.614  0.00  0.00    +0.000 C 
ENDBRANCH   8  15
ENDBRANCH   5  13
ENDBRANCH   4   6
ENDBRANCH   3   4
ENDBRANCH   1   3
BRANCH   1  17
ATOM     17  C   UNL     1      34.711   3.012  15.035  0.00  0.00    +0.000 C 
BRANCH  17  18
ATOM     18  C   UNL     1      35.423   1.860  15.617  0.00  0.00    +0.000 A 
ATOM     19  C   UNL     1      35.272   1.602  16.969  0.00  0.00    +0.000 A 
ATOM     20  C   UNL     1      35.943   0.523  17.508  0.00  0.00    +0.000 A 
ATOM     21  C   UNL     1      36.749  -0.307  16.776  0.00  0.00    +0.000 A 
ATOM     22  C   UNL     1      36.886  -0.036  15.434  0.00  0.00    +0.000 A 
ATOM     23  C   UNL     1      36.232   1.036  14.854  0.00  0.00    +0.000 A 
BRANCH  21  24
ATOM     24  C   UNL     1      37.432  -1.442  17.428  0.00  0.00    +0.000 A 
ATOM     25  C   UNL     1      38.114  -2.384  16.687  0.00  0.00    +0.000 A 
ATOM     26  C   UNL     1      38.757  -3.456  17.287  0.00  0.00    +0.000 A 
ATOM     27  C   UNL     1      38.715  -3.584  18.656  0.00  0.00    +0.000 A 
ATOM     28  C   UNL     1      38.028  -2.634  19.389  0.00  0.00    +0.000 A 
ATOM     29  C   UNL     1      37.390  -1.569  18.793  0.00  0.00    +0.000 A 
ENDBRANCH  21  24
ENDBRANCH  17  18
ENDBRANCH   1  17
TORSDOF 8
ENDMDL
MODEL 9
REMARK VINA RESULT:      -7.2      5.509      9.210
REMARK  Name = 
REMARK  8 active torsions:
REMARK  status: ('A' for Active; 'I' for Inactive)
REMARK    1  A    between atoms: C_2  and  C_4
REMARK    2  A    between atoms: C_9  and  N_10
REMARK    3  A    between atoms: C_11  and  C_13
REMARK    4  A    between atoms: C_13  and  O_14
REMARK    5  A    between atoms: O_14  and  C_15
REMARK    6  A    between atoms: C_15  and  C_17
REMARK    7  A    between atoms: C_17  and  C_18
REMARK    8  A    between atoms: C_21  and  C_22
REMARK                            x       y       z     vdW  Elec       q    Type
REMARK                         _______ _______ _______ _____ _____    ______ ____
ROOT
ATOM      1  C   UNL     1      44.628   9.570  21.120  0.00  0.00    +0.000 C 
ATOM      2  O   UNL     1      45.438  10.367  20.623  0.00  0.00    +0.000 OA
ENDROOT
BRANCH   1   3
ATOM      3  O   UNL     1      43.551  10.053  21.833  0.00  0.00    +0.000 OA
BRANCH   3   4
ATOM      4  C   UNL     1      42.820  11.143  21.341  0.00  0.00    +0.000 C 
BRANCH   4   6
ATOM      5  N   UNL     1      41.103   9.742  20.102  0.00  0.00    +0.000 NA
ATOM      6  C   UNL     1      41.431  10.795  20.992  0.00  0.00    +0.000 C 
ATOM      7  O   UNL     1      40.497  11.453  21.497  0.00  0.00    +0.000 OA
BRANCH   5  13
ATOM      8  C   UNL     1      39.340   9.616  18.468  0.00  0.00    +0.000 A 
ATOM      9  C   UNL     1      38.045   9.325  18.090  0.00  0.00    +0.000 A 
ATOM     10  C   UNL     1      37.115   8.831  18.989  0.00  0.00    +0.000 A 
ATOM     11  C   UNL     1      37.533   8.638  20.293  0.00  0.00    +0.000 A 
ATOM     12  C   UNL     1      38.829   8.932  20.660  0.00  0.00    +0.000 A 
ATOM     13  C   UNL     1      39.758   9.422  19.775  0.00  0.00    +0.000 A 
BRANCH   8  15
ATOM     14  C   UNL     1      40.134  11.619  17.240  0.00  0.00    +0.000 C 
ATOM     15  C   UNL     1      40.271  10.143  17.428  0.00  0.00    +0.000 C 
ATOM     16  C   UNL     1      40.191   9.349  16.155  0.00  0.00    +0.000 C 
ENDBRANCH   8  15
ENDBRANCH   5  13
ENDBRANCH   4   6
ENDBRANCH   3   4
ENDBRANCH   1   3
BRANCH   1  17
ATOM     17  C   UNL     1      44.840   8.115  20.931  0.00  0.00    +0.000 C 
BRANCH  17  18
ATOM     18  C   UNL     1      43.690   7.534  20.214  0.00  0.00    +0.000 A 
ATOM     19  C   UNL     1      43.602   7.718  18.844  0.00  0.00    +0.000 A 
ATOM     20  C   UNL     1      42.521   7.173  18.180  0.00  0.00    +0.000 A 
ATOM     21  C   UNL     1      41.533   6.460  18.803  0.00  0.00    +0.000 A 
ATOM     22  C   UNL     1      41.638   6.288  20.164  0.00  0.00    +0.000 A 
ATOM     23  C   UNL     1      42.704   6.817  20.869  0.00  0.00    +0.000 A 
BRANCH  21  24
ATOM     24  C   UNL     1      40.408   5.910  18.020  0.00  0.00    +0.000 A 
ATOM     25  C   UNL     1      40.455   5.861  16.644  0.00  0.00    +0.000 A 
ATOM     26  C   UNL     1      39.405   5.349  15.897  0.00  0.00    +0.000 A 
ATOM     27  C   UNL     1      38.287   4.878  16.546  0.00  0.00    +0.000 A 
ATOM     28  C   UNL     1      38.251   4.933  17.927  0.00  0.00    +0.000 A 
ATOM     29  C   UNL     1      39.294   5.440  18.667  0.00  0.00    +0.000 A 
ENDBRANCH  21  24
ENDBRANCH  17  18
ENDBRANCH   1  17
TORSDOF 8
ENDMDL
MODEL 10
REMARK VINA RESULT:      -7.1      6.794     11.885
REMARK  Name = 
REMARK  8 active torsions:
REMARK  status: ('A' for Active; 'I' for Inactive)
REMARK    1  A    between atoms: C_2  and  C_4
REMARK    2  A    between atoms: C_9  and  N_10
REMARK    3  A    between atoms: C_11  and  C_13
REMARK    4  A    between atoms: C_13  and  O_14
REMARK    5  A    between atoms: O_14  and  C_15
REMARK    6  A    between atoms: C_15  and  C_17
REMARK    7  A    between atoms: C_17  and  C_18
REMARK    8  A    between atoms: C_21  and  C_22
REMARK                            x       y       z     vdW  Elec       q    Type
REMARK                         _______ _______ _______ _____ _____    ______ ____
ROOT
ATOM      1  C   UNL     1      45.341   6.589  24.575  0.00  0.00    +0.000 C 
ATOM      2  O   UNL     1      46.193   5.698  24.713  0.00  0.00    +0.000 OA
ENDROOT
BRANCH   1   3
ATOM      3  O   UNL     1      44.273   6.648  25.444  0.00  0.00    +0.000 OA
BRANCH   3   4
ATOM      4  C   UNL     1      44.433   6.238  26.775  0.00  0.00    +0.000 C 
BRANCH   4   6
ATOM      5  N   UNL     1      42.754   6.649  28.635  0.00  0.00    +0.000 NA
ATOM      6  C   UNL     1      43.153   5.972  27.455  0.00  0.00    +0.000 C 
ATOM      7  O   UNL     1      42.381   5.113  26.979  0.00  0.00    +0.000 OA
BRANCH   5  13
ATOM      8  C   UNL     1      41.473   5.343  30.197  0.00  0.00    +0.000 A 
ATOM      9  C   UNL     1      40.300   5.031  30.854  0.00  0.00    +0.000 A 
ATOM     10  C   UNL     1      39.127   5.732  30.628  0.00  0.00    +0.000 A 
ATOM     11  C   UNL     1      39.173   6.766  29.710  0.00  0.00    +0.000 A 
ATOM     12  C   UNL     1      40.351   7.069  29.060  0.00  0.00    +0.000 A 
ATOM     13  C   UNL     1      41.518   6.379  29.279  0.00  0.00    +0.000 A 
BRANCH   8  15
ATOM     14  C   UNL     1      42.435   3.064  30.376  0.00  0.00    +0.000 C 
ATOM     15  C   UNL     1      42.686   4.531  30.508  0.00  0.00    +0.000 C 
ATOM     16  C   UNL     1      43.305   4.935  31.816  0.00  0.00    +0.000 C 
ENDBRANCH   8  15
ENDBRANCH   5  13
ENDBRANCH   4   6
ENDBRANCH   3   4
ENDBRANCH   1   3
BRANCH   1  17
ATOM     17  C   UNL     1      45.496   7.569  23.473  0.00  0.00    +0.000 C 
BRANCH  17  18
ATOM     18  C   UNL     1      44.454   7.342  22.456  0.00  0.00    +0.000 A 
ATOM     19  C   UNL     1      44.122   6.038  22.127  0.00  0.00    +0.000 A 
ATOM     20  C   UNL     1      43.147   5.834  21.171  0.00  0.00    +0.000 A 
ATOM     21  C   UNL     1      42.489   6.850  20.533  0.00  0.00    +0.000 A 
ATOM     22  C   UNL     1      42.832   8.138  20.873  0.00  0.00    +0.000 A 
ATOM     23  C   UNL     1      43.804   8.389  21.825  0.00  0.00    +0.000 A 
BRANCH  21  24
ATOM     24  C   UNL     1      41.456   6.547  19.522  0.00  0.00    +0.000 A 
ATOM     25  C   UNL     1      40.136   6.379  19.880  0.00  0.00    +0.000 A 
ATOM     26  C   UNL     1      39.157   6.090  18.941  0.00  0.00    +0.000 A 
ATOM     27  C   UNL     1      39.512   5.969  17.618  0.00  0.00    +0.000 A 
ATOM     28  C   UNL     1      40.840   6.138  17.270  0.00  0.00    +0.000 A 
ATOM     29  C   UNL     1      41.810   6.425  18.203  0.00  0.00    +0.000 A 
ENDBRANCH  21  24
ENDBRANCH  17  18
ENDBRANCH   1  17
TORSDOF 8
ENDMDL
