MODEL 1
REMARK VINA RESULT:      -6.8      0.000      0.000
REMARK  Name = 
REMARK  5 active torsions:
REMARK  status: ('A' for Active; 'I' for Inactive)
REMARK    1  A    between atoms: C_2  and  C_3
REMARK    2  A    between atoms: C_3  and  C_5
REMARK    3  A    between atoms: C_3  and  O_7
REMARK    4  A    between atoms: O_7  and  C_8
REMARK    5  A    between atoms: C_11  and  C_13
REMARK                            x       y       z     vdW  Elec       q    Type
REMARK                         _______ _______ _______ _____ _____    ______ ____
ROOT
ATOM      1  C   UNL     1      17.305  10.357  35.163  0.00  0.00    +0.000 C 
ATOM      2  O   UNL     1      17.071   9.157  34.864  0.00  0.00    +0.000 OA
ATOM      3  N   UNL     1      16.715  11.456  34.470  0.00  0.00    +0.000 NA
ATOM      4  C   UNL     1      15.826  11.169  33.400  0.00  0.00    +0.000 C 
ATOM      5  O   UNL     1      15.592   9.969  33.104  0.00  0.00    +0.000 OA
ENDROOT
BRANCH   4   6
ATOM      6  C   UNL     1      15.169  12.221  32.626  0.00  0.00    +0.000 A 
ATOM      7  C   UNL     1      14.299  13.107  33.225  0.00  0.00    +0.000 A 
ATOM      8  C   UNL     1      13.673  14.106  32.504  0.00  0.00    +0.000 A 
ATOM      9  C   UNL     1      13.892  14.260  31.150  0.00  0.00    +0.000 A 
ATOM     10  C   UNL     1      14.762  13.377  30.543  0.00  0.00    +0.000 A 
ATOM     11  C   UNL     1      15.387  12.377  31.273  0.00  0.00    +0.000 A 
ATOM     12  F   UNL     1      16.231  11.533  30.646  0.00  0.00    +0.000 F 
ENDBRANCH   4   6
BRANCH   1  13
ATOM     13  O   UNL     1      18.193  10.554  36.229  0.00  0.00    +0.000 OA
BRANCH  13  14
ATOM     14  C   UNL     1      17.780  11.179  37.425  0.00  0.00    +0.000 C 
ATOM     15  C   UNL     1      17.440  12.638  37.217  0.00  0.00    +0.000 C 
BRANCH  14  17
ATOM     16  C   UNL     1      19.830  11.091  39.133  0.00  0.00    +0.000 C 
ATOM     17  C   UNL     1      18.904  11.126  38.365  0.00  0.00    +0.000 C 
ENDBRANCH  14  17
BRANCH  14  18
ATOM     18  C   UNL     1      16.607  10.503  38.067  0.00  0.00    +0.000 C 
ATOM     19  C   UNL     1      15.329  11.288  37.912  0.00  0.00    +0.000 C 
ENDBRANCH  14  18
ENDBRANCH  13  14
ENDBRANCH   1  13
TORSDOF 5
ENDMDL
MODEL 2
REMARK VINA RESULT:      -6.8      1.712      2.502
REMARK  Name = 
REMARK  5 active torsions:
REMARK  status: ('A' for Active; 'I' for Inactive)
REMARK    1  A    between atoms: C_2  and  C_3
REMARK    2  A    between atoms: C_3  and  C_5
REMARK    3  A    between atoms: C_3  and  O_7
REMARK    4  A    between atoms: O_7  and  C_8
REMARK    5  A    between atoms: C_11  and  C_13
REMARK                            x       y       z     vdW  Elec       q    Type
REMARK                         _______ _______ _______ _____ _____    ______ ____
ROOT
ATOM      1  C   UNL     1      16.529  11.685  36.791  0.00  0.00    +0.000 C 
ATOM      2  O   UNL     1      15.572  11.457  37.577  0.00  0.00    +0.000 OA
ATOM      3  N   UNL     1      16.340  12.060  35.428  0.00  0.00    +0.000 NA
ATOM      4  C   UNL     1      15.007  12.179  34.950  0.00  0.00    +0.000 C 
ATOM      5  O   UNL     1      14.052  11.952  35.735  0.00  0.00    +0.000 OA
ENDROOT
BRANCH   4   6
ATOM      6  C   UNL     1      14.704  12.558  33.570  0.00  0.00    +0.000 A 
ATOM      7  C   UNL     1      13.972  13.691  33.288  0.00  0.00    +0.000 A 
ATOM      8  C   UNL     1      13.680  14.059  31.988  0.00  0.00    +0.000 A 
ATOM      9  C   UNL     1      14.109  13.306  30.915  0.00  0.00    +0.000 A 
ATOM     10  C   UNL     1      14.842  12.169  31.189  0.00  0.00    +0.000 A 
ATOM     11  C   UNL     1      15.133  11.807  32.496  0.00  0.00    +0.000 A 
ATOM     12  F   UNL     1      15.852  10.689  32.725  0.00  0.00    +0.000 F 
ENDBRANCH   4   6
BRANCH   1  13
ATOM     13  O   UNL     1      17.810  11.545  37.342  0.00  0.00    +0.000 OA
BRANCH  13  14
ATOM     14  C   UNL     1      18.405  10.277  37.509  0.00  0.00    +0.000 C 
ATOM     15  C   UNL     1      19.913  10.360  37.591  0.00  0.00    +0.000 C 
BRANCH  14  17
ATOM     16  C   UNL     1      17.809   8.809  35.361  0.00  0.00    +0.000 C 
ATOM     17  C   UNL     1      18.079   9.474  36.326  0.00  0.00    +0.000 C 
ENDBRANCH  14  17
BRANCH  14  18
ATOM     18  C   UNL     1      17.902   9.546  38.716  0.00  0.00    +0.000 C 
ATOM     19  C   UNL     1      18.875   9.588  39.868  0.00  0.00    +0.000 C 
ENDBRANCH  14  18
ENDBRANCH  13  14
ENDBRANCH   1  13
TORSDOF 5
ENDMDL
MODEL 3
REMARK VINA RESULT:      -6.6      1.935      2.457
REMARK  Name = 
REMARK  5 active torsions:
REMARK  status: ('A' for Active; 'I' for Inactive)
REMARK    1  A    between atoms: C_2  and  C_3
REMARK    2  A    between atoms: C_3  and  C_5
REMARK    3  A    between atoms: C_3  and  O_7
REMARK    4  A    between atoms: O_7  and  C_8
REMARK    5  A    between atoms: C_11  and  C_13
REMARK                            x       y       z     vdW  Elec       q    Type
REMARK                         _______ _______ _______ _____ _____    ______ ____
ROOT
ATOM      1  C   UNL     1      16.906  10.537  35.927  0.00  0.00    +0.000 C 
ATOM      2  O   UNL     1      16.120  10.565  36.911  0.00  0.00    +0.000 OA
ATOM      3  N   UNL     1      16.576  11.097  34.657  0.00  0.00    +0.000 NA
ATOM      4  C   UNL     1      15.303  11.711  34.511  0.00  0.00    +0.000 C 
ATOM      5  O   UNL     1      14.520  11.739  35.494  0.00  0.00    +0.000 OA
ENDROOT
BRANCH   4   6
ATOM      6  C   UNL     1      14.867  12.315  33.252  0.00  0.00    +0.000 A 
ATOM      7  C   UNL     1      15.164  11.728  32.042  0.00  0.00    +0.000 A 
ATOM      8  C   UNL     1      14.756  12.289  30.846  0.00  0.00    +0.000 A 
ATOM      9  C   UNL     1      14.033  13.463  30.813  0.00  0.00    +0.000 A 
ATOM     10  C   UNL     1      13.731  14.057  32.021  0.00  0.00    +0.000 A 
ATOM     11  C   UNL     1      14.143  13.488  33.218  0.00  0.00    +0.000 A 
ATOM     12  F   UNL     1      13.829  14.097  34.379  0.00  0.00    +0.000 F 
ENDBRANCH   4   6
BRANCH   1  13
ATOM     13  O   UNL     1      18.140   9.913  36.155  0.00  0.00    +0.000 OA
BRANCH  13  14
ATOM     14  C   UNL     1      18.907  10.199  37.304  0.00  0.00    +0.000 C 
ATOM     15  C   UNL     1      18.790  11.647  37.723  0.00  0.00    +0.000 C 
BRANCH  14  17
ATOM     16  C   UNL     1      21.469   9.768  36.688  0.00  0.00    +0.000 C 
ATOM     17  C   UNL     1      20.314   9.958  36.969  0.00  0.00    +0.000 C 
ENDBRANCH  14  17
BRANCH  14  18
ATOM     18  C   UNL     1      18.556   9.334  38.475  0.00  0.00    +0.000 C 
ATOM     19  C   UNL     1      19.019   9.917  39.787  0.00  0.00    +0.000 C 
ENDBRANCH  14  18
ENDBRANCH  13  14
ENDBRANCH   1  13
TORSDOF 5
ENDMDL
MODEL 4
REMARK VINA RESULT:      -5.7     19.289     20.904
REMARK  Name = 
REMARK  5 active torsions:
REMARK  status: ('A' for Active; 'I' for Inactive)
REMARK    1  A    between atoms: C_2  and  C_3
REMARK    2  A    between atoms: C_3  and  C_5
REMARK    3  A    between atoms: C_3  and  O_7
REMARK    4  A    between atoms: O_7  and  C_8
REMARK    5  A    between atoms: C_11  and  C_13
REMARK                            x       y       z     vdW  Elec       q    Type
REMARK                         _______ _______ _______ _____ _____    ______ ____
ROOT
ATOM      1  C   UNL     1      33.515   0.833  36.161  0.00  0.00    +0.000 C 
ATOM      2  O   UNL     1      33.607   0.494  37.371  0.00  0.00    +0.000 OA
ATOM      3  N   UNL     1      33.922   2.114  35.684  0.00  0.00    +0.000 NA
ATOM      4  C   UNL     1      34.453   3.038  36.624  0.00  0.00    +0.000 C 
ATOM      5  O   UNL     1      34.544   2.698  37.831  0.00  0.00    +0.000 OA
ENDROOT
BRANCH   4   6
ATOM      6  C   UNL     1      34.898   4.376  36.238  0.00  0.00    +0.000 A 
ATOM      7  C   UNL     1      36.239   4.673  36.121  0.00  0.00    +0.000 A 
ATOM      8  C   UNL     1      36.671   5.934  35.756  0.00  0.00    +0.000 A 
ATOM      9  C   UNL     1      35.778   6.952  35.495  0.00  0.00    +0.000 A 
ATOM     10  C   UNL     1      34.434   6.663  35.610  0.00  0.00    +0.000 A 
ATOM     11  C   UNL     1      34.007   5.394  35.975  0.00  0.00    +0.000 A 
ATOM     12  F   UNL     1      32.685   5.148  36.078  0.00  0.00    +0.000 F 
ENDBRANCH   4   6
BRANCH   1  13
ATOM     13  O   UNL     1      32.982  -0.136  35.300  0.00  0.00    +0.000 OA
BRANCH  13  14
ATOM     14  C   UNL     1      33.815  -0.969  34.524  0.00  0.00    +0.000 C 
ATOM     15  C   UNL     1      35.121  -1.279  35.221  0.00  0.00    +0.000 C 
BRANCH  14  17
ATOM     16  C   UNL     1      34.414   0.359  32.287  0.00  0.00    +0.000 C 
ATOM     17  C   UNL     1      34.144  -0.244  33.293  0.00  0.00    +0.000 C 
ENDBRANCH  14  17
BRANCH  14  18
ATOM     18  C   UNL     1      33.161  -2.261  34.140  0.00  0.00    +0.000 C 
ATOM     19  C   UNL     1      32.014  -2.623  35.049  0.00  0.00    +0.000 C 
ENDBRANCH  14  18
ENDBRANCH  13  14
ENDBRANCH   1  13
TORSDOF 5
ENDMDL
MODEL 5
REMARK VINA RESULT:      -5.5     18.501     20.242
REMARK  Name = 
REMARK  5 active torsions:
REMARK  status: ('A' for Active; 'I' for Inactive)
REMARK    1  A    between atoms: C_2  and  C_3
REMARK    2  A    between atoms: C_3  and  C_5
REMARK    3  A    between atoms: C_3  and  O_7
REMARK    4  A    between atoms: O_7  and  C_8
REMARK    5  A    between atoms: C_11  and  C_13
REMARK                            x       y       z     vdW  Elec       q    Type
REMARK                         _______ _______ _______ _____ _____    ______ ____
ROOT
ATOM      1  C   UNL     1      27.455  23.555  23.218  0.00  0.00    +0.000 C 
ATOM      2  O   UNL     1      26.433  23.050  22.683  0.00  0.00    +0.000 OA
ATOM      3  N   UNL     1      27.595  23.707  24.630  0.00  0.00    +0.000 NA
ATOM      4  C   UNL     1      26.528  23.265  25.456  0.00  0.00    +0.000 C 
ATOM      5  O   UNL     1      25.508  22.761  24.921  0.00  0.00    +0.000 OA
ENDROOT
BRANCH   4   6
ATOM      6  C   UNL     1      26.571  23.375  26.913  0.00  0.00    +0.000 A 
ATOM      7  C   UNL     1      25.698  24.200  27.590  0.00  0.00    +0.000 A 
ATOM      8  C   UNL     1      25.729  24.312  28.967  0.00  0.00    +0.000 A 
ATOM      9  C   UNL     1      26.637  23.602  29.725  0.00  0.00    +0.000 A 
ATOM     10  C   UNL     1      27.513  22.773  29.056  0.00  0.00    +0.000 A 
ATOM     11  C   UNL     1      27.476  22.665  27.673  0.00  0.00    +0.000 A 
ATOM     12  F   UNL     1      28.349  21.845  27.053  0.00  0.00    +0.000 F 
ENDBRANCH   4   6
BRANCH   1  13
ATOM     13  O   UNL     1      28.461  23.965  22.333  0.00  0.00    +0.000 OA
BRANCH  13  14
ATOM     14  C   UNL     1      28.696  25.331  22.067  0.00  0.00    +0.000 C 
ATOM     15  C   UNL     1      29.383  25.543  20.737  0.00  0.00    +0.000 C 
BRANCH  14  17
ATOM     16  C   UNL     1      30.337  26.244  23.965  0.00  0.00    +0.000 C 
ATOM     17  C   UNL     1      29.598  25.837  23.106  0.00  0.00    +0.000 C 
ENDBRANCH  14  17
BRANCH  14  18
ATOM     18  C   UNL     1      27.447  26.158  22.096  0.00  0.00    +0.000 C 
ATOM     19  C   UNL     1      27.678  27.573  21.629  0.00  0.00    +0.000 C 
ENDBRANCH  14  18
ENDBRANCH  13  14
ENDBRANCH   1  13
TORSDOF 5
ENDMDL
MODEL 6
REMARK VINA RESULT:      -5.5     18.548     20.233
REMARK  Name = 
REMARK  5 active torsions:
REMARK  status: ('A' for Active; 'I' for Inactive)
REMARK    1  A    between atoms: C_2  and  C_3
REMARK    2  A    between atoms: C_3  and  C_5
REMARK    3  A    between atoms: C_3  and  O_7
REMARK    4  A    between atoms: O_7  and  C_8
REMARK    5  A    between atoms: C_11  and  C_13
REMARK                            x       y       z     vdW  Elec       q    Type
REMARK                         _______ _______ _______ _____ _____    ______ ____
ROOT
ATOM      1  C   UNL     1      27.075  24.664  23.810  0.00  0.00    +0.000 C 
ATOM      2  O   UNL     1      26.451  23.773  23.174  0.00  0.00    +0.000 OA
ATOM      3  N   UNL     1      27.133  24.700  25.235  0.00  0.00    +0.000 NA
ATOM      4  C   UNL     1      26.456  23.680  25.955  0.00  0.00    +0.000 C 
ATOM      5  O   UNL     1      25.834  22.791  25.319  0.00  0.00    +0.000 OA
ENDROOT
BRANCH   4   6
ATOM      6  C   UNL     1      26.454  23.626  27.416  0.00  0.00    +0.000 A 
ATOM      7  C   UNL     1      25.678  24.490  28.159  0.00  0.00    +0.000 A 
ATOM      8  C   UNL     1      25.668  24.448  29.540  0.00  0.00    +0.000 A 
ATOM      9  C   UNL     1      26.435  23.538  30.237  0.00  0.00    +0.000 A 
ATOM     10  C   UNL     1      27.214  22.669  29.501  0.00  0.00    +0.000 A 
ATOM     11  C   UNL     1      27.220  22.716  28.114  0.00  0.00    +0.000 A 
ATOM     12  F   UNL     1      27.994  21.851  27.428  0.00  0.00    +0.000 F 
ENDBRANCH   4   6
BRANCH   1  13
ATOM     13  O   UNL     1      27.715  25.631  23.024  0.00  0.00    +0.000 OA
BRANCH  13  14
ATOM     14  C   UNL     1      29.108  25.595  22.802  0.00  0.00    +0.000 C 
ATOM     15  C   UNL     1      29.862  26.493  23.757  0.00  0.00    +0.000 C 
BRANCH  14  17
ATOM     16  C   UNL     1      29.550  26.520  20.337  0.00  0.00    +0.000 C 
ATOM     17  C   UNL     1      29.355  26.099  21.447  0.00  0.00    +0.000 C 
ENDBRANCH  14  17
BRANCH  14  18
ATOM     18  C   UNL     1      29.682  24.213  22.892  0.00  0.00    +0.000 C 
ATOM     19  C   UNL     1      30.711  24.084  23.987  0.00  0.00    +0.000 C 
ENDBRANCH  14  18
ENDBRANCH  13  14
ENDBRANCH   1  13
TORSDOF 5
ENDMDL
MODEL 7
REMARK VINA RESULT:      -5.5      2.695      4.366
REMARK  Name = 
REMARK  5 active torsions:
REMARK  status: ('A' for Active; 'I' for Inactive)
REMARK    1  A    between atoms: C_2  and  C_3
REMARK    2  A    between atoms: C_3  and  C_5
REMARK    3  A    between atoms: C_3  and  O_7
REMARK    4  A    between atoms: O_7  and  C_8
REMARK    5  A    between atoms: C_11  and  C_13
REMARK                            x       y       z     vdW  Elec       q    Type
REMARK                         _______ _______ _______ _____ _____    ______ ____
ROOT
ATOM      1  C   UNL     1      19.392   9.793  37.881  0.00  0.00    +0.000 C 
ATOM      2  O   UNL     1      18.801   9.723  38.990  0.00  0.00    +0.000 OA
ATOM      3  N   UNL     1      18.738  10.198  36.679  0.00  0.00    +0.000 NA
ATOM      4  C   UNL     1      17.360  10.536  36.753  0.00  0.00    +0.000 C 
ATOM      5  O   UNL     1      16.771  10.466  37.862  0.00  0.00    +0.000 OA
ENDROOT
BRANCH   4   6
ATOM      6  C   UNL     1      16.597  10.964  35.582  0.00  0.00    +0.000 A 
ATOM      7  C   UNL     1      15.648  11.958  35.675  0.00  0.00    +0.000 A 
ATOM      8  C   UNL     1      14.921  12.371  34.574  0.00  0.00    +0.000 A 
ATOM      9  C   UNL     1      15.114  11.803  33.332  0.00  0.00    +0.000 A 
ATOM     10  C   UNL     1      16.063  10.806  33.230  0.00  0.00    +0.000 A 
ATOM     11  C   UNL     1      16.790  10.398  34.339  0.00  0.00    +0.000 A 
ATOM     12  F   UNL     1      17.709   9.421  34.201  0.00  0.00    +0.000 F 
ENDBRANCH   4   6
BRANCH   1  13
ATOM     13  O   UNL     1      20.749   9.443  37.895  0.00  0.00    +0.000 OA
BRANCH  13  14
ATOM     14  C   UNL     1      21.758  10.415  38.063  0.00  0.00    +0.000 C 
ATOM     15  C   UNL     1      21.194  11.817  38.130  0.00  0.00    +0.000 C 
BRANCH  14  17
ATOM     16  C   UNL     1      23.344  10.301  35.918  0.00  0.00    +0.000 C 
ATOM     17  C   UNL     1      22.632  10.356  36.888  0.00  0.00    +0.000 C 
ENDBRANCH  14  17
BRANCH  14  18
ATOM     18  C   UNL     1      22.602  10.182  39.279  0.00  0.00    +0.000 C 
ATOM     19  C   UNL     1      23.008   8.738  39.435  0.00  0.00    +0.000 C 
ENDBRANCH  14  18
ENDBRANCH  13  14
ENDBRANCH   1  13
TORSDOF 5
ENDMDL
MODEL 8
REMARK VINA RESULT:      -5.5     17.605     18.439
REMARK  Name = 
REMARK  5 active torsions:
REMARK  status: ('A' for Active; 'I' for Inactive)
REMARK    1  A    between atoms: C_2  and  C_3
REMARK    2  A    between atoms: C_3  and  C_5
REMARK    3  A    between atoms: C_3  and  O_7
REMARK    4  A    between atoms: O_7  and  C_8
REMARK    5  A    between atoms: C_11  and  C_13
REMARK                            x       y       z     vdW  Elec       q    Type
REMARK                         _______ _______ _______ _____ _____    ______ ____
ROOT
ATOM      1  C   UNL     1      29.618  23.161  27.912  0.00  0.00    +0.000 C 
ATOM      2  O   UNL     1      30.509  22.273  27.847  0.00  0.00    +0.000 OA
ATOM      3  N   UNL     1      28.853  23.575  26.781  0.00  0.00    +0.000 NA
ATOM      4  C   UNL     1      29.119  22.949  25.533  0.00  0.00    +0.000 C 
ATOM      5  O   UNL     1      30.009  22.063  25.469  0.00  0.00    +0.000 OA
ENDROOT
BRANCH   4   6
ATOM      6  C   UNL     1      28.392  23.300  24.314  0.00  0.00    +0.000 A 
ATOM      7  C   UNL     1      29.050  23.810  23.216  0.00  0.00    +0.000 A 
ATOM      8  C   UNL     1      28.375  24.145  22.057  0.00  0.00    +0.000 A 
ATOM      9  C   UNL     1      27.009  23.983  21.951  0.00  0.00    +0.000 A 
ATOM     10  C   UNL     1      26.342  23.473  23.046  0.00  0.00    +0.000 A 
ATOM     11  C   UNL     1      27.027  23.138  24.205  0.00  0.00    +0.000 A 
ATOM     12  F   UNL     1      26.342  22.642  25.255  0.00  0.00    +0.000 F 
ENDBRANCH   4   6
BRANCH   1  13
ATOM     13  O   UNL     1      29.419  23.726  29.179  0.00  0.00    +0.000 OA
BRANCH  13  14
ATOM     14  C   UNL     1      28.538  23.144  30.115  0.00  0.00    +0.000 C 
ATOM     15  C   UNL     1      27.698  24.180  30.829  0.00  0.00    +0.000 C 
BRANCH  14  17
ATOM     16  C   UNL     1      30.013  21.912  31.967  0.00  0.00    +0.000 C 
ATOM     17  C   UNL     1      29.352  22.471  31.131  0.00  0.00    +0.000 C 
ENDBRANCH  14  17
BRANCH  14  18
ATOM     18  C   UNL     1      27.623  22.125  29.506  0.00  0.00    +0.000 C 
ATOM     19  C   UNL     1      26.485  21.747  30.421  0.00  0.00    +0.000 C 
ENDBRANCH  14  18
ENDBRANCH  13  14
ENDBRANCH   1  13
TORSDOF 5
ENDMDL
MODEL 9
REMARK VINA RESULT:      -5.5     21.799     23.889
REMARK  Name = 
REMARK  5 active torsions:
REMARK  status: ('A' for Active; 'I' for Inactive)
REMARK    1  A    between atoms: C_2  and  C_3
REMARK    2  A    between atoms: C_3  and  C_5
REMARK    3  A    between atoms: C_3  and  O_7
REMARK    4  A    between atoms: O_7  and  C_8
REMARK    5  A    between atoms: C_11  and  C_13
REMARK                            x       y       z     vdW  Elec       q    Type
REMARK                         _______ _______ _______ _____ _____    ______ ____
ROOT
ATOM      1  C   UNL     1      33.613  -5.316  32.954  0.00  0.00    +0.000 C 
ATOM      2  O   UNL     1      34.053  -5.817  34.022  0.00  0.00    +0.000 OA
ATOM      3  N   UNL     1      33.382  -3.918  32.793  0.00  0.00    +0.000 NA
ATOM      4  C   UNL     1      33.666  -3.065  33.893  0.00  0.00    +0.000 C 
ATOM      5  O   UNL     1      34.105  -3.567  34.959  0.00  0.00    +0.000 OA
ENDROOT
BRANCH   4   6
ATOM      6  C   UNL     1      33.464  -1.618  33.833  0.00  0.00    +0.000 A 
ATOM      7  C   UNL     1      34.225  -0.828  32.999  0.00  0.00    +0.000 A 
ATOM      8  C   UNL     1      34.043   0.540  32.933  0.00  0.00    +0.000 A 
ATOM      9  C   UNL     1      33.088   1.175  33.700  0.00  0.00    +0.000 A 
ATOM     10  C   UNL     1      32.321   0.391  34.537  0.00  0.00    +0.000 A 
ATOM     11  C   UNL     1      32.509  -0.982  34.598  0.00  0.00    +0.000 A 
ATOM     12  F   UNL     1      31.740  -1.716  35.427  0.00  0.00    +0.000 F 
ENDBRANCH   4   6
BRANCH   1  13
ATOM     13  O   UNL     1      33.360  -6.226  31.918  0.00  0.00    +0.000 OA
BRANCH  13  14
ATOM     14  C   UNL     1      34.377  -6.626  31.025  0.00  0.00    +0.000 C 
ATOM     15  C   UNL     1      35.696  -5.950  31.323  0.00  0.00    +0.000 C 
BRANCH  14  17
ATOM     16  C   UNL     1      33.635  -5.882  28.571  0.00  0.00    +0.000 C 
ATOM     17  C   UNL     1      33.972  -6.213  29.678  0.00  0.00    +0.000 C 
ENDBRANCH  14  17
BRANCH  14  18
ATOM     18  C   UNL     1      34.593  -8.109  31.008  0.00  0.00    +0.000 C 
ATOM     19  C   UNL     1      33.656  -8.843  31.934  0.00  0.00    +0.000 C 
ENDBRANCH  14  18
ENDBRANCH  13  14
ENDBRANCH   1  13
TORSDOF 5
ENDMDL
MODEL 10
REMARK VINA RESULT:      -5.5      3.321      5.393
REMARK  Name = 
REMARK  5 active torsions:
REMARK  status: ('A' for Active; 'I' for Inactive)
REMARK    1  A    between atoms: C_2  and  C_3
REMARK    2  A    between atoms: C_3  and  C_5
REMARK    3  A    between atoms: C_3  and  O_7
REMARK    4  A    between atoms: O_7  and  C_8
REMARK    5  A    between atoms: C_11  and  C_13
REMARK                            x       y       z     vdW  Elec       q    Type
REMARK                         _______ _______ _______ _____ _____    ______ ____
ROOT
ATOM      1  C   UNL     1      20.558  10.368  38.468  0.00  0.00    +0.000 C 
ATOM      2  O   UNL     1      20.447   9.210  38.951  0.00  0.00    +0.000 OA
ATOM      3  N   UNL     1      19.521  10.996  37.717  0.00  0.00    +0.000 NA
ATOM      4  C   UNL     1      18.315  10.273  37.514  0.00  0.00    +0.000 C 
ATOM      5  O   UNL     1      18.205   9.117  37.997  0.00  0.00    +0.000 OA
ENDROOT
BRANCH   4   6
ATOM      6  C   UNL     1      17.191  10.825  36.759  0.00  0.00    +0.000 A 
ATOM      7  C   UNL     1      16.138  11.442  37.400  0.00  0.00    +0.000 A 
ATOM      8  C   UNL     1      15.071  11.968  36.698  0.00  0.00    +0.000 A 
ATOM      9  C   UNL     1      15.013  11.898  35.321  0.00  0.00    +0.000 A 
ATOM     10  C   UNL     1      16.063  11.283  34.671  0.00  0.00    +0.000 A 
ATOM     11  C   UNL     1      17.132  10.757  35.383  0.00  0.00    +0.000 A 
ATOM     12  F   UNL     1      18.140  10.163  34.714  0.00  0.00    +0.000 F 
ENDBRANCH   4   6
BRANCH   1  13
ATOM     13  O   UNL     1      21.778  11.012  38.715  0.00  0.00    +0.000 OA
BRANCH  13  14
ATOM     14  C   UNL     1      22.937  10.704  37.970  0.00  0.00    +0.000 C 
ATOM     15  C   UNL     1      23.775   9.635  38.635  0.00  0.00    +0.000 C 
BRANCH  14  17
ATOM     16  C   UNL     1      24.423  12.918  37.843  0.00  0.00    +0.000 C 
ATOM     17  C   UNL     1      23.757  11.917  37.903  0.00  0.00    +0.000 C 
ENDBRANCH  14  17
BRANCH  14  18
ATOM     18  C   UNL     1      22.636  10.271  36.568  0.00  0.00    +0.000 C 
ATOM     19  C   UNL     1      23.874   9.867  35.808  0.00  0.00    +0.000 C 
ENDBRANCH  14  18
ENDBRANCH  13  14
ENDBRANCH   1  13
TORSDOF 5
ENDMDL
