MODEL 1
REMARK VINA RESULT:      -7.2      0.000      0.000
REMARK  Name = 
REMARK  3 active torsions:
REMARK  status: ('A' for Active; 'I' for Inactive)
REMARK    1  A    between atoms: C_7  and  N_8
REMARK    2  A    between atoms: N_8  and  N_9
REMARK    3  A    between atoms: C_10  and  C_12
REMARK                            x       y       z     vdW  Elec       q    Type
REMARK                         _______ _______ _______ _____ _____    ______ ____
ROOT
ATOM      1  N   UNL     1      15.253  11.603  34.872  0.00  0.00    +0.000 NA
ATOM      2  C   UNL     1      15.883  12.166  35.986  0.00  0.00    +0.000 C 
ATOM      3  O   UNL     1      15.920  13.416  36.103  0.00  0.00    +0.000 OA
ENDROOT
BRANCH   2   4
ATOM      4  C   UNL     1      16.484  11.293  37.013  0.00  0.00    +0.000 A 
ATOM      5  C   UNL     1      17.852  11.001  36.860  0.00  0.00    +0.000 A 
ATOM      6  C   UNL     1      18.428  10.241  37.841  0.00  0.00    +0.000 A 
ATOM      7  C   UNL     1      17.744   9.767  38.931  0.00  0.00    +0.000 A 
ATOM      8  C   UNL     1      16.416  10.053  39.071  0.00  0.00    +0.000 A 
ATOM      9  C   UNL     1      15.790  10.819  38.101  0.00  0.00    +0.000 A 
ATOM     10 BR   UNL     1      13.916  11.165  38.230  0.00  0.00    +0.000 Br
ENDBRANCH   2   4
BRANCH   1  11
ATOM     11  N   UNL     1      14.707  12.468  33.955  0.00  0.00    +0.000 NA
BRANCH  11  18
ATOM     12  C   UNL     1      13.454  14.454  32.808  0.00  0.00    +0.000 C 
ATOM     13  C   UNL     1      13.906  13.348  31.664  0.00  0.00    +0.000 C 
ATOM     14  C   UNL     1      15.050  14.362  31.021  0.00  0.00    +0.000 C 
ATOM     15  C   UNL     1      15.950  13.567  30.207  0.00  0.00    +0.000 C 
ATOM     16  C   UNL     1      15.933  12.086  30.494  0.00  0.00    +0.000 C 
ATOM     17  C   UNL     1      15.887  11.943  31.979  0.00  0.00    +0.000 C 
ATOM     18  C   UNL     1      14.912  12.549  32.585  0.00  0.00    +0.000 C 
ENDBRANCH  11  18
ENDBRANCH   1  11
TORSDOF 3
ENDMDL
MODEL 2
REMARK VINA RESULT:      -7.0      1.978      3.172
REMARK  Name = 
REMARK  3 active torsions:
REMARK  status: ('A' for Active; 'I' for Inactive)
REMARK    1  A    between atoms: C_7  and  N_8
REMARK    2  A    between atoms: N_8  and  N_9
REMARK    3  A    between atoms: C_10  and  C_12
REMARK                            x       y       z     vdW  Elec       q    Type
REMARK                         _______ _______ _______ _____ _____    ______ ____
ROOT
ATOM      1  N   UNL     1      14.883  11.272  34.713  0.00  0.00    +0.000 NA
ATOM      2  C   UNL     1      14.795  12.008  35.898  0.00  0.00    +0.000 C 
ATOM      3  O   UNL     1      15.397  13.107  35.984  0.00  0.00    +0.000 OA
ENDROOT
BRANCH   2   4
ATOM      4  C   UNL     1      13.993  11.496  37.026  0.00  0.00    +0.000 A 
ATOM      5  C   UNL     1      12.597  11.608  36.899  0.00  0.00    +0.000 A 
ATOM      6  C   UNL     1      11.847  11.082  37.916  0.00  0.00    +0.000 A 
ATOM      7  C   UNL     1      12.388  10.471  39.018  0.00  0.00    +0.000 A 
ATOM      8  C   UNL     1      13.745  10.368  39.134  0.00  0.00    +0.000 A 
ATOM      9  C   UNL     1      14.544  10.889  38.129  0.00  0.00    +0.000 A 
ATOM     10 BR   UNL     1      16.445  10.832  38.305  0.00  0.00    +0.000 Br
ENDBRANCH   2   4
BRANCH   1  11
ATOM     11  N   UNL     1      15.640  11.805  33.697  0.00  0.00    +0.000 NA
BRANCH  11  18
ATOM     12  C   UNL     1      16.214  10.669  31.414  0.00  0.00    +0.000 C 
ATOM     13  C   UNL     1      15.893  12.273  31.170  0.00  0.00    +0.000 C 
ATOM     14  C   UNL     1      14.464  11.953  30.394  0.00  0.00    +0.000 C 
ATOM     15  C   UNL     1      13.683  13.174  30.366  0.00  0.00    +0.000 C 
ATOM     16  C   UNL     1      14.095  14.220  31.372  0.00  0.00    +0.000 C 
ATOM     17  C   UNL     1      14.370  13.496  32.647  0.00  0.00    +0.000 C 
ATOM     18  C   UNL     1      15.242  12.535  32.586  0.00  0.00    +0.000 C 
ENDBRANCH  11  18
ENDBRANCH   1  11
TORSDOF 3
ENDMDL
MODEL 3
REMARK VINA RESULT:      -6.7      1.941      6.560
REMARK  Name = 
REMARK  3 active torsions:
REMARK  status: ('A' for Active; 'I' for Inactive)
REMARK    1  A    between atoms: C_7  and  N_8
REMARK    2  A    between atoms: N_8  and  N_9
REMARK    3  A    between atoms: C_10  and  C_12
REMARK                            x       y       z     vdW  Elec       q    Type
REMARK                         _______ _______ _______ _____ _____    ______ ____
ROOT
ATOM      1  N   UNL     1      16.474  11.939  35.127  0.00  0.00    +0.000 NA
ATOM      2  C   UNL     1      15.179  11.950  34.600  0.00  0.00    +0.000 C 
ATOM      3  O   UNL     1      14.229  11.515  35.299  0.00  0.00    +0.000 OA
ENDROOT
BRANCH   2   4
ATOM      4  C   UNL     1      14.940  12.476  33.243  0.00  0.00    +0.000 A 
ATOM      5  C   UNL     1      15.568  11.790  32.188  0.00  0.00    +0.000 A 
ATOM      6  C   UNL     1      15.301  12.239  30.923  0.00  0.00    +0.000 A 
ATOM      7  C   UNL     1      14.474  13.299  30.654  0.00  0.00    +0.000 A 
ATOM      8  C   UNL     1      13.870  13.961  31.684  0.00  0.00    +0.000 A 
ATOM      9  C   UNL     1      14.112  13.543  32.983  0.00  0.00    +0.000 A 
ATOM     10 BR   UNL     1      13.345  14.502  34.446  0.00  0.00    +0.000 Br
ENDBRANCH   2   4
BRANCH   1  11
ATOM     11  N   UNL     1      16.631  11.442  36.399  0.00  0.00    +0.000 NA
BRANCH  11  18
ATOM     12  C   UNL     1      17.456   9.108  35.562  0.00  0.00    +0.000 C 
ATOM     13  C   UNL     1      18.151   9.451  37.023  0.00  0.00    +0.000 C 
ATOM     14  C   UNL     1      19.653   9.659  36.351  0.00  0.00    +0.000 C 
ATOM     15  C   UNL     1      20.480  10.368  37.308  0.00  0.00    +0.000 C 
ATOM     16  C   UNL     1      19.725  11.106  38.384  0.00  0.00    +0.000 C 
ATOM     17  C   UNL     1      18.566  11.764  37.712  0.00  0.00    +0.000 C 
ATOM     18  C   UNL     1      17.777  10.986  37.035  0.00  0.00    +0.000 C 
ENDBRANCH  11  18
ENDBRANCH   1  11
TORSDOF 3
ENDMDL
MODEL 4
REMARK VINA RESULT:      -6.7      2.389      6.979
REMARK  Name = 
REMARK  3 active torsions:
REMARK  status: ('A' for Active; 'I' for Inactive)
REMARK    1  A    between atoms: C_7  and  N_8
REMARK    2  A    between atoms: N_8  and  N_9
REMARK    3  A    between atoms: C_10  and  C_12
REMARK                            x       y       z     vdW  Elec       q    Type
REMARK                         _______ _______ _______ _____ _____    ______ ____
ROOT
ATOM      1  N   UNL     1      16.702  11.826  35.376  0.00  0.00    +0.000 NA
ATOM      2  C   UNL     1      15.792  11.515  34.362  0.00  0.00    +0.000 C 
ATOM      3  O   UNL     1      15.741  10.338  33.924  0.00  0.00    +0.000 OA
ENDROOT
BRANCH   2   4
ATOM      4  C   UNL     1      14.900  12.560  33.825  0.00  0.00    +0.000 A 
ATOM      5  C   UNL     1      14.226  13.351  34.774  0.00  0.00    +0.000 A 
ATOM      6  C   UNL     1      13.442  14.360  34.281  0.00  0.00    +0.000 A 
ATOM      7  C   UNL     1      13.293  14.618  32.943  0.00  0.00    +0.000 A 
ATOM      8  C   UNL     1      13.949  13.844  32.029  0.00  0.00    +0.000 A 
ATOM      9  C   UNL     1      14.752  12.809  32.481  0.00  0.00    +0.000 A 
ATOM     10 BR   UNL     1      15.615  11.660  31.223  0.00  0.00    +0.000 Br
ENDBRANCH   2   4
BRANCH   1  11
ATOM     11  N   UNL     1      17.501  10.808  35.838  0.00  0.00    +0.000 NA
BRANCH  11  18
ATOM     12  C   UNL     1      19.786   9.651  36.363  0.00  0.00    +0.000 C 
ATOM     13  C   UNL     1      18.638   9.124  37.431  0.00  0.00    +0.000 C 
ATOM     14  C   UNL     1      19.332   9.932  38.701  0.00  0.00    +0.000 C 
ATOM     15  C   UNL     1      18.354  10.018  39.768  0.00  0.00    +0.000 C 
ATOM     16  C   UNL     1      16.922   9.806  39.343  0.00  0.00    +0.000 C 
ATOM     17  C   UNL     1      16.748  10.547  38.060  0.00  0.00    +0.000 C 
ATOM     18  C   UNL     1      17.571  10.242  37.103  0.00  0.00    +0.000 C 
ENDBRANCH  11  18
ENDBRANCH   1  11
TORSDOF 3
ENDMDL
MODEL 5
REMARK VINA RESULT:      -6.6      2.297      6.712
REMARK  Name = 
REMARK  3 active torsions:
REMARK  status: ('A' for Active; 'I' for Inactive)
REMARK    1  A    between atoms: C_7  and  N_8
REMARK    2  A    between atoms: N_8  and  N_9
REMARK    3  A    between atoms: C_10  and  C_12
REMARK                            x       y       z     vdW  Elec       q    Type
REMARK                         _______ _______ _______ _____ _____    ______ ____
ROOT
ATOM      1  N   UNL     1      16.733  12.375  36.228  0.00  0.00    +0.000 NA
ATOM      2  C   UNL     1      15.417  12.073  35.866  0.00  0.00    +0.000 C 
ATOM      3  O   UNL     1      14.719  11.360  36.630  0.00  0.00    +0.000 OA
ENDROOT
BRANCH   2   4
ATOM      4  C   UNL     1      14.860  12.598  34.605  0.00  0.00    +0.000 A 
ATOM      5  C   UNL     1      13.970  13.681  34.719  0.00  0.00    +0.000 A 
ATOM      6  C   UNL     1      13.497  14.210  33.548  0.00  0.00    +0.000 A 
ATOM      7  C   UNL     1      13.845  13.737  32.310  0.00  0.00    +0.000 A 
ATOM      8  C   UNL     1      14.707  12.683  32.207  0.00  0.00    +0.000 A 
ATOM      9  C   UNL     1      15.210  12.114  33.366  0.00  0.00    +0.000 A 
ATOM     10 BR   UNL     1      16.354  10.588  33.254  0.00  0.00    +0.000 Br
ENDBRANCH   2   4
BRANCH   1  11
ATOM     11  N   UNL     1      17.191  11.862  37.418  0.00  0.00    +0.000 NA
BRANCH  11  18
ATOM     12  C   UNL     1      18.057   9.396  37.404  0.00  0.00    +0.000 C 
ATOM     13  C   UNL     1      19.020  10.317  38.384  0.00  0.00    +0.000 C 
ATOM     14  C   UNL     1      20.301  10.238  37.334  0.00  0.00    +0.000 C 
ATOM     15  C   UNL     1      21.239  11.284  37.690  0.00  0.00    +0.000 C 
ATOM     16  C   UNL     1      20.668  12.397  38.534  0.00  0.00    +0.000 C 
ATOM     17  C   UNL     1      19.324  12.710  37.967  0.00  0.00    +0.000 C 
ATOM     18  C   UNL     1      18.493  11.717  37.876  0.00  0.00    +0.000 C 
ENDBRANCH  11  18
ENDBRANCH   1  11
TORSDOF 3
ENDMDL
MODEL 6
REMARK VINA RESULT:      -6.5     27.750     30.036
REMARK  Name = 
REMARK  3 active torsions:
REMARK  status: ('A' for Active; 'I' for Inactive)
REMARK    1  A    between atoms: C_7  and  N_8
REMARK    2  A    between atoms: N_8  and  N_9
REMARK    3  A    between atoms: C_10  and  C_12
REMARK                            x       y       z     vdW  Elec       q    Type
REMARK                         _______ _______ _______ _____ _____    ______ ____
ROOT
ATOM      1  N   UNL     1      30.796  22.965  11.339  0.00  0.00    +0.000 NA
ATOM      2  C   UNL     1      29.915  22.497  12.318  0.00  0.00    +0.000 C 
ATOM      3  O   UNL     1      30.368  21.836  13.286  0.00  0.00    +0.000 OA
ENDROOT
BRANCH   2   4
ATOM      4  C   UNL     1      28.473  22.792  12.214  0.00  0.00    +0.000 A 
ATOM      5  C   UNL     1      27.762  22.086  11.227  0.00  0.00    +0.000 A 
ATOM      6  C   UNL     1      26.413  22.312  11.166  0.00  0.00    +0.000 A 
ATOM      7  C   UNL     1      25.752  23.174  12.002  0.00  0.00    +0.000 A 
ATOM      8  C   UNL     1      26.449  23.857  12.956  0.00  0.00    +0.000 A 
ATOM      9  C   UNL     1      27.817  23.661  13.054  0.00  0.00    +0.000 A 
ATOM     10 BR   UNL     1      28.830  24.664  14.326  0.00  0.00    +0.000 Br
ENDBRANCH   2   4
BRANCH   1  11
ATOM     11  N   UNL     1      32.127  22.663  11.496  0.00  0.00    +0.000 NA
BRANCH  11  18
ATOM     12  C   UNL     1      33.424  20.505  12.197  0.00  0.00    +0.000 C 
ATOM     13  C   UNL     1      34.234  21.266  10.972  0.00  0.00    +0.000 C 
ATOM     14  C   UNL     1      33.862  20.077   9.878  0.00  0.00    +0.000 C 
ATOM     15  C   UNL     1      34.090  20.602   8.546  0.00  0.00    +0.000 C 
ATOM     16  C   UNL     1      34.140  22.107   8.452  0.00  0.00    +0.000 C 
ATOM     17  C   UNL     1      33.041  22.622   9.319  0.00  0.00    +0.000 C 
ATOM     18  C   UNL     1      33.053  22.230  10.557  0.00  0.00    +0.000 C 
ENDBRANCH  11  18
ENDBRANCH   1  11
TORSDOF 3
ENDMDL
MODEL 7
REMARK VINA RESULT:      -6.2      3.168      7.894
REMARK  Name = 
REMARK  3 active torsions:
REMARK  status: ('A' for Active; 'I' for Inactive)
REMARK    1  A    between atoms: C_7  and  N_8
REMARK    2  A    between atoms: N_8  and  N_9
REMARK    3  A    between atoms: C_10  and  C_12
REMARK                            x       y       z     vdW  Elec       q    Type
REMARK                         _______ _______ _______ _____ _____    ______ ____
ROOT
ATOM      1  N   UNL     1      16.868  10.101  38.540  0.00  0.00    +0.000 NA
ATOM      2  C   UNL     1      17.337  11.039  37.616  0.00  0.00    +0.000 C 
ATOM      3  O   UNL     1      18.447  11.592  37.813  0.00  0.00    +0.000 OA
ENDROOT
BRANCH   2   4
ATOM      4  C   UNL     1      16.534  11.361  36.420  0.00  0.00    +0.000 A 
ATOM      5  C   UNL     1      15.634  12.435  36.544  0.00  0.00    +0.000 A 
ATOM      6  C   UNL     1      14.931  12.775  35.420  0.00  0.00    +0.000 A 
ATOM      7  C   UNL     1      15.064  12.128  34.219  0.00  0.00    +0.000 A 
ATOM      8  C   UNL     1      15.939  11.085  34.107  0.00  0.00    +0.000 A 
ATOM      9  C   UNL     1      16.671  10.704  35.220  0.00  0.00    +0.000 A 
ATOM     10 BR   UNL     1      17.841   9.197  35.114  0.00  0.00    +0.000 Br
ENDBRANCH   2   4
BRANCH   1  11
ATOM     11  N   UNL     1      17.664   9.839  39.629  0.00  0.00    +0.000 NA
BRANCH  11  18
ATOM     12  C   UNL     1      16.278   9.448  41.811  0.00  0.00    +0.000 C 
ATOM     13  C   UNL     1      17.575   8.421  41.785  0.00  0.00    +0.000 C 
ATOM     14  C   UNL     1      16.618   7.089  41.542  0.00  0.00    +0.000 C 
ATOM     15  C   UNL     1      17.463   6.008  41.072  0.00  0.00    +0.000 C 
ATOM     16  C   UNL     1      18.793   6.436  40.504  0.00  0.00    +0.000 C 
ATOM     17  C   UNL     1      18.528   7.643  39.668  0.00  0.00    +0.000 C 
ATOM     18  C   UNL     1      17.931   8.633  40.260  0.00  0.00    +0.000 C 
ENDBRANCH  11  18
ENDBRANCH   1  11
TORSDOF 3
ENDMDL
MODEL 8
REMARK VINA RESULT:      -6.1      2.517      6.740
REMARK  Name = 
REMARK  3 active torsions:
REMARK  status: ('A' for Active; 'I' for Inactive)
REMARK    1  A    between atoms: C_7  and  N_8
REMARK    2  A    between atoms: N_8  and  N_9
REMARK    3  A    between atoms: C_10  and  C_12
REMARK                            x       y       z     vdW  Elec       q    Type
REMARK                         _______ _______ _______ _____ _____    ______ ____
ROOT
ATOM      1  N   UNL     1      17.413  12.102  36.034  0.00  0.00    +0.000 NA
ATOM      2  C   UNL     1      16.458  11.239  35.490  0.00  0.00    +0.000 C 
ATOM      3  O   UNL     1      15.946  10.352  36.219  0.00  0.00    +0.000 OA
ENDROOT
BRANCH   2   4
ATOM      4  C   UNL     1      16.055  11.381  34.078  0.00  0.00    +0.000 A 
ATOM      5  C   UNL     1      16.750  10.588  33.147  0.00  0.00    +0.000 A 
ATOM      6  C   UNL     1      16.339  10.673  31.844  0.00  0.00    +0.000 A 
ATOM      7  C   UNL     1      15.311  11.478  31.426  0.00  0.00    +0.000 A 
ATOM      8  C   UNL     1      14.643  12.247  32.335  0.00  0.00    +0.000 A 
ATOM      9  C   UNL     1      15.025  12.195  33.666  0.00  0.00    +0.000 A 
ATOM     10 BR   UNL     1      14.162  13.320  34.945  0.00  0.00    +0.000 Br
ENDBRANCH   2   4
BRANCH   1  11
ATOM     11  N   UNL     1      17.742  11.923  37.357  0.00  0.00    +0.000 NA
BRANCH  11  18
ATOM     12  C   UNL     1      19.041   9.747  37.999  0.00  0.00    +0.000 C 
ATOM     13  C   UNL     1      19.625  11.021  38.876  0.00  0.00    +0.000 C 
ATOM     14  C   UNL     1      21.064  11.032  38.053  0.00  0.00    +0.000 C 
ATOM     15  C   UNL     1      21.713  12.306  38.297  0.00  0.00    +0.000 C 
ATOM     16  C   UNL     1      20.803  13.403  38.792  0.00  0.00    +0.000 C 
ATOM     17  C   UNL     1      19.548  13.304  37.994  0.00  0.00    +0.000 C 
ATOM     18  C   UNL     1      18.945  12.154  38.008  0.00  0.00    +0.000 C 
ENDBRANCH  11  18
ENDBRANCH   1  11
TORSDOF 3
ENDMDL
MODEL 9
REMARK VINA RESULT:      -5.9     22.802     24.989
REMARK  Name = 
REMARK  3 active torsions:
REMARK  status: ('A' for Active; 'I' for Inactive)
REMARK    1  A    between atoms: C_7  and  N_8
REMARK    2  A    between atoms: N_8  and  N_9
REMARK    3  A    between atoms: C_10  and  C_12
REMARK                            x       y       z     vdW  Elec       q    Type
REMARK                         _______ _______ _______ _____ _____    ______ ____
ROOT
ATOM      1  N   UNL     1      34.035  -4.481  32.473  0.00  0.00    +0.000 NA
ATOM      2  C   UNL     1      33.250  -5.500  31.927  0.00  0.00    +0.000 C 
ATOM      3  O   UNL     1      32.236  -5.897  32.555  0.00  0.00    +0.000 OA
ENDROOT
BRANCH   2   4
ATOM      4  C   UNL     1      33.608  -6.090  30.623  0.00  0.00    +0.000 A 
ATOM      5  C   UNL     1      33.034  -5.490  29.488  0.00  0.00    +0.000 A 
ATOM      6  C   UNL     1      33.410  -5.995  28.273  0.00  0.00    +0.000 A 
ATOM      7  C   UNL     1      34.294  -7.032  28.126  0.00  0.00    +0.000 A 
ATOM      8  C   UNL     1      34.846  -7.611  29.232  0.00  0.00    +0.000 A 
ATOM      9  C   UNL     1      34.494  -7.133  30.484  0.00  0.00    +0.000 A 
ATOM     10 BR   UNL     1      35.187  -7.977  32.051  0.00  0.00    +0.000 Br
ENDBRANCH   2   4
BRANCH   1  11
ATOM     11  N   UNL     1      33.645  -3.968  33.687  0.00  0.00    +0.000 NA
BRANCH  11  18
ATOM     12  C   UNL     1      32.196  -3.843  35.858  0.00  0.00    +0.000 C 
ATOM     13  C   UNL     1      31.990  -2.461  34.973  0.00  0.00    +0.000 C 
ATOM     14  C   UNL     1      32.813  -1.536  36.075  0.00  0.00    +0.000 C 
ATOM     15  C   UNL     1      33.180  -0.289  35.432  0.00  0.00    +0.000 C 
ATOM     16  C   UNL     1      33.160  -0.317  33.924  0.00  0.00    +0.000 C 
ATOM     17  C   UNL     1      33.768  -1.617  33.517  0.00  0.00    +0.000 C 
ATOM     18  C   UNL     1      33.224  -2.687  34.013  0.00  0.00    +0.000 C 
ENDBRANCH  11  18
ENDBRANCH   1  11
TORSDOF 3
ENDMDL
MODEL 10
REMARK VINA RESULT:      -5.9      3.306      7.346
REMARK  Name = 
REMARK  3 active torsions:
REMARK  status: ('A' for Active; 'I' for Inactive)
REMARK    1  A    between atoms: C_7  and  N_8
REMARK    2  A    between atoms: N_8  and  N_9
REMARK    3  A    between atoms: C_10  and  C_12
REMARK                            x       y       z     vdW  Elec       q    Type
REMARK                         _______ _______ _______ _____ _____    ______ ____
ROOT
ATOM      1  N   UNL     1      18.873  10.431  35.905  0.00  0.00    +0.000 NA
ATOM      2  C   UNL     1      17.770   9.820  35.302  0.00  0.00    +0.000 C 
ATOM      3  O   UNL     1      17.578   8.590  35.476  0.00  0.00    +0.000 OA
ENDROOT
BRANCH   2   4
ATOM      4  C   UNL     1      16.842  10.620  34.480  0.00  0.00    +0.000 A 
ATOM      5  C   UNL     1      16.994  10.515  33.086  0.00  0.00    +0.000 A 
ATOM      6  C   UNL     1      16.098  11.210  32.319  0.00  0.00    +0.000 A 
ATOM      7  C   UNL     1      15.091  11.979  32.842  0.00  0.00    +0.000 A 
ATOM      8  C   UNL     1      14.950  12.077  34.197  0.00  0.00    +0.000 A 
ATOM      9  C   UNL     1      15.837  11.393  35.013  0.00  0.00    +0.000 A 
ATOM     10 BR   UNL     1      15.714  11.577  36.910  0.00  0.00    +0.000 Br
ENDBRANCH   2   4
BRANCH   1  11
ATOM     11  N   UNL     1      19.697   9.633  36.663  0.00  0.00    +0.000 NA
BRANCH  11  18
ATOM     12  C   UNL     1      19.887   9.722  39.268  0.00  0.00    +0.000 C 
ATOM     13  C   UNL     1      21.220  10.427  38.590  0.00  0.00    +0.000 C 
ATOM     14  C   UNL     1      22.216   9.190  39.065  0.00  0.00    +0.000 C 
ATOM     15  C   UNL     1      23.440   9.275  38.292  0.00  0.00    +0.000 C 
ATOM     16  C   UNL     1      23.342  10.088  37.025  0.00  0.00    +0.000 C 
ATOM     17  C   UNL     1      22.040   9.727  36.392  0.00  0.00    +0.000 C 
ATOM     18  C   UNL     1      20.981   9.878  37.128  0.00  0.00    +0.000 C 
ENDBRANCH  11  18
ENDBRANCH   1  11
TORSDOF 3
ENDMDL
