MODEL 1
REMARK VINA RESULT:      -8.3      0.000      0.000
REMARK  Name = 
REMARK  9 active torsions:
REMARK  status: ('A' for Active; 'I' for Inactive)
REMARK    1  A    between atoms: C_2  and  C_3
REMARK    2  A    between atoms: C_3  and  C_4
REMARK    3  A    between atoms: C_4  and  C_5
REMARK    4  A    between atoms: C_5  and  C_6
REMARK    5  A    between atoms: C_6  and  C_7
REMARK    6  A    between atoms: C_8  and  C_9
REMARK    7  A    between atoms: N_11  and  C_12
REMARK    8  A    between atoms: C_12  and  C_13
REMARK    9  A    between atoms: C_20  and  C_21
REMARK                            x       y       z     vdW  Elec       q    Type
REMARK                         _______ _______ _______ _____ _____    ______ ____
ROOT
ATOM      1  C   UNL     1      36.015   3.363  15.057  0.00  0.00    +0.000 C 
ATOM      2  C   UNL     1      36.717   3.263  16.129  0.00  0.00    +0.000 C 
ATOM      3  C   UNL     1      36.098   2.082  16.976  0.00  0.00    +0.000 C 
ATOM      4  O   UNL     1      34.671   2.234  16.443  0.00  0.00    +0.000 OA
ATOM      5  N   UNL     1      34.967   2.396  15.127  0.00  0.00    +0.000 NA
ENDROOT
BRANCH   3   6
ATOM      6  C   UNL     1      36.511   0.882  16.022  0.00  0.00    +0.000 A 
ATOM      7  C   UNL     1      37.480   1.076  15.093  0.00  0.00    +0.000 A 
ATOM      8  C   UNL     1      37.853   0.025  14.238  0.00  0.00    +0.000 A 
ATOM      9  C   UNL     1      37.218  -1.191  14.367  0.00  0.00    +0.000 A 
ATOM     10  C   UNL     1      36.230  -1.407  15.306  0.00  0.00    +0.000 A 
ATOM     11  C   UNL     1      35.585  -2.616  15.451  0.00  0.00    +0.000 A 
ATOM     12  C   UNL     1      34.621  -2.749  16.403  0.00  0.00    +0.000 A 
ATOM     13  C   UNL     1      34.253  -1.703  17.250  0.00  0.00    +0.000 A 
ATOM     14  C   UNL     1      34.922  -0.526  17.067  0.00  0.00    +0.000 A 
ATOM     15  C   UNL     1      35.903  -0.322  16.127  0.00  0.00    +0.000 A 
ENDBRANCH   3   6
BRANCH   2  16
ATOM     16  C   UNL     1      37.860   4.021  16.535  0.00  0.00    +0.000 C 
ATOM     17  O   UNL     1      38.840   4.138  15.743  0.00  0.00    +0.000 OA
ATOM     18  N   UNL     1      37.992   4.668  17.778  0.00  0.00    +0.000 NA
BRANCH  18  19
ATOM     19  C   UNL     1      39.165   5.405  18.105  0.00  0.00    +0.000 C 
BRANCH  19  20
ATOM     20  C   UNL     1      38.830   6.690  18.826  0.00  0.00    +0.000 A 
ATOM     21  C   UNL     1      37.716   7.412  18.531  0.00  0.00    +0.000 A 
ATOM     22  C   UNL     1      37.457   8.573  19.215  0.00  0.00    +0.000 A 
ATOM     23  C   UNL     1      38.296   9.043  20.207  0.00  0.00    +0.000 A 
ATOM     24  C   UNL     1      39.427   8.305  20.503  0.00  0.00    +0.000 A 
ATOM     25  C   UNL     1      39.679   7.143  19.811  0.00  0.00    +0.000 A 
ATOM     26 BR   UNL     1      41.256   6.115  20.225  0.00  0.00    +0.000 Br
ENDBRANCH  19  20
ENDBRANCH  18  19
ENDBRANCH   2  16
BRANCH   1  27
ATOM     27  C   UNL     1      36.152   4.292  13.885  0.00  0.00    +0.000 C 
BRANCH  27  28
ATOM     28  C   UNL     1      35.161   5.418  14.081  0.00  0.00    +0.000 C 
BRANCH  28  29
ATOM     29  C   UNL     1      34.993   6.230  12.815  0.00  0.00    +0.000 C 
BRANCH  29  30
ATOM     30  C   UNL     1      33.862   7.188  12.981  0.00  0.00    +0.000 C 
BRANCH  30  32
ATOM     31  C   UNL     1      33.895   8.916  14.706  0.00  0.00    +0.000 C 
ATOM     32  C   UNL     1      33.578   7.463  14.436  0.00  0.00    +0.000 C 
ENDBRANCH  30  32
ENDBRANCH  29  30
ENDBRANCH  28  29
ENDBRANCH  27  28
ENDBRANCH   1  27
TORSDOF 9
ENDMDL
MODEL 2
REMARK VINA RESULT:      -8.3      2.301      4.988
REMARK  Name = 
REMARK  9 active torsions:
REMARK  status: ('A' for Active; 'I' for Inactive)
REMARK    1  A    between atoms: C_2  and  C_3
REMARK    2  A    between atoms: C_3  and  C_4
REMARK    3  A    between atoms: C_4  and  C_5
REMARK    4  A    between atoms: C_5  and  C_6
REMARK    5  A    between atoms: C_6  and  C_7
REMARK    6  A    between atoms: C_8  and  C_9
REMARK    7  A    between atoms: N_11  and  C_12
REMARK    8  A    between atoms: C_12  and  C_13
REMARK    9  A    between atoms: C_20  and  C_21
REMARK                            x       y       z     vdW  Elec       q    Type
REMARK                         _______ _______ _______ _____ _____    ______ ____
ROOT
ATOM      1  C   UNL     1      38.148   2.935  14.975  0.00  0.00    +0.000 C 
ATOM      2  C   UNL     1      37.371   2.906  13.952  0.00  0.00    +0.000 C 
ATOM      3  C   UNL     1      37.103   1.386  13.619  0.00  0.00    +0.000 C 
ATOM      4  O   UNL     1      38.429   0.864  14.180  0.00  0.00    +0.000 OA
ATOM      5  N   UNL     1      38.456   1.587  15.330  0.00  0.00    +0.000 NA
ENDROOT
BRANCH   3   6
ATOM      6  C   UNL     1      36.226   1.029  14.893  0.00  0.00    +0.000 A 
ATOM      7  C   UNL     1      35.659   2.032  15.610  0.00  0.00    +0.000 A 
ATOM      8  C   UNL     1      34.884   1.732  16.744  0.00  0.00    +0.000 A 
ATOM      9  C   UNL     1      34.716   0.413  17.102  0.00  0.00    +0.000 A 
ATOM     10  C   UNL     1      35.284  -0.620  16.384  0.00  0.00    +0.000 A 
ATOM     11  C   UNL     1      35.126  -1.946  16.726  0.00  0.00    +0.000 A 
ATOM     12  C   UNL     1      35.718  -2.908  15.965  0.00  0.00    +0.000 A 
ATOM     13  C   UNL     1      36.488  -2.606  14.841  0.00  0.00    +0.000 A 
ATOM     14  C   UNL     1      36.614  -1.278  14.544  0.00  0.00    +0.000 A 
ATOM     15  C   UNL     1      36.045  -0.259  15.267  0.00  0.00    +0.000 A 
ENDBRANCH   3   6
BRANCH   2  16
ATOM     16  C   UNL     1      36.803   3.995  13.218  0.00  0.00    +0.000 C 
ATOM     17  O   UNL     1      37.251   4.267  12.066  0.00  0.00    +0.000 OA
ATOM     18  N   UNL     1      35.758   4.815  13.682  0.00  0.00    +0.000 NA
BRANCH  18  19
ATOM     19  C   UNL     1      35.248   5.881  12.888  0.00  0.00    +0.000 C 
BRANCH  19  20
ATOM     20  C   UNL     1      34.929   7.096  13.728  0.00  0.00    +0.000 A 
ATOM     21  C   UNL     1      33.755   7.213  14.406  0.00  0.00    +0.000 A 
ATOM     22  C   UNL     1      33.513   8.337  15.156  0.00  0.00    +0.000 A 
ATOM     23  C   UNL     1      34.427   9.368  15.249  0.00  0.00    +0.000 A 
ATOM     24  C   UNL     1      35.617   9.243  14.558  0.00  0.00    +0.000 A 
ATOM     25  C   UNL     1      35.851   8.114  13.809  0.00  0.00    +0.000 A 
ATOM     26 BR   UNL     1      37.512   7.941  12.846  0.00  0.00    +0.000 Br
ENDBRANCH  19  20
ENDBRANCH  18  19
ENDBRANCH   2  16
BRANCH   1  27
ATOM     27  C   UNL     1      38.714   4.099  15.737  0.00  0.00    +0.000 C 
BRANCH  27  28
ATOM     28  C   UNL     1      37.826   4.329  16.940  0.00  0.00    +0.000 C 
BRANCH  28  29
ATOM     29  C   UNL     1      38.643   4.544  18.195  0.00  0.00    +0.000 C 
BRANCH  29  30
ATOM     30  C   UNL     1      39.017   5.983  18.310  0.00  0.00    +0.000 C 
BRANCH  30  32
ATOM     31  C   UNL     1      39.323   7.398  20.275  0.00  0.00    +0.000 C 
ATOM     32  C   UNL     1      39.901   6.232  19.505  0.00  0.00    +0.000 C 
ENDBRANCH  30  32
ENDBRANCH  29  30
ENDBRANCH  28  29
ENDBRANCH  27  28
ENDBRANCH   1  27
TORSDOF 9
ENDMDL
MODEL 3
REMARK VINA RESULT:      -8.1      3.575      6.063
REMARK  Name = 
REMARK  9 active torsions:
REMARK  status: ('A' for Active; 'I' for Inactive)
REMARK    1  A    between atoms: C_2  and  C_3
REMARK    2  A    between atoms: C_3  and  C_4
REMARK    3  A    between atoms: C_4  and  C_5
REMARK    4  A    between atoms: C_5  and  C_6
REMARK    5  A    between atoms: C_6  and  C_7
REMARK    6  A    between atoms: C_8  and  C_9
REMARK    7  A    between atoms: N_11  and  C_12
REMARK    8  A    between atoms: C_12  and  C_13
REMARK    9  A    between atoms: C_20  and  C_21
REMARK                            x       y       z     vdW  Elec       q    Type
REMARK                         _______ _______ _______ _____ _____    ______ ____
ROOT
ATOM      1  C   UNL     1      39.427  -0.015  14.138  0.00  0.00    +0.000 C 
ATOM      2  C   UNL     1      38.253   0.467  14.343  0.00  0.00    +0.000 C 
ATOM      3  C   UNL     1      37.245  -0.749  14.314  0.00  0.00    +0.000 C 
ATOM      4  O   UNL     1      38.076  -1.623  13.371  0.00  0.00    +0.000 OA
ATOM      5  N   UNL     1      39.294  -1.422  13.936  0.00  0.00    +0.000 NA
ENDROOT
BRANCH   3   6
ATOM      6  C   UNL     1      37.710  -1.457  15.657  0.00  0.00    +0.000 A 
ATOM      7  C   UNL     1      38.676  -2.407  15.605  0.00  0.00    +0.000 A 
ATOM      8  C   UNL     1      39.096  -3.046  16.786  0.00  0.00    +0.000 A 
ATOM      9  C   UNL     1      38.507  -2.687  17.978  0.00  0.00    +0.000 A 
ATOM     10  C   UNL     1      37.522  -1.722  18.050  0.00  0.00    +0.000 A 
ATOM     11  C   UNL     1      36.925  -1.348  19.233  0.00  0.00    +0.000 A 
ATOM     12  C   UNL     1      35.960  -0.386  19.220  0.00  0.00    +0.000 A 
ATOM     13  C   UNL     1      35.547   0.245  18.047  0.00  0.00    +0.000 A 
ATOM     14  C   UNL     1      36.171  -0.161  16.901  0.00  0.00    +0.000 A 
ATOM     15  C   UNL     1      37.148  -1.123  16.842  0.00  0.00    +0.000 A 
ENDBRANCH   3   6
BRANCH   2  16
ATOM     16  C   UNL     1      37.861   1.822  14.577  0.00  0.00    +0.000 C 
ATOM     17  O   UNL     1      37.231   2.451  13.678  0.00  0.00    +0.000 OA
ATOM     18  N   UNL     1      38.125   2.538  15.760  0.00  0.00    +0.000 NA
BRANCH  18  19
ATOM     19  C   UNL     1      37.700   3.888  15.915  0.00  0.00    +0.000 C 
BRANCH  19  20
ATOM     20  C   UNL     1      38.691   4.692  16.724  0.00  0.00    +0.000 A 
ATOM     21  C   UNL     1      38.618   4.770  18.080  0.00  0.00    +0.000 A 
ATOM     22  C   UNL     1      39.542   5.514  18.769  0.00  0.00    +0.000 A 
ATOM     23  C   UNL     1      40.558   6.198  18.130  0.00  0.00    +0.000 A 
ATOM     24  C   UNL     1      40.627   6.116  16.752  0.00  0.00    +0.000 A 
ATOM     25  C   UNL     1      39.696   5.368  16.070  0.00  0.00    +0.000 A 
ATOM     26 BR   UNL     1      39.793   5.254  14.148  0.00  0.00    +0.000 Br
ENDBRANCH  19  20
ENDBRANCH  18  19
ENDBRANCH   2  16
BRANCH   1  27
ATOM     27  C   UNL     1      40.764   0.666  14.079  0.00  0.00    +0.000 C 
BRANCH  27  28
ATOM     28  C   UNL     1      41.823  -0.395  14.276  0.00  0.00    +0.000 C 
BRANCH  28  29
ATOM     29  C   UNL     1      43.012  -0.163  13.369  0.00  0.00    +0.000 C 
BRANCH  29  30
ATOM     30  C   UNL     1      44.203   0.204  14.188  0.00  0.00    +0.000 C 
BRANCH  30  32
ATOM     31  C   UNL     1      45.317  -0.237  16.315  0.00  0.00    +0.000 C 
ATOM     32  C   UNL     1      44.545  -0.876  15.183  0.00  0.00    +0.000 C 
ENDBRANCH  30  32
ENDBRANCH  29  30
ENDBRANCH  28  29
ENDBRANCH  27  28
ENDBRANCH   1  27
TORSDOF 9
ENDMDL
MODEL 4
REMARK VINA RESULT:      -8.1      3.464      7.210
REMARK  Name = 
REMARK  9 active torsions:
REMARK  status: ('A' for Active; 'I' for Inactive)
REMARK    1  A    between atoms: C_2  and  C_3
REMARK    2  A    between atoms: C_3  and  C_4
REMARK    3  A    between atoms: C_4  and  C_5
REMARK    4  A    between atoms: C_5  and  C_6
REMARK    5  A    between atoms: C_6  and  C_7
REMARK    6  A    between atoms: C_8  and  C_9
REMARK    7  A    between atoms: N_11  and  C_12
REMARK    8  A    between atoms: C_12  and  C_13
REMARK    9  A    between atoms: C_20  and  C_21
REMARK                            x       y       z     vdW  Elec       q    Type
REMARK                         _______ _______ _______ _____ _____    ______ ____
ROOT
ATOM      1  C   UNL     1      37.089   2.934  15.679  0.00  0.00    +0.000 C 
ATOM      2  C   UNL     1      36.671   1.755  15.381  0.00  0.00    +0.000 C 
ATOM      3  C   UNL     1      36.837   1.591  13.818  0.00  0.00    +0.000 C 
ATOM      4  O   UNL     1      36.685   3.077  13.485  0.00  0.00    +0.000 OA
ATOM      5  N   UNL     1      37.475   3.583  14.468  0.00  0.00    +0.000 NA
ENDROOT
BRANCH   3   6
ATOM      6  C   UNL     1      38.423   1.563  13.762  0.00  0.00    +0.000 A 
ATOM      7  C   UNL     1      39.094   2.691  13.420  0.00  0.00    +0.000 A 
ATOM      8  C   UNL     1      40.499   2.681  13.361  0.00  0.00    +0.000 A 
ATOM      9  C   UNL     1      41.166   1.513  13.658  0.00  0.00    +0.000 A 
ATOM     10  C   UNL     1      40.499   0.356  14.008  0.00  0.00    +0.000 A 
ATOM     11  C   UNL     1      41.149  -0.821  14.310  0.00  0.00    +0.000 A 
ATOM     12  C   UNL     1      40.419  -1.920  14.649  0.00  0.00    +0.000 A 
ATOM     13  C   UNL     1      39.026  -1.906  14.705  0.00  0.00    +0.000 A 
ATOM     14  C   UNL     1      38.429  -0.715  14.398  0.00  0.00    +0.000 A 
ATOM     15  C   UNL     1      39.103   0.429  14.049  0.00  0.00    +0.000 A 
ENDBRANCH   3   6
BRANCH   2  16
ATOM     16  C   UNL     1      36.163   0.732  16.241  0.00  0.00    +0.000 C 
ATOM     17  O   UNL     1      34.918   0.510  16.273  0.00  0.00    +0.000 OA
ATOM     18  N   UNL     1      36.954  -0.074  17.081  0.00  0.00    +0.000 NA
BRANCH  18  19
ATOM     19  C   UNL     1      36.369  -1.073  17.909  0.00  0.00    +0.000 C 
BRANCH  19  20
ATOM     20  C   UNL     1      37.049  -2.411  17.729  0.00  0.00    +0.000 A 
ATOM     21  C   UNL     1      38.220  -2.713  18.353  0.00  0.00    +0.000 A 
ATOM     22  C   UNL     1      38.797  -3.942  18.157  0.00  0.00    +0.000 A 
ATOM     23  C   UNL     1      38.226  -4.899  17.339  0.00  0.00    +0.000 A 
ATOM     24  C   UNL     1      37.037  -4.586  16.709  0.00  0.00    +0.000 A 
ATOM     25  C   UNL     1      36.466  -3.351  16.910  0.00  0.00    +0.000 A 
ATOM     26 BR   UNL     1      34.808  -2.917  16.030  0.00  0.00    +0.000 Br
ENDBRANCH  19  20
ENDBRANCH  18  19
ENDBRANCH   2  16
BRANCH   1  27
ATOM     27  C   UNL     1      37.185   3.626  17.009  0.00  0.00    +0.000 C 
BRANCH  27  28
ATOM     28  C   UNL     1      38.473   4.418  17.015  0.00  0.00    +0.000 C 
BRANCH  28  29
ATOM     29  C   UNL     1      38.782   4.956  18.396  0.00  0.00    +0.000 C 
BRANCH  29  30
ATOM     30  C   UNL     1      39.972   5.852  18.329  0.00  0.00    +0.000 C 
BRANCH  30  32
ATOM     31  C   UNL     1      39.440   7.286  20.233  0.00  0.00    +0.000 C 
ATOM     32  C   UNL     1      40.428   6.270  19.704  0.00  0.00    +0.000 C 
ENDBRANCH  30  32
ENDBRANCH  29  30
ENDBRANCH  28  29
ENDBRANCH  27  28
ENDBRANCH   1  27
TORSDOF 9
ENDMDL
MODEL 5
REMARK VINA RESULT:      -8.0      2.313      5.840
REMARK  Name = 
REMARK  9 active torsions:
REMARK  status: ('A' for Active; 'I' for Inactive)
REMARK    1  A    between atoms: C_2  and  C_3
REMARK    2  A    between atoms: C_3  and  C_4
REMARK    3  A    between atoms: C_4  and  C_5
REMARK    4  A    between atoms: C_5  and  C_6
REMARK    5  A    between atoms: C_6  and  C_7
REMARK    6  A    between atoms: C_8  and  C_9
REMARK    7  A    between atoms: N_11  and  C_12
REMARK    8  A    between atoms: C_12  and  C_13
REMARK    9  A    between atoms: C_20  and  C_21
REMARK                            x       y       z     vdW  Elec       q    Type
REMARK                         _______ _______ _______ _____ _____    ______ ____
ROOT
ATOM      1  C   UNL     1      37.186   3.113  15.819  0.00  0.00    +0.000 C 
ATOM      2  C   UNL     1      36.348   3.212  14.848  0.00  0.00    +0.000 C 
ATOM      3  C   UNL     1      36.751   2.121  13.779  0.00  0.00    +0.000 C 
ATOM      4  O   UNL     1      38.241   2.097  14.130  0.00  0.00    +0.000 OA
ATOM      5  N   UNL     1      38.127   2.093  15.483  0.00  0.00    +0.000 NA
ENDROOT
BRANCH   3   6
ATOM      6  C   UNL     1      36.357   0.831  14.618  0.00  0.00    +0.000 A 
ATOM      7  C   UNL     1      35.527   0.961  15.683  0.00  0.00    +0.000 A 
ATOM      8  C   UNL     1      35.173  -0.170  16.438  0.00  0.00    +0.000 A 
ATOM      9  C   UNL     1      35.682  -1.397  16.072  0.00  0.00    +0.000 A 
ATOM     10  C   UNL     1      36.527  -1.548  14.991  0.00  0.00    +0.000 A 
ATOM     11  C   UNL     1      37.044  -2.767  14.609  0.00  0.00    +0.000 A 
ATOM     12  C   UNL     1      37.870  -2.832  13.528  0.00  0.00    +0.000 A 
ATOM     13  C   UNL     1      38.220  -1.707  12.782  0.00  0.00    +0.000 A 
ATOM     14  C   UNL     1      37.681  -0.523  13.201  0.00  0.00    +0.000 A 
ATOM     15  C   UNL     1      36.843  -0.385  14.280  0.00  0.00    +0.000 A 
ENDBRANCH   3   6
BRANCH   2  16
ATOM     16  C   UNL     1      35.235   4.099  14.702  0.00  0.00    +0.000 C 
ATOM     17  O   UNL     1      34.101   3.747  15.140  0.00  0.00    +0.000 OA
ATOM     18  N   UNL     1      35.295   5.367  14.095  0.00  0.00    +0.000 NA
BRANCH  18  19
ATOM     19  C   UNL     1      34.138   6.189  13.989  0.00  0.00    +0.000 C 
BRANCH  19  20
ATOM     20  C   UNL     1      34.297   7.235  12.910  0.00  0.00    +0.000 A 
ATOM     21  C   UNL     1      34.416   6.903  11.597  0.00  0.00    +0.000 A 
ATOM     22  C   UNL     1      34.558   7.890  10.655  0.00  0.00    +0.000 A 
ATOM     23  C   UNL     1      34.586   9.229  10.995  0.00  0.00    +0.000 A 
ATOM     24  C   UNL     1      34.465   9.562  12.331  0.00  0.00    +0.000 A 
ATOM     25  C   UNL     1      34.324   8.565  13.267  0.00  0.00    +0.000 A 
ATOM     26 BR   UNL     1      34.156   9.029  15.130  0.00  0.00    +0.000 Br
ENDBRANCH  19  20
ENDBRANCH  18  19
ENDBRANCH   2  16
BRANCH   1  27
ATOM     27  C   UNL     1      37.278   3.877  17.108  0.00  0.00    +0.000 C 
BRANCH  27  28
ATOM     28  C   UNL     1      38.611   4.592  17.117  0.00  0.00    +0.000 C 
BRANCH  28  29
ATOM     29  C   UNL     1      38.967   5.077  18.506  0.00  0.00    +0.000 C 
BRANCH  29  30
ATOM     30  C   UNL     1      40.188   5.929  18.441  0.00  0.00    +0.000 C 
BRANCH  30  32
ATOM     31  C   UNL     1      39.367   7.332  20.263  0.00  0.00    +0.000 C 
ATOM     32  C   UNL     1      40.539   6.499  19.792  0.00  0.00    +0.000 C 
ENDBRANCH  30  32
ENDBRANCH  29  30
ENDBRANCH  28  29
ENDBRANCH  27  28
ENDBRANCH   1  27
TORSDOF 9
ENDMDL
MODEL 6
REMARK VINA RESULT:      -8.0      3.153      5.816
REMARK  Name = 
REMARK  9 active torsions:
REMARK  status: ('A' for Active; 'I' for Inactive)
REMARK    1  A    between atoms: C_2  and  C_3
REMARK    2  A    between atoms: C_3  and  C_4
REMARK    3  A    between atoms: C_4  and  C_5
REMARK    4  A    between atoms: C_5  and  C_6
REMARK    5  A    between atoms: C_6  and  C_7
REMARK    6  A    between atoms: C_8  and  C_9
REMARK    7  A    between atoms: N_11  and  C_12
REMARK    8  A    between atoms: C_12  and  C_13
REMARK    9  A    between atoms: C_20  and  C_21
REMARK                            x       y       z     vdW  Elec       q    Type
REMARK                         _______ _______ _______ _____ _____    ______ ____
ROOT
ATOM      1  C   UNL     1      38.761   0.199  13.796  0.00  0.00    +0.000 C 
ATOM      2  C   UNL     1      37.646   0.581  14.310  0.00  0.00    +0.000 C 
ATOM      3  C   UNL     1      36.720  -0.696  14.398  0.00  0.00    +0.000 C 
ATOM      4  O   UNL     1      37.347  -1.431  13.211  0.00  0.00    +0.000 OA
ATOM      5  N   UNL     1      38.653  -1.193  13.497  0.00  0.00    +0.000 NA
ENDROOT
BRANCH   3   6
ATOM      6  C   UNL     1      37.520  -1.476  15.525  0.00  0.00    +0.000 A 
ATOM      7  C   UNL     1      38.487  -2.356  15.163  0.00  0.00    +0.000 A 
ATOM      8  C   UNL     1      39.202  -3.059  16.149  0.00  0.00    +0.000 A 
ATOM      9  C   UNL     1      38.900  -2.831  17.474  0.00  0.00    +0.000 A 
ATOM     10  C   UNL     1      37.920  -1.939  17.861  0.00  0.00    +0.000 A 
ATOM     11  C   UNL     1      37.606  -1.698  19.180  0.00  0.00    +0.000 A 
ATOM     12  C   UNL     1      36.626  -0.800  19.481  0.00  0.00    +0.000 A 
ATOM     13  C   UNL     1      35.919  -0.106  18.499  0.00  0.00    +0.000 A 
ATOM     14  C   UNL     1      36.268  -0.381  17.207  0.00  0.00    +0.000 A 
ATOM     15  C   UNL     1      37.244  -1.272  16.834  0.00  0.00    +0.000 A 
ENDBRANCH   3   6
BRANCH   2  16
ATOM     16  C   UNL     1      37.255   1.882  14.756  0.00  0.00    +0.000 C 
ATOM     17  O   UNL     1      36.291   2.471  14.184  0.00  0.00    +0.000 OA
ATOM     18  N   UNL     1      37.869   2.586  15.808  0.00  0.00    +0.000 NA
BRANCH  18  19
ATOM     19  C   UNL     1      37.419   3.880  16.191  0.00  0.00    +0.000 C 
BRANCH  19  20
ATOM     20  C   UNL     1      38.513   4.670  16.871  0.00  0.00    +0.000 A 
ATOM     21  C   UNL     1      38.581   4.789  18.225  0.00  0.00    +0.000 A 
ATOM     22  C   UNL     1      39.595   5.518  18.794  0.00  0.00    +0.000 A 
ATOM     23  C   UNL     1      40.563   6.144  18.034  0.00  0.00    +0.000 A 
ATOM     24  C   UNL     1      40.490   6.021  16.660  0.00  0.00    +0.000 A 
ATOM     25  C   UNL     1      39.470   5.289  16.098  0.00  0.00    +0.000 A 
ATOM     26 BR   UNL     1      39.368   5.117  14.181  0.00  0.00    +0.000 Br
ENDBRANCH  19  20
ENDBRANCH  18  19
ENDBRANCH   2  16
BRANCH   1  27
ATOM     27  C   UNL     1      40.012   0.974  13.496  0.00  0.00    +0.000 C 
BRANCH  27  28
ATOM     28  C   UNL     1      41.103   0.442  14.399  0.00  0.00    +0.000 C 
BRANCH  28  29
ATOM     29  C   UNL     1      42.074  -0.431  13.634  0.00  0.00    +0.000 C 
BRANCH  29  30
ATOM     30  C   UNL     1      42.193  -1.756  14.306  0.00  0.00    +0.000 C 
BRANCH  30  32
ATOM     31  C   UNL     1      41.771  -2.330  11.971  0.00  0.00    +0.000 C 
ATOM     32  C   UNL     1      41.824  -2.884  13.377  0.00  0.00    +0.000 C 
ENDBRANCH  30  32
ENDBRANCH  29  30
ENDBRANCH  28  29
ENDBRANCH  27  28
ENDBRANCH   1  27
TORSDOF 9
ENDMDL
MODEL 7
REMARK VINA RESULT:      -7.8      3.370      6.901
REMARK  Name = 
REMARK  9 active torsions:
REMARK  status: ('A' for Active; 'I' for Inactive)
REMARK    1  A    between atoms: C_2  and  C_3
REMARK    2  A    between atoms: C_3  and  C_4
REMARK    3  A    between atoms: C_4  and  C_5
REMARK    4  A    between atoms: C_5  and  C_6
REMARK    5  A    between atoms: C_6  and  C_7
REMARK    6  A    between atoms: C_8  and  C_9
REMARK    7  A    between atoms: N_11  and  C_12
REMARK    8  A    between atoms: C_12  and  C_13
REMARK    9  A    between atoms: C_20  and  C_21
REMARK                            x       y       z     vdW  Elec       q    Type
REMARK                         _______ _______ _______ _____ _____    ______ ____
ROOT
ATOM      1  C   UNL     1      38.175   3.374  15.015  0.00  0.00    +0.000 C 
ATOM      2  C   UNL     1      37.435   3.357  13.963  0.00  0.00    +0.000 C 
ATOM      3  C   UNL     1      37.243   1.842  13.560  0.00  0.00    +0.000 C 
ATOM      4  O   UNL     1      38.569   1.351  14.147  0.00  0.00    +0.000 OA
ATOM      5  N   UNL     1      38.526   2.026  15.326  0.00  0.00    +0.000 NA
ENDROOT
BRANCH   3   6
ATOM      6  C   UNL     1      36.337   1.397  14.786  0.00  0.00    +0.000 A 
ATOM      7  C   UNL     1      35.712   2.346  15.527  0.00  0.00    +0.000 A 
ATOM      8  C   UNL     1      34.910   1.969  16.619  0.00  0.00    +0.000 A 
ATOM      9  C   UNL     1      34.779   0.630  16.912  0.00  0.00    +0.000 A 
ATOM     10  C   UNL     1      35.408  -0.350  16.170  0.00  0.00    +0.000 A 
ATOM     11  C   UNL     1      35.286  -1.694  16.447  0.00  0.00    +0.000 A 
ATOM     12  C   UNL     1      35.938  -2.599  15.665  0.00  0.00    +0.000 A 
ATOM     13  C   UNL     1      36.733  -2.220  14.583  0.00  0.00    +0.000 A 
ATOM     14  C   UNL     1      36.820  -0.877  14.350  0.00  0.00    +0.000 A 
ATOM     15  C   UNL     1      36.191   0.088  15.096  0.00  0.00    +0.000 A 
ENDBRANCH   3   6
BRANCH   2  16
ATOM     16  C   UNL     1      36.849   4.452  13.253  0.00  0.00    +0.000 C 
ATOM     17  O   UNL     1      36.034   5.213  13.851  0.00  0.00    +0.000 OA
ATOM     18  N   UNL     1      37.109   4.763  11.906  0.00  0.00    +0.000 NA
BRANCH  18  19
ATOM     19  C   UNL     1      36.482   5.873  11.272  0.00  0.00    +0.000 C 
BRANCH  19  20
ATOM     20  C   UNL     1      35.986   5.515   9.889  0.00  0.00    +0.000 A 
ATOM     21  C   UNL     1      36.298   4.331   9.297  0.00  0.00    +0.000 A 
ATOM     22  C   UNL     1      35.822   4.054   8.040  0.00  0.00    +0.000 A 
ATOM     23  C   UNL     1      35.028   4.943   7.343  0.00  0.00    +0.000 A 
ATOM     24  C   UNL     1      34.714   6.145   7.950  0.00  0.00    +0.000 A 
ATOM     25  C   UNL     1      35.196   6.414   9.210  0.00  0.00    +0.000 A 
ATOM     26 BR   UNL     1      34.758   8.090  10.055  0.00  0.00    +0.000 Br
ENDBRANCH  19  20
ENDBRANCH  18  19
ENDBRANCH   2  16
BRANCH   1  27
ATOM     27  C   UNL     1      38.665   4.527  15.843  0.00  0.00    +0.000 C 
BRANCH  27  28
ATOM     28  C   UNL     1      38.083   4.369  17.230  0.00  0.00    +0.000 C 
BRANCH  28  29
ATOM     29  C   UNL     1      38.922   5.087  18.264  0.00  0.00    +0.000 C 
BRANCH  29  30
ATOM     30  C   UNL     1      39.993   5.871  17.585  0.00  0.00    +0.000 C 
BRANCH  30  32
ATOM     31  C   UNL     1      40.368   6.424  19.933  0.00  0.00    +0.000 C 
ATOM     32  C   UNL     1      41.017   6.379  18.568  0.00  0.00    +0.000 C 
ENDBRANCH  30  32
ENDBRANCH  29  30
ENDBRANCH  28  29
ENDBRANCH  27  28
ENDBRANCH   1  27
TORSDOF 9
ENDMDL
MODEL 8
REMARK VINA RESULT:      -7.8      3.365      7.742
REMARK  Name = 
REMARK  9 active torsions:
REMARK  status: ('A' for Active; 'I' for Inactive)
REMARK    1  A    between atoms: C_2  and  C_3
REMARK    2  A    between atoms: C_3  and  C_4
REMARK    3  A    between atoms: C_4  and  C_5
REMARK    4  A    between atoms: C_5  and  C_6
REMARK    5  A    between atoms: C_6  and  C_7
REMARK    6  A    between atoms: C_8  and  C_9
REMARK    7  A    between atoms: N_11  and  C_12
REMARK    8  A    between atoms: C_12  and  C_13
REMARK    9  A    between atoms: C_20  and  C_21
REMARK                            x       y       z     vdW  Elec       q    Type
REMARK                         _______ _______ _______ _____ _____    ______ ____
ROOT
ATOM      1  C   UNL     1      38.088   4.486  13.752  0.00  0.00    +0.000 C 
ATOM      2  C   UNL     1      39.250   3.935  13.795  0.00  0.00    +0.000 C 
ATOM      3  C   UNL     1      40.227   4.976  14.471  0.00  0.00    +0.000 C 
ATOM      4  O   UNL     1      39.467   6.226  14.019  0.00  0.00    +0.000 OA
ATOM      5  N   UNL     1      38.206   5.801  14.294  0.00  0.00    +0.000 NA
ENDROOT
BRANCH   3   6
ATOM      6  C   UNL     1      39.624   4.929  15.938  0.00  0.00    +0.000 A 
ATOM      7  C   UNL     1      38.510   4.190  16.174  0.00  0.00    +0.000 A 
ATOM      8  C   UNL     1      37.961   4.142  17.467  0.00  0.00    +0.000 A 
ATOM      9  C   UNL     1      38.575   4.854  18.475  0.00  0.00    +0.000 A 
ATOM     10  C   UNL     1      39.708   5.610  18.253  0.00  0.00    +0.000 A 
ATOM     11  C   UNL     1      40.337   6.326  19.248  0.00  0.00    +0.000 A 
ATOM     12  C   UNL     1      41.453   7.048  18.949  0.00  0.00    +0.000 A 
ATOM     13  C   UNL     1      41.994   7.093  17.664  0.00  0.00    +0.000 A 
ATOM     14  C   UNL     1      41.335   6.366  16.714  0.00  0.00    +0.000 A 
ATOM     15  C   UNL     1      40.207   5.618  16.946  0.00  0.00    +0.000 A 
ENDBRANCH   3   6
BRANCH   2  16
ATOM     16  C   UNL     1      39.650   2.634  13.355  0.00  0.00    +0.000 C 
ATOM     17  O   UNL     1      39.823   2.423  12.119  0.00  0.00    +0.000 OA
ATOM     18  N   UNL     1      39.874   1.536  14.205  0.00  0.00    +0.000 NA
BRANCH  18  19
ATOM     19  C   UNL     1      40.271   0.271  13.686  0.00  0.00    +0.000 C 
BRANCH  19  20
ATOM     20  C   UNL     1      39.903  -0.855  14.625  0.00  0.00    +0.000 A 
ATOM     21  C   UNL     1      38.796  -0.801  15.414  0.00  0.00    +0.000 A 
ATOM     22  C   UNL     1      38.504  -1.849  16.249  0.00  0.00    +0.000 A 
ATOM     23  C   UNL     1      39.303  -2.974  16.321  0.00  0.00    +0.000 A 
ATOM     24  C   UNL     1      40.427  -3.023  15.517  0.00  0.00    +0.000 A 
ATOM     25  C   UNL     1      40.711  -1.967  14.684  0.00  0.00    +0.000 A 
ATOM     26 BR   UNL     1      42.278  -2.037  13.563  0.00  0.00    +0.000 Br
ENDBRANCH  19  20
ENDBRANCH  18  19
ENDBRANCH   2  16
BRANCH   1  27
ATOM     27  C   UNL     1      36.779   3.960  13.237  0.00  0.00    +0.000 C 
BRANCH  27  28
ATOM     28  C   UNL     1      35.678   4.644  14.016  0.00  0.00    +0.000 C 
BRANCH  28  29
ATOM     29  C   UNL     1      35.009   3.687  14.979  0.00  0.00    +0.000 C 
BRANCH  29  30
ATOM     30  C   UNL     1      35.303   2.282  14.575  0.00  0.00    +0.000 C 
BRANCH  30  32
ATOM     31  C   UNL     1      34.885   1.380  16.805  0.00  0.00    +0.000 C 
ATOM     32  C   UNL     1      35.917   1.497  15.706  0.00  0.00    +0.000 C 
ENDBRANCH  30  32
ENDBRANCH  29  30
ENDBRANCH  28  29
ENDBRANCH  27  28
ENDBRANCH   1  27
TORSDOF 9
ENDMDL
MODEL 9
REMARK VINA RESULT:      -7.7      1.525      2.642
REMARK  Name = 
REMARK  9 active torsions:
REMARK  status: ('A' for Active; 'I' for Inactive)
REMARK    1  A    between atoms: C_2  and  C_3
REMARK    2  A    between atoms: C_3  and  C_4
REMARK    3  A    between atoms: C_4  and  C_5
REMARK    4  A    between atoms: C_5  and  C_6
REMARK    5  A    between atoms: C_6  and  C_7
REMARK    6  A    between atoms: C_8  and  C_9
REMARK    7  A    between atoms: N_11  and  C_12
REMARK    8  A    between atoms: C_12  and  C_13
REMARK    9  A    between atoms: C_20  and  C_21
REMARK                            x       y       z     vdW  Elec       q    Type
REMARK                         _______ _______ _______ _____ _____    ______ ____
ROOT
ATOM      1  C   UNL     1      36.264   3.494  14.919  0.00  0.00    +0.000 C 
ATOM      2  C   UNL     1      36.862   3.404  16.054  0.00  0.00    +0.000 C 
ATOM      3  C   UNL     1      36.111   2.287  16.882  0.00  0.00    +0.000 C 
ATOM      4  O   UNL     1      34.747   2.484  16.215  0.00  0.00    +0.000 OA
ATOM      5  N   UNL     1      35.167   2.579  14.927  0.00  0.00    +0.000 NA
ENDROOT
BRANCH   3   6
ATOM      6  C   UNL     1      36.547   1.033  16.013  0.00  0.00    +0.000 A 
ATOM      7  C   UNL     1      37.563   1.163  15.123  0.00  0.00    +0.000 A 
ATOM      8  C   UNL     1      37.958   0.062  14.343  0.00  0.00    +0.000 A 
ATOM      9  C   UNL     1      37.296  -1.136  14.504  0.00  0.00    +0.000 A 
ATOM     10  C   UNL     1      36.260  -1.286  15.405  0.00  0.00    +0.000 A 
ATOM     11  C   UNL     1      35.588  -2.476  15.581  0.00  0.00    +0.000 A 
ATOM     12  C   UNL     1      34.578  -2.544  16.492  0.00  0.00    +0.000 A 
ATOM     13  C   UNL     1      34.189  -1.449  17.263  0.00  0.00    +0.000 A 
ATOM     14  C   UNL     1      34.887  -0.294  17.052  0.00  0.00    +0.000 A 
ATOM     15  C   UNL     1      35.914  -0.155  16.151  0.00  0.00    +0.000 A 
ENDBRANCH   3   6
BRANCH   2  16
ATOM     16  C   UNL     1      38.000   4.124  16.535  0.00  0.00    +0.000 C 
ATOM     17  O   UNL     1      39.028   4.220  15.803  0.00  0.00    +0.000 OA
ATOM     18  N   UNL     1      38.077   4.754  17.791  0.00  0.00    +0.000 NA
BRANCH  18  19
ATOM     19  C   UNL     1      39.249   5.453  18.195  0.00  0.00    +0.000 C 
BRANCH  19  20
ATOM     20  C   UNL     1      38.909   6.737  18.916  0.00  0.00    +0.000 A 
ATOM     21  C   UNL     1      37.779   7.441  18.638  0.00  0.00    +0.000 A 
ATOM     22  C   UNL     1      37.516   8.602  19.321  0.00  0.00    +0.000 A 
ATOM     23  C   UNL     1      38.367   9.090  20.293  0.00  0.00    +0.000 A 
ATOM     24  C   UNL     1      39.514   8.371  20.571  0.00  0.00    +0.000 A 
ATOM     25  C   UNL     1      39.770   7.209  19.881  0.00  0.00    +0.000 A 
ATOM     26 BR   UNL     1      41.370   6.207  20.269  0.00  0.00    +0.000 Br
ENDBRANCH  19  20
ENDBRANCH  18  19
ENDBRANCH   2  16
BRANCH   1  27
ATOM     27  C   UNL     1      36.551   4.368  13.732  0.00  0.00    +0.000 C 
BRANCH  27  28
ATOM     28  C   UNL     1      37.095   3.480  12.636  0.00  0.00    +0.000 C 
BRANCH  28  29
ATOM     29  C   UNL     1      38.492   3.898  12.231  0.00  0.00    +0.000 C 
BRANCH  29  30
ATOM     30  C   UNL     1      39.405   2.721  12.293  0.00  0.00    +0.000 C 
BRANCH  30  32
ATOM     31  C   UNL     1      40.878   4.575  12.890  0.00  0.00    +0.000 C 
ATOM     32  C   UNL     1      40.718   3.073  12.946  0.00  0.00    +0.000 C 
ENDBRANCH  30  32
ENDBRANCH  29  30
ENDBRANCH  28  29
ENDBRANCH  27  28
ENDBRANCH   1  27
TORSDOF 9
ENDMDL
MODEL 10
REMARK VINA RESULT:      -7.7      2.891      8.214
REMARK  Name = 
REMARK  9 active torsions:
REMARK  status: ('A' for Active; 'I' for Inactive)
REMARK    1  A    between atoms: C_2  and  C_3
REMARK    2  A    between atoms: C_3  and  C_4
REMARK    3  A    between atoms: C_4  and  C_5
REMARK    4  A    between atoms: C_5  and  C_6
REMARK    5  A    between atoms: C_6  and  C_7
REMARK    6  A    between atoms: C_8  and  C_9
REMARK    7  A    between atoms: N_11  and  C_12
REMARK    8  A    between atoms: C_12  and  C_13
REMARK    9  A    between atoms: C_20  and  C_21
REMARK                            x       y       z     vdW  Elec       q    Type
REMARK                         _______ _______ _______ _____ _____    ______ ____
ROOT
ATOM      1  C   UNL     1      38.428   7.539  16.031  0.00  0.00    +0.000 C 
ATOM      2  C   UNL     1      38.675   6.332  15.663  0.00  0.00    +0.000 C 
ATOM      3  C   UNL     1      40.246   6.163  15.667  0.00  0.00    +0.000 C 
ATOM      4  O   UNL     1      40.565   7.633  15.380  0.00  0.00    +0.000 OA
ATOM      5  N   UNL     1      39.677   8.200  16.237  0.00  0.00    +0.000 NA
ENDROOT
BRANCH   3   6
ATOM      6  C   UNL     1      40.476   6.240  17.235  0.00  0.00    +0.000 A 
ATOM      7  C   UNL     1      39.422   6.062  18.070  0.00  0.00    +0.000 A 
ATOM      8  C   UNL     1      39.609   6.133  19.462  0.00  0.00    +0.000 A 
ATOM      9  C   UNL     1      40.873   6.382  19.948  0.00  0.00    +0.000 A 
ATOM     10  C   UNL     1      41.958   6.566  19.114  0.00  0.00    +0.000 A 
ATOM     11  C   UNL     1      43.229   6.814  19.582  0.00  0.00    +0.000 A 
ATOM     12  C   UNL     1      44.248   6.982  18.694  0.00  0.00    +0.000 A 
ATOM     13  C   UNL     1      44.057   6.912  17.314  0.00  0.00    +0.000 A 
ATOM     14  C   UNL     1      42.779   6.663  16.900  0.00  0.00    +0.000 A 
ATOM     15  C   UNL     1      41.708   6.484  17.740  0.00  0.00    +0.000 A 
ENDBRANCH   3   6
BRANCH   2  16
ATOM     16  C   UNL     1      37.761   5.286  15.323  0.00  0.00    +0.000 C 
ATOM     17  O   UNL     1      37.089   5.373  14.255  0.00  0.00    +0.000 OA
ATOM     18  N   UNL     1      37.539   4.133  16.099  0.00  0.00    +0.000 NA
BRANCH  18  19
ATOM     19  C   UNL     1      36.609   3.136  15.688  0.00  0.00    +0.000 C 
BRANCH  19  20
ATOM     20  C   UNL     1      37.292   1.813  15.431  0.00  0.00    +0.000 A 
ATOM     21  C   UNL     1      38.465   1.728  14.748  0.00  0.00    +0.000 A 
ATOM     22  C   UNL     1      39.044   0.502  14.540  0.00  0.00    +0.000 A 
ATOM     23  C   UNL     1      38.474  -0.667  15.006  0.00  0.00    +0.000 A 
ATOM     24  C   UNL     1      37.283  -0.576  15.700  0.00  0.00    +0.000 A 
ATOM     25  C   UNL     1      36.709   0.658  15.902  0.00  0.00    +0.000 A 
ATOM     26 BR   UNL     1      35.047   0.784  16.870  0.00  0.00    +0.000 Br
ENDBRANCH  19  20
ENDBRANCH  18  19
ENDBRANCH   2  16
BRANCH   1  27
ATOM     27  C   UNL     1      37.119   8.250  16.225  0.00  0.00    +0.000 C 
BRANCH  27  28
ATOM     28  C   UNL     1      37.330   9.305  17.288  0.00  0.00    +0.000 C 
BRANCH  28  29
ATOM     29  C   UNL     1      37.090   8.746  18.674  0.00  0.00    +0.000 C 
BRANCH  29  30
ATOM     30  C   UNL     1      37.731   9.631  19.689  0.00  0.00    +0.000 C 
BRANCH  30  32
ATOM     31  C   UNL     1      39.913   9.907  20.749  0.00  0.00    +0.000 C 
ATOM     32  C   UNL     1      39.204   9.810  19.418  0.00  0.00    +0.000 C 
ENDBRANCH  30  32
ENDBRANCH  29  30
ENDBRANCH  28  29
ENDBRANCH  27  28
ENDBRANCH   1  27
TORSDOF 9
ENDMDL
