MODEL 1
REMARK VINA RESULT:      -8.3      0.000      0.000
REMARK  Name = 
REMARK  7 active torsions:
REMARK  status: ('A' for Active; 'I' for Inactive)
REMARK    1  A    between atoms: C_2  and  O_3
REMARK    2  A    between atoms: O_3  and  C_4
REMARK    3  A    between atoms: C_7  and  N_8
REMARK    4  A    between atoms: N_8  and  C_9
REMARK    5  A    between atoms: C_10  and  S_11
REMARK    6  A    between atoms: S_11  and  C_12
REMARK    7  A    between atoms: N_20  and  C_21
REMARK                            x       y       z     vdW  Elec       q    Type
REMARK                         _______ _______ _______ _____ _____    ______ ____
ROOT
ATOM      1  C   UNL     1      36.402   4.546  14.801  0.00  0.00    +0.000 C 
ATOM      2  C   UNL     1      37.707   4.335  15.026  0.00  0.00    +0.000 C 
ATOM      3  C   UNL     1      37.915   2.903  15.132  0.00  0.00    +0.000 C 
ATOM      4  O   UNL     1      39.018   2.338  15.342  0.00  0.00    +0.000 OA
ATOM      5  N   UNL     1      36.647   2.250  14.958  0.00  0.00    +0.000 N 
ATOM      6  C   UNL     1      35.701   3.280  14.749  0.00  0.00    +0.000 C 
ATOM      7  O   UNL     1      34.456   3.085  14.555  0.00  0.00    +0.000 OA
ENDROOT
BRANCH   5   8
ATOM      8  C   UNL     1      36.466   0.840  14.999  0.00  0.00    +0.000 A 
ATOM      9  C   UNL     1      36.916  -0.006  14.023  0.00  0.00    +0.000 A 
ATOM     10  C   UNL     1      36.721  -1.370  14.101  0.00  0.00    +0.000 A 
ATOM     11  C   UNL     1      36.059  -1.862  15.194  0.00  0.00    +0.000 A 
ATOM     12  C   UNL     1      35.598  -1.038  16.186  0.00  0.00    +0.000 A 
ATOM     13  C   UNL     1      34.875  -1.605  17.375  0.00  0.00    +0.000 C 
ATOM     14  C   UNL     1      35.807   0.320  16.082  0.00  0.00    +0.000 A 
ATOM     15  C   UNL     1      35.295   1.211  17.181  0.00  0.00    +0.000 C 
ENDBRANCH   5   8
BRANCH   1  16
ATOM     16  N   UNL     1      35.758   5.815  14.632  0.00  0.00    +0.000 NA
BRANCH  16  20
ATOM     17  C   UNL     1      34.188   6.993  10.882  0.00  0.00    +0.000 A 
ATOM     18  C   UNL     1      35.431   6.384  10.992  0.00  0.00    +0.000 A 
ATOM     19  C   UNL     1      35.910   6.014  12.231  0.00  0.00    +0.000 A 
ATOM     20  C   UNL     1      35.207   6.218  13.398  0.00  0.00    +0.000 A 
ATOM     21  C   UNL     1      33.973   6.822  13.280  0.00  0.00    +0.000 A 
ATOM     22  C   UNL     1      33.470   7.204  12.041  0.00  0.00    +0.000 A 
BRANCH  17  23
ATOM     23  O   UNL     1      33.662   7.382   9.660  0.00  0.00    +0.000 OA
BRANCH  23  25
ATOM     24  C   UNL     1      33.896   6.241   7.553  0.00  0.00    +0.000 C 
ATOM     25  C   UNL     1      34.390   7.329   8.469  0.00  0.00    +0.000 C 
ENDBRANCH  23  25
ENDBRANCH  17  23
ENDBRANCH  16  20
ENDBRANCH   1  16
BRANCH   2  26
ATOM     26  S   UNL     1      38.817   5.693  15.141  0.00  0.00    +0.000 S 
BRANCH  26  27
ATOM     27  C   UNL     1      39.588   5.924  16.709  0.00  0.00    +0.000 A 
ATOM     28  C   UNL     1      40.882   6.291  16.899  0.00  0.00    +0.000 A 
ATOM     29  C   UNL     1      41.407   6.448  18.141  0.00  0.00    +0.000 A 
ATOM     30  C   UNL     1      40.657   6.247  19.297  0.00  0.00    +0.000 A 
ATOM     31  C   UNL     1      39.332   5.873  19.095  0.00  0.00    +0.000 A 
ATOM     32  C   UNL     1      38.806   5.714  17.853  0.00  0.00    +0.000 A 
ENDBRANCH  26  27
ENDBRANCH   2  26
TORSDOF 7
ENDMDL
MODEL 2
REMARK VINA RESULT:      -8.2      2.004      7.977
REMARK  Name = 
REMARK  7 active torsions:
REMARK  status: ('A' for Active; 'I' for Inactive)
REMARK    1  A    between atoms: C_2  and  O_3
REMARK    2  A    between atoms: O_3  and  C_4
REMARK    3  A    between atoms: C_7  and  N_8
REMARK    4  A    between atoms: N_8  and  C_9
REMARK    5  A    between atoms: C_10  and  S_11
REMARK    6  A    between atoms: S_11  and  C_12
REMARK    7  A    between atoms: N_20  and  C_21
REMARK                            x       y       z     vdW  Elec       q    Type
REMARK                         _______ _______ _______ _____ _____    ______ ____
ROOT
ATOM      1  C   UNL     1      36.971   4.214  14.683  0.00  0.00    +0.000 C 
ATOM      2  C   UNL     1      36.581   5.496  14.694  0.00  0.00    +0.000 C 
ATOM      3  C   UNL     1      37.643   6.280  15.297  0.00  0.00    +0.000 C 
ATOM      4  O   UNL     1      37.625   7.524  15.473  0.00  0.00    +0.000 OA
ATOM      5  N   UNL     1      38.712   5.387  15.656  0.00  0.00    +0.000 N 
ATOM      6  C   UNL     1      38.289   4.095  15.270  0.00  0.00    +0.000 C 
ATOM      7  O   UNL     1      38.979   3.034  15.430  0.00  0.00    +0.000 OA
ENDROOT
BRANCH   5   8
ATOM      8  C   UNL     1      39.922   5.806  16.274  0.00  0.00    +0.000 A 
ATOM      9  C   UNL     1      41.044   6.155  15.573  0.00  0.00    +0.000 A 
ATOM     10  C   UNL     1      42.200   6.557  16.211  0.00  0.00    +0.000 A 
ATOM     11  C   UNL     1      42.197   6.598  17.579  0.00  0.00    +0.000 A 
ATOM     12  C   UNL     1      41.088   6.252  18.307  0.00  0.00    +0.000 A 
ATOM     13  C   UNL     1      41.113   6.306  19.807  0.00  0.00    +0.000 C 
ATOM     14  C   UNL     1      39.948   5.856  17.643  0.00  0.00    +0.000 A 
ATOM     15  C   UNL     1      38.738   5.480  18.456  0.00  0.00    +0.000 C 
ENDBRANCH   5   8
BRANCH   1  16
ATOM     16  N   UNL     1      36.226   3.099  14.177  0.00  0.00    +0.000 NA
BRANCH  16  20
ATOM     17  C   UNL     1      35.355  -0.258  16.605  0.00  0.00    +0.000 A 
ATOM     18  C   UNL     1      34.895   1.013  16.926  0.00  0.00    +0.000 A 
ATOM     19  C   UNL     1      35.199   2.083  16.112  0.00  0.00    +0.000 A 
ATOM     20  C   UNL     1      35.953   1.961  14.965  0.00  0.00    +0.000 A 
ATOM     21  C   UNL     1      36.405   0.696  14.652  0.00  0.00    +0.000 A 
ATOM     22  C   UNL     1      36.111  -0.397  15.459  0.00  0.00    +0.000 A 
BRANCH  17  23
ATOM     23  O   UNL     1      35.076  -1.365  17.391  0.00  0.00    +0.000 OA
BRANCH  23  25
ATOM     24  C   UNL     1      36.835  -1.459  19.032  0.00  0.00    +0.000 C 
ATOM     25  C   UNL     1      36.072  -2.171  17.947  0.00  0.00    +0.000 C 
ENDBRANCH  23  25
ENDBRANCH  17  23
ENDBRANCH  16  20
ENDBRANCH   1  16
BRANCH   2  26
ATOM     26  S   UNL     1      35.013   5.952  14.043  0.00  0.00    +0.000 S 
BRANCH  26  27
ATOM     27  C   UNL     1      34.976   6.327  12.322  0.00  0.00    +0.000 A 
ATOM     28  C   UNL     1      34.061   7.127  11.714  0.00  0.00    +0.000 A 
ATOM     29  C   UNL     1      34.096   7.369  10.378  0.00  0.00    +0.000 A 
ATOM     30  C   UNL     1      35.067   6.817   9.547  0.00  0.00    +0.000 A 
ATOM     31  C   UNL     1      36.001   5.998  10.177  0.00  0.00    +0.000 A 
ATOM     32  C   UNL     1      35.966   5.755  11.512  0.00  0.00    +0.000 A 
ENDBRANCH  26  27
ENDBRANCH   2  26
TORSDOF 7
ENDMDL
MODEL 3
REMARK VINA RESULT:      -8.1      1.576      5.731
REMARK  Name = 
REMARK  7 active torsions:
REMARK  status: ('A' for Active; 'I' for Inactive)
REMARK    1  A    between atoms: C_2  and  O_3
REMARK    2  A    between atoms: O_3  and  C_4
REMARK    3  A    between atoms: C_7  and  N_8
REMARK    4  A    between atoms: N_8  and  C_9
REMARK    5  A    between atoms: C_10  and  S_11
REMARK    6  A    between atoms: S_11  and  C_12
REMARK    7  A    between atoms: N_20  and  C_21
REMARK                            x       y       z     vdW  Elec       q    Type
REMARK                         _______ _______ _______ _____ _____    ______ ____
ROOT
ATOM      1  C   UNL     1      36.474   5.228  14.680  0.00  0.00    +0.000 C 
ATOM      2  C   UNL     1      36.893   3.960  14.798  0.00  0.00    +0.000 C 
ATOM      3  C   UNL     1      38.218   3.980  15.389  0.00  0.00    +0.000 C 
ATOM      4  O   UNL     1      38.920   2.971  15.647  0.00  0.00    +0.000 OA
ATOM      5  N   UNL     1      38.584   5.351  15.623  0.00  0.00    +0.000 N 
ATOM      6  C   UNL     1      37.491   6.130  15.179  0.00  0.00    +0.000 C 
ATOM      7  O   UNL     1      37.449   7.404  15.227  0.00  0.00    +0.000 OA
ENDROOT
BRANCH   5   8
ATOM      8  C   UNL     1      39.822   5.756  16.194  0.00  0.00    +0.000 A 
ATOM      9  C   UNL     1      40.931   6.057  15.453  0.00  0.00    +0.000 A 
ATOM     10  C   UNL     1      42.115   6.448  16.047  0.00  0.00    +0.000 A 
ATOM     11  C   UNL     1      42.151   6.529  17.413  0.00  0.00    +0.000 A 
ATOM     12  C   UNL     1      41.055   6.233  18.180  0.00  0.00    +0.000 A 
ATOM     13  C   UNL     1      41.123   6.331  19.677  0.00  0.00    +0.000 C 
ATOM     14  C   UNL     1      39.887   5.846  17.560  0.00  0.00    +0.000 A 
ATOM     15  C   UNL     1      38.692   5.525  18.417  0.00  0.00    +0.000 C 
ENDBRANCH   5   8
BRANCH   1  16
ATOM     16  N   UNL     1      35.220   5.667  14.145  0.00  0.00    +0.000 NA
BRANCH  16  20
ATOM     17  C   UNL     1      34.737   7.041  10.171  0.00  0.00    +0.000 A 
ATOM     18  C   UNL     1      33.835   7.376  11.172  0.00  0.00    +0.000 A 
ATOM     19  C   UNL     1      34.024   6.910  12.455  0.00  0.00    +0.000 A 
ATOM     20  C   UNL     1      35.087   6.110  12.812  0.00  0.00    +0.000 A 
ATOM     21  C   UNL     1      35.978   5.782  11.812  0.00  0.00    +0.000 A 
ATOM     22  C   UNL     1      35.807   6.240  10.511  0.00  0.00    +0.000 A 
BRANCH  17  23
ATOM     23  O   UNL     1      34.590   7.485   8.866  0.00  0.00    +0.000 OA
BRANCH  23  25
ATOM     24  C   UNL     1      34.421   5.771   7.182  0.00  0.00    +0.000 C 
ATOM     25  C   UNL     1      33.735   6.871   7.947  0.00  0.00    +0.000 C 
ENDBRANCH  23  25
ENDBRANCH  17  23
ENDBRANCH  16  20
ENDBRANCH   1  16
BRANCH   2  26
ATOM     26  S   UNL     1      35.865   2.634  14.271  0.00  0.00    +0.000 S 
BRANCH  26  27
ATOM     27  C   UNL     1      35.681   1.305  15.412  0.00  0.00    +0.000 A 
ATOM     28  C   UNL     1      34.983   1.363  16.577  0.00  0.00    +0.000 A 
ATOM     29  C   UNL     1      34.886   0.294  17.408  0.00  0.00    +0.000 A 
ATOM     30  C   UNL     1      35.491  -0.927  17.124  0.00  0.00    +0.000 A 
ATOM     31  C   UNL     1      36.203  -0.980  15.929  0.00  0.00    +0.000 A 
ATOM     32  C   UNL     1      36.301   0.088  15.097  0.00  0.00    +0.000 A 
ENDBRANCH  26  27
ENDBRANCH   2  26
TORSDOF 7
ENDMDL
MODEL 4
REMARK VINA RESULT:      -8.1     24.436     27.632
REMARK  Name = 
REMARK  7 active torsions:
REMARK  status: ('A' for Active; 'I' for Inactive)
REMARK    1  A    between atoms: C_2  and  O_3
REMARK    2  A    between atoms: O_3  and  C_4
REMARK    3  A    between atoms: C_7  and  N_8
REMARK    4  A    between atoms: N_8  and  C_9
REMARK    5  A    between atoms: C_10  and  S_11
REMARK    6  A    between atoms: S_11  and  C_12
REMARK    7  A    between atoms: N_20  and  C_21
REMARK                            x       y       z     vdW  Elec       q    Type
REMARK                         _______ _______ _______ _____ _____    ______ ____
ROOT
ATOM      1  C   UNL     1      27.409  15.497  38.159  0.00  0.00    +0.000 C 
ATOM      2  C   UNL     1      28.545  15.589  37.453  0.00  0.00    +0.000 C 
ATOM      3  C   UNL     1      28.193  15.636  36.046  0.00  0.00    +0.000 C 
ATOM      4  O   UNL     1      29.005  15.723  35.091  0.00  0.00    +0.000 OA
ATOM      5  N   UNL     1      26.761  15.565  35.938  0.00  0.00    +0.000 N 
ATOM      6  C   UNL     1      26.272  15.479  37.262  0.00  0.00    +0.000 C 
ATOM      7  O   UNL     1      25.038  15.399  37.569  0.00  0.00    +0.000 OA
ENDROOT
BRANCH   5   8
ATOM      8  C   UNL     1      26.055  15.585  34.704  0.00  0.00    +0.000 A 
ATOM      9  C   UNL     1      25.889  14.482  33.913  0.00  0.00    +0.000 A 
ATOM     10  C   UNL     1      25.195  14.543  32.721  0.00  0.00    +0.000 A 
ATOM     11  C   UNL     1      24.671  15.751  32.345  0.00  0.00    +0.000 A 
ATOM     12  C   UNL     1      24.823  16.873  33.118  0.00  0.00    +0.000 A 
ATOM     13  C   UNL     1      24.237  18.185  32.681  0.00  0.00    +0.000 C 
ATOM     14  C   UNL     1      25.520  16.781  34.303  0.00  0.00    +0.000 A 
ATOM     15  C   UNL     1      25.678  18.022  35.140  0.00  0.00    +0.000 C 
ENDBRANCH   5   8
BRANCH   1  16
ATOM     16  N   UNL     1      27.294  15.424  39.585  0.00  0.00    +0.000 NA
BRANCH  16  20
ATOM     17  C   UNL     1      27.594  11.776  41.710  0.00  0.00    +0.000 A 
ATOM     18  C   UNL     1      28.578  12.752  41.797  0.00  0.00    +0.000 A 
ATOM     19  C   UNL     1      28.446  13.928  41.090  0.00  0.00    +0.000 A 
ATOM     20  C   UNL     1      27.364  14.199  40.281  0.00  0.00    +0.000 A 
ATOM     21  C   UNL     1      26.392  13.225  40.201  0.00  0.00    +0.000 A 
ATOM     22  C   UNL     1      26.504  12.031  40.905  0.00  0.00    +0.000 A 
BRANCH  17  23
ATOM     23  O   UNL     1      27.680  10.577  42.402  0.00  0.00    +0.000 OA
BRANCH  23  25
ATOM     24  C   UNL     1      29.036   9.399  40.797  0.00  0.00    +0.000 C 
ATOM     25  C   UNL     1      27.887   9.349  41.769  0.00  0.00    +0.000 C 
ENDBRANCH  23  25
ENDBRANCH  17  23
ENDBRANCH  16  20
ENDBRANCH   1  16
BRANCH   2  26
ATOM     26  S   UNL     1      30.099  15.632  38.274  0.00  0.00    +0.000 S 
BRANCH  26  27
ATOM     27  C   UNL     1      31.074  14.170  38.148  0.00  0.00    +0.000 A 
ATOM     28  C   UNL     1      31.486  13.411  39.198  0.00  0.00    +0.000 A 
ATOM     29  C   UNL     1      32.238  12.294  39.022  0.00  0.00    +0.000 A 
ATOM     30  C   UNL     1      32.635  11.855  37.762  0.00  0.00    +0.000 A 
ATOM     31  C   UNL     1      32.209  12.636  36.692  0.00  0.00    +0.000 A 
ATOM     32  C   UNL     1      31.457  13.753  36.866  0.00  0.00    +0.000 A 
ENDBRANCH  26  27
ENDBRANCH   2  26
TORSDOF 7
ENDMDL
MODEL 5
REMARK VINA RESULT:      -8.0      2.742      4.087
REMARK  Name = 
REMARK  7 active torsions:
REMARK  status: ('A' for Active; 'I' for Inactive)
REMARK    1  A    between atoms: C_2  and  O_3
REMARK    2  A    between atoms: O_3  and  C_4
REMARK    3  A    between atoms: C_7  and  N_8
REMARK    4  A    between atoms: N_8  and  C_9
REMARK    5  A    between atoms: C_10  and  S_11
REMARK    6  A    between atoms: S_11  and  C_12
REMARK    7  A    between atoms: N_20  and  C_21
REMARK                            x       y       z     vdW  Elec       q    Type
REMARK                         _______ _______ _______ _____ _____    ______ ____
ROOT
ATOM      1  C   UNL     1      36.951   5.845  14.811  0.00  0.00    +0.000 C 
ATOM      2  C   UNL     1      37.974   5.590  15.640  0.00  0.00    +0.000 C 
ATOM      3  C   UNL     1      37.839   4.222  16.106  0.00  0.00    +0.000 C 
ATOM      4  O   UNL     1      38.620   3.639  16.899  0.00  0.00    +0.000 OA
ATOM      5  N   UNL     1      36.662   3.657  15.505  0.00  0.00    +0.000 N 
ATOM      6  C   UNL     1      36.108   4.674  14.695  0.00  0.00    +0.000 C 
ATOM      7  O   UNL     1      35.048   4.542  13.999  0.00  0.00    +0.000 OA
ENDROOT
BRANCH   5   8
ATOM      8  C   UNL     1      36.214   2.327  15.734  0.00  0.00    +0.000 A 
ATOM      9  C   UNL     1      35.319   1.990  16.712  0.00  0.00    +0.000 A 
ATOM     10  C   UNL     1      34.908   0.686  16.901  0.00  0.00    +0.000 A 
ATOM     11  C   UNL     1      35.425  -0.275  16.075  0.00  0.00    +0.000 A 
ATOM     12  C   UNL     1      36.324   0.033  15.087  0.00  0.00    +0.000 A 
ATOM     13  C   UNL     1      36.875  -1.042  14.195  0.00  0.00    +0.000 C 
ATOM     14  C   UNL     1      36.715   1.344  14.922  0.00  0.00    +0.000 A 
ATOM     15  C   UNL     1      37.702   1.666  13.832  0.00  0.00    +0.000 C 
ENDBRANCH   5   8
BRANCH   1  16
ATOM     16  N   UNL     1      36.694   7.077  14.125  0.00  0.00    +0.000 NA
BRANCH  16  20
ATOM     17  C   UNL     1      34.265  10.117  15.789  0.00  0.00    +0.000 A 
ATOM     18  C   UNL     1      35.642  10.106  15.968  0.00  0.00    +0.000 A 
ATOM     19  C   UNL     1      36.401   9.099  15.411  0.00  0.00    +0.000 A 
ATOM     20  C   UNL     1      35.858   8.076  14.666  0.00  0.00    +0.000 A 
ATOM     21  C   UNL     1      34.490   8.094  14.492  0.00  0.00    +0.000 A 
ATOM     22  C   UNL     1      33.705   9.100  15.045  0.00  0.00    +0.000 A 
BRANCH  17  23
ATOM     23  O   UNL     1      33.458  11.107  16.328  0.00  0.00    +0.000 OA
BRANCH  23  25
ATOM     24  C   UNL     1      32.324  10.319  18.300  0.00  0.00    +0.000 C 
ATOM     25  C   UNL     1      33.303  11.294  17.703  0.00  0.00    +0.000 C 
ENDBRANCH  23  25
ENDBRANCH  17  23
ENDBRANCH  16  20
ENDBRANCH   1  16
BRANCH   2  26
ATOM     26  S   UNL     1      39.171   6.832  15.980  0.00  0.00    +0.000 S 
BRANCH  26  27
ATOM     27  C   UNL     1      40.003   6.692  17.527  0.00  0.00    +0.000 A 
ATOM     28  C   UNL     1      39.395   6.619  18.740  0.00  0.00    +0.000 A 
ATOM     29  C   UNL     1      40.105   6.514  19.892  0.00  0.00    +0.000 A 
ATOM     30  C   UNL     1      41.496   6.473  19.907  0.00  0.00    +0.000 A 
ATOM     31  C   UNL     1      42.113   6.548  18.661  0.00  0.00    +0.000 A 
ATOM     32  C   UNL     1      41.404   6.653  17.508  0.00  0.00    +0.000 A 
ENDBRANCH  26  27
ENDBRANCH   2  26
TORSDOF 7
ENDMDL
MODEL 6
REMARK VINA RESULT:      -7.9      2.438      7.607
REMARK  Name = 
REMARK  7 active torsions:
REMARK  status: ('A' for Active; 'I' for Inactive)
REMARK    1  A    between atoms: C_2  and  O_3
REMARK    2  A    between atoms: O_3  and  C_4
REMARK    3  A    between atoms: C_7  and  N_8
REMARK    4  A    between atoms: N_8  and  C_9
REMARK    5  A    between atoms: C_10  and  S_11
REMARK    6  A    between atoms: S_11  and  C_12
REMARK    7  A    between atoms: N_20  and  C_21
REMARK                            x       y       z     vdW  Elec       q    Type
REMARK                         _______ _______ _______ _____ _____    ______ ____
ROOT
ATOM      1  C   UNL     1      37.076   4.087  14.612  0.00  0.00    +0.000 C 
ATOM      2  C   UNL     1      36.648   5.358  14.631  0.00  0.00    +0.000 C 
ATOM      3  C   UNL     1      37.665   6.162  15.282  0.00  0.00    +0.000 C 
ATOM      4  O   UNL     1      37.604   7.402  15.478  0.00  0.00    +0.000 OA
ATOM      5  N   UNL     1      38.747   5.295  15.664  0.00  0.00    +0.000 N 
ATOM      6  C   UNL     1      38.377   3.997  15.243  0.00  0.00    +0.000 C 
ATOM      7  O   UNL     1      39.092   2.955  15.409  0.00  0.00    +0.000 OA
ENDROOT
BRANCH   5   8
ATOM      8  C   UNL     1      39.923   5.738  16.329  0.00  0.00    +0.000 A 
ATOM      9  C   UNL     1      41.062   6.119  15.673  0.00  0.00    +0.000 A 
ATOM     10  C   UNL     1      42.183   6.544  16.357  0.00  0.00    +0.000 A 
ATOM     11  C   UNL     1      42.127   6.576  17.724  0.00  0.00    +0.000 A 
ATOM     12  C   UNL     1      41.000   6.200  18.407  0.00  0.00    +0.000 A 
ATOM     13  C   UNL     1      40.967   6.246  19.908  0.00  0.00    +0.000 C 
ATOM     14  C   UNL     1      39.896   5.781  17.698  0.00  0.00    +0.000 A 
ATOM     15  C   UNL     1      38.666   5.372  18.463  0.00  0.00    +0.000 C 
ENDBRANCH   5   8
BRANCH   1  16
ATOM     16  N   UNL     1      36.383   2.960  14.064  0.00  0.00    +0.000 NA
BRANCH  16  20
ATOM     17  C   UNL     1      35.496  -0.504  16.329  0.00  0.00    +0.000 A 
ATOM     18  C   UNL     1      36.367  -0.544  15.248  0.00  0.00    +0.000 A 
ATOM     19  C   UNL     1      36.632   0.604  14.533  0.00  0.00    +0.000 A 
ATOM     20  C   UNL     1      36.068   1.824  14.839  0.00  0.00    +0.000 A 
ATOM     21  C   UNL     1      35.205   1.855  15.914  0.00  0.00    +0.000 A 
ATOM     22  C   UNL     1      34.923   0.709  16.649  0.00  0.00    +0.000 A 
BRANCH  17  23
ATOM     23  O   UNL     1      35.198  -1.631  17.079  0.00  0.00    +0.000 OA
BRANCH  23  25
ATOM     24  C   UNL     1      34.258  -3.418  15.768  0.00  0.00    +0.000 C 
ATOM     25  C   UNL     1      35.406  -2.930  16.611  0.00  0.00    +0.000 C 
ENDBRANCH  23  25
ENDBRANCH  17  23
ENDBRANCH  16  20
ENDBRANCH   1  16
BRANCH   2  26
ATOM     26  S   UNL     1      35.090   5.779  13.934  0.00  0.00    +0.000 S 
BRANCH  26  27
ATOM     27  C   UNL     1      34.738   7.502  13.823  0.00  0.00    +0.000 A 
ATOM     28  C   UNL     1      34.136   8.242  14.791  0.00  0.00    +0.000 A 
ATOM     29  C   UNL     1      33.897   9.569  14.632  0.00  0.00    +0.000 A 
ATOM     30  C   UNL     1      34.252  10.256  13.475  0.00  0.00    +0.000 A 
ATOM     31  C   UNL     1      34.869   9.492  12.489  0.00  0.00    +0.000 A 
ATOM     32  C   UNL     1      35.108   8.164  12.646  0.00  0.00    +0.000 A 
ENDBRANCH  26  27
ENDBRANCH   2  26
TORSDOF 7
ENDMDL
MODEL 7
REMARK VINA RESULT:      -7.8      2.008      6.863
REMARK  Name = 
REMARK  7 active torsions:
REMARK  status: ('A' for Active; 'I' for Inactive)
REMARK    1  A    between atoms: C_2  and  O_3
REMARK    2  A    between atoms: O_3  and  C_4
REMARK    3  A    between atoms: C_7  and  N_8
REMARK    4  A    between atoms: N_8  and  C_9
REMARK    5  A    between atoms: C_10  and  S_11
REMARK    6  A    between atoms: S_11  and  C_12
REMARK    7  A    between atoms: N_20  and  C_21
REMARK                            x       y       z     vdW  Elec       q    Type
REMARK                         _______ _______ _______ _____ _____    ______ ____
ROOT
ATOM      1  C   UNL     1      37.222   3.899  15.348  0.00  0.00    +0.000 C 
ATOM      2  C   UNL     1      37.147   3.562  14.053  0.00  0.00    +0.000 C 
ATOM      3  C   UNL     1      36.921   2.131  13.978  0.00  0.00    +0.000 C 
ATOM      4  O   UNL     1      36.798   1.463  12.920  0.00  0.00    +0.000 OA
ATOM      5  N   UNL     1      36.864   1.613  15.318  0.00  0.00    +0.000 N 
ATOM      6  C   UNL     1      37.052   2.722  16.175  0.00  0.00    +0.000 C 
ATOM      7  O   UNL     1      37.064   2.655  17.448  0.00  0.00    +0.000 OA
ENDROOT
BRANCH   5   8
ATOM      8  C   UNL     1      36.654   0.243  15.633  0.00  0.00    +0.000 A 
ATOM      9  C   UNL     1      35.449  -0.261  16.039  0.00  0.00    +0.000 A 
ATOM     10  C   UNL     1      35.286  -1.600  16.335  0.00  0.00    +0.000 A 
ATOM     11  C   UNL     1      36.374  -2.421  16.210  0.00  0.00    +0.000 A 
ATOM     12  C   UNL     1      37.593  -1.943  15.805  0.00  0.00    +0.000 A 
ATOM     13  C   UNL     1      38.770  -2.868  15.676  0.00  0.00    +0.000 C 
ATOM     14  C   UNL     1      37.726  -0.603  15.516  0.00  0.00    +0.000 A 
ATOM     15  C   UNL     1      39.071  -0.094  15.073  0.00  0.00    +0.000 C 
ENDBRANCH   5   8
BRANCH   1  16
ATOM     16  N   UNL     1      37.439   5.213  15.877  0.00  0.00    +0.000 NA
BRANCH  16  20
ATOM     17  C   UNL     1      40.820   6.141  18.248  0.00  0.00    +0.000 A 
ATOM     18  C   UNL     1      40.887   6.120  16.861  0.00  0.00    +0.000 A 
ATOM     19  C   UNL     1      39.765   5.813  16.121  0.00  0.00    +0.000 A 
ATOM     20  C   UNL     1      38.547   5.519  16.695  0.00  0.00    +0.000 A 
ATOM     21  C   UNL     1      38.489   5.542  18.072  0.00  0.00    +0.000 A 
ATOM     22  C   UNL     1      39.608   5.849  18.838  0.00  0.00    +0.000 A 
BRANCH  17  23
ATOM     23  O   UNL     1      41.920   6.443  19.036  0.00  0.00    +0.000 OA
BRANCH  23  25
ATOM     24  C   UNL     1      43.218   6.172  21.046  0.00  0.00    +0.000 C 
ATOM     25  C   UNL     1      41.873   6.457  20.432  0.00  0.00    +0.000 C 
ENDBRANCH  23  25
ENDBRANCH  17  23
ENDBRANCH  16  20
ENDBRANCH   1  16
BRANCH   2  26
ATOM     26  S   UNL     1      37.319   4.788  12.805  0.00  0.00    +0.000 S 
BRANCH  26  27
ATOM     27  C   UNL     1      35.877   5.740  12.460  0.00  0.00    +0.000 A 
ATOM     28  C   UNL     1      34.924   6.075  13.368  0.00  0.00    +0.000 A 
ATOM     29  C   UNL     1      33.837   6.813  13.027  0.00  0.00    +0.000 A 
ATOM     30  C   UNL     1      33.628   7.273  11.730  0.00  0.00    +0.000 A 
ATOM     31  C   UNL     1      34.608   6.927  10.804  0.00  0.00    +0.000 A 
ATOM     32  C   UNL     1      35.696   6.189  11.145  0.00  0.00    +0.000 A 
ENDBRANCH  26  27
ENDBRANCH   2  26
TORSDOF 7
ENDMDL
MODEL 8
REMARK VINA RESULT:      -7.6      4.267      7.370
REMARK  Name = 
REMARK  7 active torsions:
REMARK  status: ('A' for Active; 'I' for Inactive)
REMARK    1  A    between atoms: C_2  and  O_3
REMARK    2  A    between atoms: O_3  and  C_4
REMARK    3  A    between atoms: C_7  and  N_8
REMARK    4  A    between atoms: N_8  and  C_9
REMARK    5  A    between atoms: C_10  and  S_11
REMARK    6  A    between atoms: S_11  and  C_12
REMARK    7  A    between atoms: N_20  and  C_21
REMARK                            x       y       z     vdW  Elec       q    Type
REMARK                         _______ _______ _______ _____ _____    ______ ____
ROOT
ATOM      1  C   UNL     1      37.594  -0.002  13.365  0.00  0.00    +0.000 C 
ATOM      2  C   UNL     1      37.328  -1.150  14.006  0.00  0.00    +0.000 C 
ATOM      3  C   UNL     1      38.289  -2.142  13.561  0.00  0.00    +0.000 C 
ATOM      4  O   UNL     1      38.342  -3.335  13.951  0.00  0.00    +0.000 OA
ATOM      5  N   UNL     1      39.162  -1.523  12.601  0.00  0.00    +0.000 N 
ATOM      6  C   UNL     1      38.726  -0.184  12.480  0.00  0.00    +0.000 C 
ATOM      7  O   UNL     1      39.262   0.682  11.714  0.00  0.00    +0.000 OA
ENDROOT
BRANCH   5   8
ATOM      8  C   UNL     1      40.231  -2.197  11.949  0.00  0.00    +0.000 A 
ATOM      9  C   UNL     1      40.128  -2.739  10.698  0.00  0.00    +0.000 A 
ATOM     10  C   UNL     1      41.191  -3.385  10.099  0.00  0.00    +0.000 A 
ATOM     11  C   UNL     1      42.365  -3.471  10.797  0.00  0.00    +0.000 A 
ATOM     12  C   UNL     1      42.496  -2.937  12.052  0.00  0.00    +0.000 A 
ATOM     13  C   UNL     1      43.797  -3.045  12.795  0.00  0.00    +0.000 C 
ATOM     14  C   UNL     1      41.419  -2.297  12.624  0.00  0.00    +0.000 A 
ATOM     15  C   UNL     1      41.579  -1.716  14.004  0.00  0.00    +0.000 C 
ENDBRANCH   5   8
BRANCH   1  16
ATOM     16  N   UNL     1      36.888   1.237  13.505  0.00  0.00    +0.000 NA
BRANCH  16  20
ATOM     17  C   UNL     1      37.996   4.184  16.333  0.00  0.00    +0.000 A 
ATOM     18  C   UNL     1      36.852   3.413  16.495  0.00  0.00    +0.000 A 
ATOM     19  C   UNL     1      36.523   2.463  15.553  0.00  0.00    +0.000 A 
ATOM     20  C   UNL     1      37.285   2.226  14.429  0.00  0.00    +0.000 A 
ATOM     21  C   UNL     1      38.419   2.995  14.277  0.00  0.00    +0.000 A 
ATOM     22  C   UNL     1      38.770   3.959  15.214  0.00  0.00    +0.000 A 
BRANCH  17  23
ATOM     23  O   UNL     1      38.370   5.152  17.253  0.00  0.00    +0.000 OA
BRANCH  23  25
ATOM     24  C   UNL     1      39.453   6.070  19.198  0.00  0.00    +0.000 C 
ATOM     25  C   UNL     1      38.948   4.843  18.486  0.00  0.00    +0.000 C 
ENDBRANCH  23  25
ENDBRANCH  17  23
ENDBRANCH  16  20
ENDBRANCH   1  16
BRANCH   2  26
ATOM     26  S   UNL     1      35.998  -1.238  15.153  0.00  0.00    +0.000 S 
BRANCH  26  27
ATOM     27  C   UNL     1      36.452  -1.235  16.856  0.00  0.00    +0.000 A 
ATOM     28  C   UNL     1      35.752  -0.632  17.852  0.00  0.00    +0.000 A 
ATOM     29  C   UNL     1      36.166  -0.673  19.145  0.00  0.00    +0.000 A 
ATOM     30  C   UNL     1      37.328  -1.332  19.533  0.00  0.00    +0.000 A 
ATOM     31  C   UNL     1      38.040  -1.948  18.508  0.00  0.00    +0.000 A 
ATOM     32  C   UNL     1      37.628  -1.908  17.215  0.00  0.00    +0.000 A 
ENDBRANCH  26  27
ENDBRANCH   2  26
TORSDOF 7
ENDMDL
MODEL 9
REMARK VINA RESULT:      -7.6      1.803      6.931
REMARK  Name = 
REMARK  7 active torsions:
REMARK  status: ('A' for Active; 'I' for Inactive)
REMARK    1  A    between atoms: C_2  and  O_3
REMARK    2  A    between atoms: O_3  and  C_4
REMARK    3  A    between atoms: C_7  and  N_8
REMARK    4  A    between atoms: N_8  and  C_9
REMARK    5  A    between atoms: C_10  and  S_11
REMARK    6  A    between atoms: S_11  and  C_12
REMARK    7  A    between atoms: N_20  and  C_21
REMARK                            x       y       z     vdW  Elec       q    Type
REMARK                         _______ _______ _______ _____ _____    ______ ____
ROOT
ATOM      1  C   UNL     1      36.683   3.886  15.712  0.00  0.00    +0.000 C 
ATOM      2  C   UNL     1      37.651   4.811  15.638  0.00  0.00    +0.000 C 
ATOM      3  C   UNL     1      37.302   5.737  14.577  0.00  0.00    +0.000 C 
ATOM      4  O   UNL     1      37.981   6.734  14.224  0.00  0.00    +0.000 OA
ATOM      5  N   UNL     1      36.054   5.314  14.003  0.00  0.00    +0.000 N 
ATOM      6  C   UNL     1      35.667   4.156  14.715  0.00  0.00    +0.000 C 
ATOM      7  O   UNL     1      34.602   3.493  14.488  0.00  0.00    +0.000 OA
ENDROOT
BRANCH   5   8
ATOM      8  C   UNL     1      35.402   5.987  12.933  0.00  0.00    +0.000 A 
ATOM      9  C   UNL     1      34.334   6.823  13.108  0.00  0.00    +0.000 A 
ATOM     10  C   UNL     1      33.730   7.459  12.041  0.00  0.00    +0.000 A 
ATOM     11  C   UNL     1      34.233   7.229  10.789  0.00  0.00    +0.000 A 
ATOM     12  C   UNL     1      35.302   6.396  10.585  0.00  0.00    +0.000 A 
ATOM     13  C   UNL     1      35.833   6.163   9.200  0.00  0.00    +0.000 C 
ATOM     14  C   UNL     1      35.885   5.776  11.668  0.00  0.00    +0.000 A 
ATOM     15  C   UNL     1      37.058   4.865  11.427  0.00  0.00    +0.000 C 
ENDBRANCH   5   8
BRANCH   1  16
ATOM     16  N   UNL     1      36.626   2.781  16.621  0.00  0.00    +0.000 NA
BRANCH  16  20
ATOM     17  C   UNL     1      36.377  -1.204  15.217  0.00  0.00    +0.000 A 
ATOM     18  C   UNL     1      37.315  -0.312  14.714  0.00  0.00    +0.000 A 
ATOM     19  C   UNL     1      37.366   0.978  15.196  0.00  0.00    +0.000 A 
ATOM     20  C   UNL     1      36.518   1.447  16.175  0.00  0.00    +0.000 A 
ATOM     21  C   UNL     1      35.590   0.555  16.669  0.00  0.00    +0.000 A 
ATOM     22  C   UNL     1      35.520  -0.751  16.199  0.00  0.00    +0.000 A 
BRANCH  17  23
ATOM     23  O   UNL     1      36.286  -2.512  14.766  0.00  0.00    +0.000 OA
BRANCH  23  25
ATOM     24  C   UNL     1      36.252  -4.382  16.283  0.00  0.00    +0.000 C 
ATOM     25  C   UNL     1      35.472  -3.470  15.375  0.00  0.00    +0.000 C 
ENDBRANCH  23  25
ENDBRANCH  17  23
ENDBRANCH  16  20
ENDBRANCH   1  16
BRANCH   2  26
ATOM     26  S   UNL     1      39.028   4.743  16.729  0.00  0.00    +0.000 S 
BRANCH  26  27
ATOM     27  C   UNL     1      39.023   5.914  18.045  0.00  0.00    +0.000 A 
ATOM     28  C   UNL     1      39.866   5.898  19.111  0.00  0.00    +0.000 A 
ATOM     29  C   UNL     1      39.801   6.837  20.089  0.00  0.00    +0.000 A 
ATOM     30  C   UNL     1      38.873   7.874  20.066  0.00  0.00    +0.000 A 
ATOM     31  C   UNL     1      38.012   7.884  18.972  0.00  0.00    +0.000 A 
ATOM     32  C   UNL     1      38.076   6.946  17.992  0.00  0.00    +0.000 A 
ENDBRANCH  26  27
ENDBRANCH   2  26
TORSDOF 7
ENDMDL
MODEL 10
REMARK VINA RESULT:      -7.5      3.406      8.388
REMARK  Name = 
REMARK  7 active torsions:
REMARK  status: ('A' for Active; 'I' for Inactive)
REMARK    1  A    between atoms: C_2  and  O_3
REMARK    2  A    between atoms: O_3  and  C_4
REMARK    3  A    between atoms: C_7  and  N_8
REMARK    4  A    between atoms: N_8  and  C_9
REMARK    5  A    between atoms: C_10  and  S_11
REMARK    6  A    between atoms: S_11  and  C_12
REMARK    7  A    between atoms: N_20  and  C_21
REMARK                            x       y       z     vdW  Elec       q    Type
REMARK                         _______ _______ _______ _____ _____    ______ ____
ROOT
ATOM      1  C   UNL     1      36.712   0.321  14.398  0.00  0.00    +0.000 C 
ATOM      2  C   UNL     1      35.930   0.428  15.481  0.00  0.00    +0.000 C 
ATOM      3  C   UNL     1      35.677   1.838  15.711  0.00  0.00    +0.000 C 
ATOM      4  O   UNL     1      34.980   2.314  16.643  0.00  0.00    +0.000 OA
ATOM      5  N   UNL     1      36.360   2.589  14.694  0.00  0.00    +0.000 N 
ATOM      6  C   UNL     1      37.007   1.638  13.872  0.00  0.00    +0.000 C 
ATOM      7  O   UNL     1      37.718   1.930  12.855  0.00  0.00    +0.000 OA
ENDROOT
BRANCH   5   8
ATOM      8  C   UNL     1      36.336   4.008  14.602  0.00  0.00    +0.000 A 
ATOM      9  C   UNL     1      35.336   4.707  13.984  0.00  0.00    +0.000 A 
ATOM     10  C   UNL     1      35.350   6.085  13.918  0.00  0.00    +0.000 A 
ATOM     11  C   UNL     1      36.402   6.745  14.494  0.00  0.00    +0.000 A 
ATOM     12  C   UNL     1      37.418   6.070  15.120  0.00  0.00    +0.000 A 
ATOM     13  C   UNL     1      38.560   6.820  15.744  0.00  0.00    +0.000 C 
ATOM     14  C   UNL     1      37.377   4.694  15.171  0.00  0.00    +0.000 A 
ATOM     15  C   UNL     1      38.499   3.969  15.862  0.00  0.00    +0.000 C 
ENDBRANCH   5   8
BRANCH   1  16
ATOM     16  N   UNL     1      37.206  -0.892  13.816  0.00  0.00    +0.000 NA
BRANCH  16  20
ATOM     17  C   UNL     1      41.356  -1.706  13.631  0.00  0.00    +0.000 A 
ATOM     18  C   UNL     1      40.744  -1.307  14.812  0.00  0.00    +0.000 A 
ATOM     19  C   UNL     1      39.390  -1.050  14.835  0.00  0.00    +0.000 A 
ATOM     20  C   UNL     1      38.586  -1.171  13.722  0.00  0.00    +0.000 A 
ATOM     21  C   UNL     1      39.201  -1.568  12.554  0.00  0.00    +0.000 A 
ATOM     22  C   UNL     1      40.565  -1.831  12.508  0.00  0.00    +0.000 A 
BRANCH  17  23
ATOM     23  O   UNL     1      42.713  -1.976  13.557  0.00  0.00    +0.000 OA
BRANCH  23  25
ATOM     24  C   UNL     1      44.245  -0.363  14.481  0.00  0.00    +0.000 C 
ATOM     25  C   UNL     1      43.596  -1.716  14.608  0.00  0.00    +0.000 C 
ENDBRANCH  23  25
ENDBRANCH  17  23
ENDBRANCH  16  20
ENDBRANCH   1  16
BRANCH   2  26
ATOM     26  S   UNL     1      35.406  -1.013  16.342  0.00  0.00    +0.000 S 
BRANCH  26  27
ATOM     27  C   UNL     1      36.682  -1.958  17.105  0.00  0.00    +0.000 A 
ATOM     28  C   UNL     1      37.417  -1.561  18.176  0.00  0.00    +0.000 A 
ATOM     29  C   UNL     1      38.387  -2.346  18.710  0.00  0.00    +0.000 A 
ATOM     30  C   UNL     1      38.690  -3.605  18.200  0.00  0.00    +0.000 A 
ATOM     31  C   UNL     1      37.933  -4.006  17.103  0.00  0.00    +0.000 A 
ATOM     32  C   UNL     1      36.963  -3.222  16.568  0.00  0.00    +0.000 A 
ENDBRANCH  26  27
ENDBRANCH   2  26
TORSDOF 7
ENDMDL
