MODEL 1
REMARK VINA RESULT:      -6.5      0.000      0.000
REMARK  Name = 
REMARK  4 active torsions:
REMARK  status: ('A' for Active; 'I' for Inactive)
REMARK    1  A    between atoms: C_2  and  O_3
REMARK    2  A    between atoms: O_3  and  C_4
REMARK    3  A    between atoms: C_4  and  C_6
REMARK    4  A    between atoms: C_9  and  C_10
REMARK                            x       y       z     vdW  Elec       q    Type
REMARK                         _______ _______ _______ _____ _____    ______ ____
ROOT
ATOM      1  C   UNL     1      27.954  24.745  22.215  0.00  0.00    +0.000 C 
ATOM      2  C   UNL     1      28.138  25.191  23.391  0.00  0.00    +0.000 C 
ATOM      3  C   UNL     1      29.231  26.147  23.666  0.00  0.00    +0.000 C 
ATOM      4  C   UNL     1      27.282  24.814  24.637  0.00  0.00    +0.000 C 
ATOM      5  N   UNL     1      26.249  23.858  24.163  0.00  0.00    +0.000 NA
ATOM      6  C   UNL     1      26.084  23.402  22.893  0.00  0.00    +0.000 C 
ATOM      7  O   UNL     1      25.149  22.562  22.562  0.00  0.00    +0.000 OA
ATOM      8  N   UNL     1      26.936  23.825  21.842  0.00  0.00    +0.000 NA
ENDROOT
BRANCH   4   9
ATOM      9  C   UNL     1      28.319  23.789  25.326  0.00  0.00    +0.000 A 
ATOM     10  C   UNL     1      29.211  23.124  24.609  0.00  0.00    +0.000 A 
ATOM     11  C   UNL     1      30.085  22.259  25.199  0.00  0.00    +0.000 A 
ATOM     12  C   UNL     1      30.030  22.083  26.545  0.00  0.00    +0.000 A 
ATOM     13  C   UNL     1      29.119  22.759  27.297  0.00  0.00    +0.000 A 
ATOM     14  C   UNL     1      28.227  23.644  26.681  0.00  0.00    +0.000 A 
ATOM     15  F   UNL     1      27.316  24.316  27.444  0.00  0.00    +0.000 F 
ENDBRANCH   4   9
BRANCH   1  16
ATOM     16  C   UNL     1      28.856  25.204  21.145  0.00  0.00    +0.000 C 
ATOM     17  O   UNL     1      29.813  24.505  20.755  0.00  0.00    +0.000 OA
BRANCH  16  18
ATOM     18  O   UNL     1      28.676  26.432  20.527  0.00  0.00    +0.000 OA
BRANCH  18  20
ATOM     19  C   UNL     1      30.047  27.258  18.705  0.00  0.00    +0.000 C 
ATOM     20  C   UNL     1      29.808  27.220  20.208  0.00  0.00    +0.000 C 
ENDBRANCH  18  20
ENDBRANCH  16  18
ENDBRANCH   1  16
TORSDOF 4
ENDMDL
MODEL 2
REMARK VINA RESULT:      -6.4      1.894      2.873
REMARK  Name = 
REMARK  4 active torsions:
REMARK  status: ('A' for Active; 'I' for Inactive)
REMARK    1  A    between atoms: C_2  and  O_3
REMARK    2  A    between atoms: O_3  and  C_4
REMARK    3  A    between atoms: C_4  and  C_6
REMARK    4  A    between atoms: C_9  and  C_10
REMARK                            x       y       z     vdW  Elec       q    Type
REMARK                         _______ _______ _______ _____ _____    ______ ____
ROOT
ATOM      1  C   UNL     1      27.807  24.538  23.317  0.00  0.00    +0.000 C 
ATOM      2  C   UNL     1      27.442  25.123  24.385  0.00  0.00    +0.000 C 
ATOM      3  C   UNL     1      28.341  26.088  25.053  0.00  0.00    +0.000 C 
ATOM      4  C   UNL     1      26.073  24.916  25.097  0.00  0.00    +0.000 C 
ATOM      5  N   UNL     1      25.322  23.924  24.284  0.00  0.00    +0.000 NA
ATOM      6  C   UNL     1      25.747  23.317  23.145  0.00  0.00    +0.000 C 
ATOM      7  O   UNL     1      25.024  22.458  22.492  0.00  0.00    +0.000 OA
ATOM      8  N   UNL     1      27.025  23.595  22.596  0.00  0.00    +0.000 NA
ENDROOT
BRANCH   4   9
ATOM      9  C   UNL     1      26.580  23.968  26.299  0.00  0.00    +0.000 A 
ATOM     10  C   UNL     1      27.544  23.079  26.116  0.00  0.00    +0.000 A 
ATOM     11  C   UNL     1      27.968  22.281  27.138  0.00  0.00    +0.000 A 
ATOM     12  C   UNL     1      27.385  22.407  28.359  0.00  0.00    +0.000 A 
ATOM     13  C   UNL     1      26.392  23.316  28.563  0.00  0.00    +0.000 A 
ATOM     14  C   UNL     1      25.965  24.130  27.508  0.00  0.00    +0.000 A 
ATOM     15  F   UNL     1      24.969  25.038  27.723  0.00  0.00    +0.000 F 
ENDBRANCH   4   9
BRANCH   1  16
ATOM     16  C   UNL     1      29.140  24.847  22.771  0.00  0.00    +0.000 C 
ATOM     17  O   UNL     1      29.364  25.911  22.159  0.00  0.00    +0.000 OA
BRANCH  16  18
ATOM     18  O   UNL     1      30.201  23.966  22.916  0.00  0.00    +0.000 OA
BRANCH  18  20
ATOM     19  C   UNL     1      30.985  22.686  24.822  0.00  0.00    +0.000 C 
ATOM     20  C   UNL     1      30.993  24.021  24.087  0.00  0.00    +0.000 C 
ENDBRANCH  18  20
ENDBRANCH  16  18
ENDBRANCH   1  16
TORSDOF 4
ENDMDL
MODEL 3
REMARK VINA RESULT:      -6.4     32.241     34.007
REMARK  Name = 
REMARK  4 active torsions:
REMARK  status: ('A' for Active; 'I' for Inactive)
REMARK    1  A    between atoms: C_2  and  O_3
REMARK    2  A    between atoms: O_3  and  C_4
REMARK    3  A    between atoms: C_4  and  C_6
REMARK    4  A    between atoms: C_9  and  C_10
REMARK                            x       y       z     vdW  Elec       q    Type
REMARK                         _______ _______ _______ _____ _____    ______ ____
ROOT
ATOM      1  C   UNL     1      20.037  -7.506  25.918  0.00  0.00    +0.000 C 
ATOM      2  C   UNL     1      19.462  -8.269  26.757  0.00  0.00    +0.000 C 
ATOM      3  C   UNL     1      19.863  -9.687  26.874  0.00  0.00    +0.000 C 
ATOM      4  C   UNL     1      18.319  -7.840  27.724  0.00  0.00    +0.000 C 
ATOM      5  N   UNL     1      18.062  -6.401  27.458  0.00  0.00    +0.000 NA
ATOM      6  C   UNL     1      18.698  -5.616  26.550  0.00  0.00    +0.000 C 
ATOM      7  O   UNL     1      18.411  -4.360  26.380  0.00  0.00    +0.000 OA
ATOM      8  N   UNL     1      19.729  -6.131  25.724  0.00  0.00    +0.000 NA
ENDROOT
BRANCH   4   9
ATOM      9  C   UNL     1      17.083  -8.499  26.926  0.00  0.00    +0.000 A 
ATOM     10  C   UNL     1      16.575  -7.925  25.845  0.00  0.00    +0.000 A 
ATOM     11  C   UNL     1      15.529  -8.489  25.175  0.00  0.00    +0.000 A 
ATOM     12  C   UNL     1      15.006  -9.657  25.632  0.00  0.00    +0.000 A 
ATOM     13  C   UNL     1      15.516 -10.259  26.741  0.00  0.00    +0.000 A 
ATOM     14  C   UNL     1      16.589  -9.672  27.421  0.00  0.00    +0.000 A 
ATOM     15  F   UNL     1      17.093 -10.284  28.533  0.00  0.00    +0.000 F 
ENDBRANCH   4   9
BRANCH   1  16
ATOM     16  C   UNL     1      21.103  -8.071  25.075  0.00  0.00    +0.000 C 
ATOM     17  O   UNL     1      20.851  -8.606  23.976  0.00  0.00    +0.000 OA
BRANCH  16  18
ATOM     18  O   UNL     1      22.432  -8.033  25.469  0.00  0.00    +0.000 OA
BRANCH  18  20
ATOM     19  C   UNL     1      23.631  -6.300  24.267  0.00  0.00    +0.000 C 
ATOM     20  C   UNL     1      23.436  -7.793  24.502  0.00  0.00    +0.000 C 
ENDBRANCH  18  20
ENDBRANCH  16  18
ENDBRANCH   1  16
TORSDOF 4
ENDMDL
MODEL 4
REMARK VINA RESULT:      -5.9      2.424      3.505
REMARK  Name = 
REMARK  4 active torsions:
REMARK  status: ('A' for Active; 'I' for Inactive)
REMARK    1  A    between atoms: C_2  and  O_3
REMARK    2  A    between atoms: O_3  and  C_4
REMARK    3  A    between atoms: C_4  and  C_6
REMARK    4  A    between atoms: C_9  and  C_10
REMARK                            x       y       z     vdW  Elec       q    Type
REMARK                         _______ _______ _______ _____ _____    ______ ____
ROOT
ATOM      1  C   UNL     1      29.284  24.246  22.703  0.00  0.00    +0.000 C 
ATOM      2  C   UNL     1      28.198  23.705  23.080  0.00  0.00    +0.000 C 
ATOM      3  C   UNL     1      26.947  23.934  22.326  0.00  0.00    +0.000 C 
ATOM      4  C   UNL     1      28.042  22.774  24.319  0.00  0.00    +0.000 C 
ATOM      5  N   UNL     1      29.390  22.668  24.936  0.00  0.00    +0.000 NA
ATOM      6  C   UNL     1      30.532  23.264  24.503  0.00  0.00    +0.000 C 
ATOM      7  O   UNL     1      31.675  23.117  25.104  0.00  0.00    +0.000 OA
ATOM      8  N   UNL     1      30.539  24.093  23.353  0.00  0.00    +0.000 NA
ENDROOT
BRANCH   4   9
ATOM      9  C   UNL     1      27.359  23.838  25.321  0.00  0.00    +0.000 A 
ATOM     10  C   UNL     1      28.047  24.850  25.826  0.00  0.00    +0.000 A 
ATOM     11  C   UNL     1      27.461  25.746  26.672  0.00  0.00    +0.000 A 
ATOM     12  C   UNL     1      26.151  25.588  26.996  0.00  0.00    +0.000 A 
ATOM     13  C   UNL     1      25.430  24.553  26.485  0.00  0.00    +0.000 A 
ATOM     14  C   UNL     1      26.040  23.640  25.618  0.00  0.00    +0.000 A 
ATOM     15  F   UNL     1      25.308  22.604  25.111  0.00  0.00    +0.000 F 
ENDBRANCH   4   9
BRANCH   1  16
ATOM     16  C   UNL     1      29.259  25.102  21.505  0.00  0.00    +0.000 C 
ATOM     17  O   UNL     1      29.743  24.719  20.420  0.00  0.00    +0.000 OA
BRANCH  16  18
ATOM     18  O   UNL     1      28.697  26.369  21.534  0.00  0.00    +0.000 OA
BRANCH  18  20
ATOM     19  C   UNL     1      27.980  27.685  23.442  0.00  0.00    +0.000 C 
ATOM     20  C   UNL     1      29.124  27.295  22.515  0.00  0.00    +0.000 C 
ENDBRANCH  18  20
ENDBRANCH  16  18
ENDBRANCH   1  16
TORSDOF 4
ENDMDL
MODEL 5
REMARK VINA RESULT:      -5.9      2.231      2.778
REMARK  Name = 
REMARK  4 active torsions:
REMARK  status: ('A' for Active; 'I' for Inactive)
REMARK    1  A    between atoms: C_2  and  O_3
REMARK    2  A    between atoms: O_3  and  C_4
REMARK    3  A    between atoms: C_4  and  C_6
REMARK    4  A    between atoms: C_9  and  C_10
REMARK                            x       y       z     vdW  Elec       q    Type
REMARK                         _______ _______ _______ _____ _____    ______ ____
ROOT
ATOM      1  C   UNL     1      26.430  25.413  24.507  0.00  0.00    +0.000 C 
ATOM      2  C   UNL     1      26.627  24.851  25.631  0.00  0.00    +0.000 C 
ATOM      3  C   UNL     1      27.076  25.644  26.795  0.00  0.00    +0.000 C 
ATOM      4  C   UNL     1      26.431  23.333  25.921  0.00  0.00    +0.000 C 
ATOM      5  N   UNL     1      25.984  22.716  24.645  0.00  0.00    +0.000 NA
ATOM      6  C   UNL     1      25.785  23.351  23.460  0.00  0.00    +0.000 C 
ATOM      7  O   UNL     1      25.390  22.733  22.388  0.00  0.00    +0.000 OA
ATOM      8  N   UNL     1      26.000  24.747  23.328  0.00  0.00    +0.000 NA
ENDROOT
BRANCH   4   9
ATOM      9  C   UNL     1      27.984  22.896  25.915  0.00  0.00    +0.000 A 
ATOM     10  C   UNL     1      28.723  22.991  24.820  0.00  0.00    +0.000 A 
ATOM     11  C   UNL     1      30.035  22.619  24.823  0.00  0.00    +0.000 A 
ATOM     12  C   UNL     1      30.584  22.145  25.972  0.00  0.00    +0.000 A 
ATOM     13  C   UNL     1      29.838  22.042  27.106  0.00  0.00    +0.000 A 
ATOM     14  C   UNL     1      28.492  22.425  27.092  0.00  0.00    +0.000 A 
ATOM     15  F   UNL     1      27.752  22.317  28.234  0.00  0.00    +0.000 F 
ENDBRANCH   4   9
BRANCH   1  16
ATOM     16  C   UNL     1      26.662  26.863  24.402  0.00  0.00    +0.000 C 
ATOM     17  O   UNL     1      25.719  27.679  24.440  0.00  0.00    +0.000 OA
BRANCH  16  18
ATOM     18  O   UNL     1      27.941  27.381  24.254  0.00  0.00    +0.000 OA
BRANCH  18  20
ATOM     19  C   UNL     1      29.676  26.178  23.060  0.00  0.00    +0.000 C 
ATOM     20  C   UNL     1      28.600  27.255  23.009  0.00  0.00    +0.000 C 
ENDBRANCH  18  20
ENDBRANCH  16  18
ENDBRANCH   1  16
TORSDOF 4
ENDMDL
MODEL 6
REMARK VINA RESULT:      -5.9     20.286     21.975
REMARK  Name = 
REMARK  4 active torsions:
REMARK  status: ('A' for Active; 'I' for Inactive)
REMARK    1  A    between atoms: C_2  and  O_3
REMARK    2  A    between atoms: O_3  and  C_4
REMARK    3  A    between atoms: C_4  and  C_6
REMARK    4  A    between atoms: C_9  and  C_10
REMARK                            x       y       z     vdW  Elec       q    Type
REMARK                         _______ _______ _______ _____ _____    ______ ____
ROOT
ATOM      1  C   UNL     1      18.152  10.947  37.787  0.00  0.00    +0.000 C 
ATOM      2  C   UNL     1      19.127  11.634  38.225  0.00  0.00    +0.000 C 
ATOM      3  C   UNL     1      19.299  13.041  37.805  0.00  0.00    +0.000 C 
ATOM      4  C   UNL     1      20.216  11.118  39.212  0.00  0.00    +0.000 C 
ATOM      5  N   UNL     1      19.874   9.703  39.513  0.00  0.00    +0.000 NA
ATOM      6  C   UNL     1      18.820   9.000  39.022  0.00  0.00    +0.000 C 
ATOM      7  O   UNL     1      18.592   7.760  39.338  0.00  0.00    +0.000 OA
ATOM      8  N   UNL     1      17.894   9.590  38.125  0.00  0.00    +0.000 NA
ENDROOT
BRANCH   4   9
ATOM      9  C   UNL     1      21.407  10.898  38.147  0.00  0.00    +0.000 A 
ATOM     10  C   UNL     1      21.304  10.010  37.170  0.00  0.00    +0.000 A 
ATOM     11  C   UNL     1      22.315   9.831  36.273  0.00  0.00    +0.000 A 
ATOM     12  C   UNL     1      23.443  10.580  36.391  0.00  0.00    +0.000 A 
ATOM     13  C   UNL     1      23.564  11.497  37.390  0.00  0.00    +0.000 A 
ATOM     14  C   UNL     1      22.521  11.673  38.305  0.00  0.00    +0.000 A 
ATOM     15  F   UNL     1      22.653  12.595  39.303  0.00  0.00    +0.000 F 
ENDBRANCH   4   9
BRANCH   1  16
ATOM     16  C   UNL     1      17.208  11.588  36.856  0.00  0.00    +0.000 C 
ATOM     17  O   UNL     1      17.310  11.444  35.621  0.00  0.00    +0.000 OA
BRANCH  16  18
ATOM     18  O   UNL     1      16.166  12.379  37.316  0.00  0.00    +0.000 OA
BRANCH  18  20
ATOM     19  C   UNL     1      14.292  11.160  38.257  0.00  0.00    +0.000 C 
ATOM     20  C   UNL     1      14.831  11.971  37.085  0.00  0.00    +0.000 C 
ENDBRANCH  18  20
ENDBRANCH  16  18
ENDBRANCH   1  16
TORSDOF 4
ENDMDL
MODEL 7
REMARK VINA RESULT:      -5.8      2.827      5.575
REMARK  Name = 
REMARK  4 active torsions:
REMARK  status: ('A' for Active; 'I' for Inactive)
REMARK    1  A    between atoms: C_2  and  O_3
REMARK    2  A    between atoms: O_3  and  C_4
REMARK    3  A    between atoms: C_4  and  C_6
REMARK    4  A    between atoms: C_9  and  C_10
REMARK                            x       y       z     vdW  Elec       q    Type
REMARK                         _______ _______ _______ _____ _____    ______ ____
ROOT
ATOM      1  C   UNL     1      27.907  23.400  24.343  0.00  0.00    +0.000 C 
ATOM      2  C   UNL     1      28.718  23.803  23.451  0.00  0.00    +0.000 C 
ATOM      3  C   UNL     1      30.098  24.189  23.816  0.00  0.00    +0.000 C 
ATOM      4  C   UNL     1      28.390  23.936  21.935  0.00  0.00    +0.000 C 
ATOM      5  N   UNL     1      26.977  23.507  21.772  0.00  0.00    +0.000 NA
ATOM      6  C   UNL     1      26.138  23.083  22.752  0.00  0.00    +0.000 C 
ATOM      7  O   UNL     1      24.910  22.723  22.522  0.00  0.00    +0.000 OA
ATOM      8  N   UNL     1      26.562  23.006  24.103  0.00  0.00    +0.000 NA
ENDROOT
BRANCH   4   9
ATOM      9  C   UNL     1      28.206  25.538  21.880  0.00  0.00    +0.000 A 
ATOM     10  C   UNL     1      27.372  26.164  22.696  0.00  0.00    +0.000 A 
ATOM     11  C   UNL     1      27.222  27.519  22.644  0.00  0.00    +0.000 A 
ATOM     12  C   UNL     1      27.943  28.228  21.736  0.00  0.00    +0.000 A 
ATOM     13  C   UNL     1      28.804  27.599  20.890  0.00  0.00    +0.000 A 
ATOM     14  C   UNL     1      28.950  26.209  20.952  0.00  0.00    +0.000 A 
ATOM     15  F   UNL     1      29.816  25.587  20.099  0.00  0.00    +0.000 F 
ENDBRANCH   4   9
BRANCH   1  16
ATOM     16  C   UNL     1      28.378  23.332  25.737  0.00  0.00    +0.000 C 
ATOM     17  O   UNL     1      28.958  22.320  26.181  0.00  0.00    +0.000 OA
BRANCH  16  18
ATOM     18  O   UNL     1      28.195  24.391  26.613  0.00  0.00    +0.000 OA
BRANCH  18  20
ATOM     19  C   UNL     1      26.071  23.826  27.639  0.00  0.00    +0.000 C 
ATOM     20  C   UNL     1      27.542  24.165  27.847  0.00  0.00    +0.000 C 
ENDBRANCH  18  20
ENDBRANCH  16  18
ENDBRANCH   1  16
TORSDOF 4
ENDMDL
MODEL 8
REMARK VINA RESULT:      -5.8     20.652     23.265
REMARK  Name = 
REMARK  4 active torsions:
REMARK  status: ('A' for Active; 'I' for Inactive)
REMARK    1  A    between atoms: C_2  and  O_3
REMARK    2  A    between atoms: O_3  and  C_4
REMARK    3  A    between atoms: C_4  and  C_6
REMARK    4  A    between atoms: C_9  and  C_10
REMARK                            x       y       z     vdW  Elec       q    Type
REMARK                         _______ _______ _______ _____ _____    ______ ____
ROOT
ATOM      1  C   UNL     1      20.391  10.030  38.023  0.00  0.00    +0.000 C 
ATOM      2  C   UNL     1      19.626  10.303  39.001  0.00  0.00    +0.000 C 
ATOM      3  C   UNL     1      20.194  10.689  40.309  0.00  0.00    +0.000 C 
ATOM      4  C   UNL     1      18.069  10.271  38.957  0.00  0.00    +0.000 C 
ATOM      5  N   UNL     1      17.696   9.866  37.577  0.00  0.00    +0.000 NA
ATOM      6  C   UNL     1      18.546   9.581  36.555  0.00  0.00    +0.000 C 
ATOM      7  O   UNL     1      18.134   9.234  35.373  0.00  0.00    +0.000 OA
ATOM      8  N   UNL     1      19.952   9.648  36.726  0.00  0.00    +0.000 NA
ENDROOT
BRANCH   4   9
ATOM      9  C   UNL     1      17.847   8.872  39.729  0.00  0.00    +0.000 A 
ATOM     10  C   UNL     1      18.636   7.831  39.513  0.00  0.00    +0.000 A 
ATOM     11  C   UNL     1      18.442   6.652  40.170  0.00  0.00    +0.000 A 
ATOM     12  C   UNL     1      17.419   6.554  41.059  0.00  0.00    +0.000 A 
ATOM     13  C   UNL     1      16.598   7.614  41.293  0.00  0.00    +0.000 A 
ATOM     14  C   UNL     1      16.806   8.819  40.613  0.00  0.00    +0.000 A 
ATOM     15  F   UNL     1      15.978   9.877  40.854  0.00  0.00    +0.000 F 
ENDBRANCH   4   9
BRANCH   1  16
ATOM     16  C   UNL     1      21.847  10.109  38.232  0.00  0.00    +0.000 C 
ATOM     17  O   UNL     1      22.481   9.176  38.765  0.00  0.00    +0.000 OA
BRANCH  16  18
ATOM     18  O   UNL     1      22.572  11.226  37.844  0.00  0.00    +0.000 OA
BRANCH  18  20
ATOM     19  C   UNL     1      23.488  10.345  35.778  0.00  0.00    +0.000 C 
ATOM     20  C   UNL     1      23.762  11.055  37.098  0.00  0.00    +0.000 C 
ENDBRANCH  18  20
ENDBRANCH  16  18
ENDBRANCH   1  16
TORSDOF 4
ENDMDL
MODEL 9
REMARK VINA RESULT:      -5.8     21.518     23.776
REMARK  Name = 
REMARK  4 active torsions:
REMARK  status: ('A' for Active; 'I' for Inactive)
REMARK    1  A    between atoms: C_2  and  O_3
REMARK    2  A    between atoms: O_3  and  C_4
REMARK    3  A    between atoms: C_4  and  C_6
REMARK    4  A    between atoms: C_9  and  C_10
REMARK                            x       y       z     vdW  Elec       q    Type
REMARK                         _______ _______ _______ _____ _____    ______ ____
ROOT
ATOM      1  C   UNL     1      19.596   9.078  39.525  0.00  0.00    +0.000 C 
ATOM      2  C   UNL     1      18.672   9.905  39.246  0.00  0.00    +0.000 C 
ATOM      3  C   UNL     1      17.294   9.676  39.728  0.00  0.00    +0.000 C 
ATOM      4  C   UNL     1      18.854  11.203  38.405  0.00  0.00    +0.000 C 
ATOM      5  N   UNL     1      20.288  11.254  38.018  0.00  0.00    +0.000 NA
ATOM      6  C   UNL     1      21.249  10.348  38.335  0.00  0.00    +0.000 C 
ATOM      7  O   UNL     1      22.486  10.470  37.955  0.00  0.00    +0.000 OA
ATOM      8  N   UNL     1      20.951   9.200  39.113  0.00  0.00    +0.000 NA
ENDROOT
BRANCH   4   9
ATOM      9  C   UNL     1      18.210  10.674  37.024  0.00  0.00    +0.000 A 
ATOM     10  C   UNL     1      18.686   9.604  36.405  0.00  0.00    +0.000 A 
ATOM     11  C   UNL     1      18.135   9.164  35.238  0.00  0.00    +0.000 A 
ATOM     12  C   UNL     1      17.082   9.839  34.709  0.00  0.00    +0.000 A 
ATOM     13  C   UNL     1      16.580  10.941  35.333  0.00  0.00    +0.000 A 
ATOM     14  C   UNL     1      17.153  11.385  36.530  0.00  0.00    +0.000 A 
ATOM     15  F   UNL     1      16.643  12.491  37.147  0.00  0.00    +0.000 F 
ENDBRANCH   4   9
BRANCH   1  16
ATOM     16  C   UNL     1      19.255   7.896  40.335  0.00  0.00    +0.000 C 
ATOM     17  O   UNL     1      19.424   7.881  41.571  0.00  0.00    +0.000 OA
BRANCH  16  18
ATOM     18  O   UNL     1      18.731   6.750  39.754  0.00  0.00    +0.000 OA
BRANCH  18  20
ATOM     19  C   UNL     1      19.720   4.565  40.114  0.00  0.00    +0.000 C 
ATOM     20  C   UNL     1      18.643   5.563  40.519  0.00  0.00    +0.000 C 
ENDBRANCH  18  20
ENDBRANCH  16  18
ENDBRANCH   1  16
TORSDOF 4
ENDMDL
MODEL 10
REMARK VINA RESULT:      -5.8      5.560      6.943
REMARK  Name = 
REMARK  4 active torsions:
REMARK  status: ('A' for Active; 'I' for Inactive)
REMARK    1  A    between atoms: C_2  and  O_3
REMARK    2  A    between atoms: O_3  and  C_4
REMARK    3  A    between atoms: C_4  and  C_6
REMARK    4  A    between atoms: C_9  and  C_10
REMARK                            x       y       z     vdW  Elec       q    Type
REMARK                         _______ _______ _______ _____ _____    ______ ____
ROOT
ATOM      1  C   UNL     1      26.856  24.571  30.217  0.00  0.00    +0.000 C 
ATOM      2  C   UNL     1      28.102  24.406  30.022  0.00  0.00    +0.000 C 
ATOM      3  C   UNL     1      28.968  25.561  29.707  0.00  0.00    +0.000 C 
ATOM      4  C   UNL     1      28.846  23.039  30.085  0.00  0.00    +0.000 C 
ATOM      5  N   UNL     1      27.819  22.016  30.409  0.00  0.00    +0.000 NA
ATOM      6  C   UNL     1      26.492  22.231  30.611  0.00  0.00    +0.000 C 
ATOM      7  O   UNL     1      25.659  21.275  30.893  0.00  0.00    +0.000 OA
ATOM      8  N   UNL     1      25.935  23.532  30.525  0.00  0.00    +0.000 NA
ENDROOT
BRANCH   4   9
ATOM      9  C   UNL     1      29.001  22.789  28.499  0.00  0.00    +0.000 A 
ATOM     10  C   UNL     1      27.945  22.743  27.701  0.00  0.00    +0.000 A 
ATOM     11  C   UNL     1      28.084  22.531  26.361  0.00  0.00    +0.000 A 
ATOM     12  C   UNL     1      29.330  22.364  25.846  0.00  0.00    +0.000 A 
ATOM     13  C   UNL     1      30.426  22.408  26.652  0.00  0.00    +0.000 A 
ATOM     14  C   UNL     1      30.272  22.626  28.026  0.00  0.00    +0.000 A 
ATOM     15  F   UNL     1      31.378  22.668  28.826  0.00  0.00    +0.000 F 
ENDBRANCH   4   9
BRANCH   1  16
ATOM     16  C   UNL     1      26.308  25.934  30.120  0.00  0.00    +0.000 C 
ATOM     17  O   UNL     1      26.518  26.786  31.008  0.00  0.00    +0.000 OA
BRANCH  16  18
ATOM     18  O   UNL     1      25.536  26.326  29.037  0.00  0.00    +0.000 OA
BRANCH  18  20
ATOM     19  C   UNL     1      24.895  24.913  27.173  0.00  0.00    +0.000 C 
ATOM     20  C   UNL     1      25.902  25.907  27.737  0.00  0.00    +0.000 C 
ENDBRANCH  18  20
ENDBRANCH  16  18
ENDBRANCH   1  16
TORSDOF 4
ENDMDL
