MODEL 1
REMARK VINA RESULT:      -7.0      0.000      0.000
REMARK  Name = 
REMARK  2 active torsions:
REMARK  status: ('A' for Active; 'I' for Inactive)
REMARK    1  A    between atoms: C_4  and  C_6
REMARK    2  A    between atoms: C_9  and  N_10
REMARK                            x       y       z     vdW  Elec       q    Type
REMARK                         _______ _______ _______ _____ _____    ______ ____
ROOT
ATOM      1  C   UNL     1      35.162  -0.949  35.801  0.00  0.00    +0.000 C 
ATOM      2  C   UNL     1      33.705  -1.515  36.304  0.00  0.00    +0.000 C 
ATOM      3  O   UNL     1      32.892  -0.358  35.831  0.00  0.00    +0.000 OA
ATOM      4  C   UNL     1      33.224   0.275  34.750  0.00  0.00    +0.000 C 
ATOM      5  O   UNL     1      32.014   0.311  33.956  0.00  0.00    +0.000 OA
ATOM      6  C   UNL     1      34.106  -0.417  33.727  0.00  0.00    +0.000 C 
ATOM      7  C   UNL     1      33.756  -1.860  33.842  0.00  0.00    +0.000 C 
ATOM      8  N   UNL     1      33.452  -2.413  35.053  0.00  0.00    +0.000 N 
ATOM      9  C   UNL     1      34.468  -3.476  35.325  0.00  0.00    +0.000 C 
ATOM     10  C   UNL     1      34.480  -4.475  34.178  0.00  0.00    +0.000 C 
ATOM     11  C   UNL     1      33.123  -4.418  33.487  0.00  0.00    +0.000 C 
ATOM     12  C   UNL     1      32.039  -4.341  34.532  0.00  0.00    +0.000 C 
ATOM     13  C   UNL     1      32.161  -3.014  35.213  0.00  0.00    +0.000 C 
ENDROOT
BRANCH   4  14
ATOM     14  C   UNL     1      33.570   1.709  34.896  0.00  0.00    +0.000 A 
ATOM     15  C   UNL     1      33.521   2.518  33.771  0.00  0.00    +0.000 A 
ATOM     16  C   UNL     1      33.891   3.869  33.830  0.00  0.00    +0.000 A 
ATOM     17  C   UNL     1      34.322   4.435  35.004  0.00  0.00    +0.000 A 
ATOM     18  C   UNL     1      34.369   3.631  36.112  0.00  0.00    +0.000 A 
ATOM     19  C   UNL     1      33.995   2.301  36.040  0.00  0.00    +0.000 A 
BRANCH  17  20
ATOM     20  N   UNL     1      34.745   5.807  35.056  0.00  0.00    +0.000 N 
ATOM     21  O   UNL     1      35.890   6.174  34.709  0.00  0.00    +0.000 OA
ATOM     22  O   UNL     1      33.881   6.772  35.504  0.00  0.00    +0.000 OA
ENDBRANCH  17  20
ENDBRANCH   4  14
TORSDOF 2
ENDMDL
MODEL 2
REMARK VINA RESULT:      -6.5     22.199     24.853
REMARK  Name = 
REMARK  2 active torsions:
REMARK  status: ('A' for Active; 'I' for Inactive)
REMARK    1  A    between atoms: C_4  and  C_6
REMARK    2  A    between atoms: C_9  and  N_10
REMARK                            x       y       z     vdW  Elec       q    Type
REMARK                         _______ _______ _______ _____ _____    ______ ____
ROOT
ATOM      1  C   UNL     1      31.719  23.999  26.824  0.00  0.00    +0.000 C 
ATOM      2  C   UNL     1      31.033  24.357  28.273  0.00  0.00    +0.000 C 
ATOM      3  O   UNL     1      29.665  23.858  27.948  0.00  0.00    +0.000 OA
ATOM      4  C   UNL     1      29.511  22.833  27.172  0.00  0.00    +0.000 C 
ATOM      5  O   UNL     1      28.638  21.940  27.904  0.00  0.00    +0.000 OA
ATOM      6  C   UNL     1      30.665  21.864  26.985  0.00  0.00    +0.000 C 
ATOM      7  C   UNL     1      31.398  21.897  28.280  0.00  0.00    +0.000 C 
ATOM      8  N   UNL     1      31.512  23.057  28.991  0.00  0.00    +0.000 N 
ATOM      9  C   UNL     1      32.970  23.376  29.092  0.00  0.00    +0.000 C 
ATOM     10  C   UNL     1      33.708  22.199  29.712  0.00  0.00    +0.000 C 
ATOM     11  C   UNL     1      32.709  21.398  30.539  0.00  0.00    +0.000 C 
ATOM     12  C   UNL     1      31.832  22.350  31.311  0.00  0.00    +0.000 C 
ATOM     13  C   UNL     1      30.983  23.086  30.323  0.00  0.00    +0.000 C 
ENDROOT
BRANCH   4  14
ATOM     14  C   UNL     1      28.772  23.059  25.906  0.00  0.00    +0.000 A 
ATOM     15  C   UNL     1      27.396  23.217  25.965  0.00  0.00    +0.000 A 
ATOM     16  C   UNL     1      26.631  23.378  24.801  0.00  0.00    +0.000 A 
ATOM     17  C   UNL     1      27.221  23.376  23.561  0.00  0.00    +0.000 A 
ATOM     18  C   UNL     1      28.581  23.219  23.509  0.00  0.00    +0.000 A 
ATOM     19  C   UNL     1      29.322  23.068  24.667  0.00  0.00    +0.000 A 
BRANCH  17  20
ATOM     20  N   UNL     1      26.435  23.494  22.364  0.00  0.00    +0.000 N 
ATOM     21  O   UNL     1      26.751  24.253  21.421  0.00  0.00    +0.000 OA
ATOM     22  O   UNL     1      25.284  22.762  22.226  0.00  0.00    +0.000 OA
ENDBRANCH  17  20
ENDBRANCH   4  14
TORSDOF 2
ENDMDL
MODEL 3
REMARK VINA RESULT:      -6.5      2.967      8.386
REMARK  Name = 
REMARK  2 active torsions:
REMARK  status: ('A' for Active; 'I' for Inactive)
REMARK    1  A    between atoms: C_4  and  C_6
REMARK    2  A    between atoms: C_9  and  N_10
REMARK                            x       y       z     vdW  Elec       q    Type
REMARK                         _______ _______ _______ _____ _____    ______ ____
ROOT
ATOM      1  C   UNL     1      36.614   5.077  36.429  0.00  0.00    +0.000 C 
ATOM      2  C   UNL     1      36.541   6.316  35.352  0.00  0.00    +0.000 C 
ATOM      3  O   UNL     1      35.300   5.870  34.655  0.00  0.00    +0.000 OA
ATOM      4  C   UNL     1      34.361   5.267  35.314  0.00  0.00    +0.000 C 
ATOM      5  O   UNL     1      33.153   5.995  34.988  0.00  0.00    +0.000 OA
ATOM      6  C   UNL     1      34.287   5.435  36.821  0.00  0.00    +0.000 C 
ATOM      7  C   UNL     1      34.813   6.805  37.073  0.00  0.00    +0.000 C 
ATOM      8  N   UNL     1      35.832   7.314  36.320  0.00  0.00    +0.000 N 
ATOM      9  C   UNL     1      36.976   7.587  37.244  0.00  0.00    +0.000 C 
ATOM     10  C   UNL     1      36.518   8.509  38.364  0.00  0.00    +0.000 C 
ATOM     11  C   UNL     1      35.310   9.294  37.865  0.00  0.00    +0.000 C 
ATOM     12  C   UNL     1      35.563   9.742  36.449  0.00  0.00    +0.000 C 
ATOM     13  C   UNL     1      35.588   8.520  35.585  0.00  0.00    +0.000 C 
ENDROOT
BRANCH   4  14
ATOM     14  C   UNL     1      34.038   3.881  34.898  0.00  0.00    +0.000 A 
ATOM     15  C   UNL     1      34.032   2.886  35.863  0.00  0.00    +0.000 A 
ATOM     16  C   UNL     1      33.790   1.547  35.526  0.00  0.00    +0.000 A 
ATOM     17  C   UNL     1      33.557   1.175  34.226  0.00  0.00    +0.000 A 
ATOM     18  C   UNL     1      33.564   2.162  33.276  0.00  0.00    +0.000 A 
ATOM     19  C   UNL     1      33.799   3.480  33.624  0.00  0.00    +0.000 A 
BRANCH  17  20
ATOM     20  N   UNL     1      33.354  -0.203  33.872  0.00  0.00    +0.000 N 
ATOM     21  O   UNL     1      34.038  -0.784  33.001  0.00  0.00    +0.000 OA
ATOM     22  O   UNL     1      32.374  -0.932  34.495  0.00  0.00    +0.000 OA
ENDBRANCH  17  20
ENDBRANCH   4  14
TORSDOF 2
ENDMDL
MODEL 4
REMARK VINA RESULT:      -6.4     23.974     27.248
REMARK  Name = 
REMARK  2 active torsions:
REMARK  status: ('A' for Active; 'I' for Inactive)
REMARK    1  A    between atoms: C_4  and  C_6
REMARK    2  A    between atoms: C_9  and  N_10
REMARK                            x       y       z     vdW  Elec       q    Type
REMARK                         _______ _______ _______ _____ _____    ______ ____
ROOT
ATOM      1  C   UNL     1      28.824  26.491  25.395  0.00  0.00    +0.000 C 
ATOM      2  C   UNL     1      29.730  25.508  24.441  0.00  0.00    +0.000 C 
ATOM      3  O   UNL     1      29.037  24.234  24.792  0.00  0.00    +0.000 OA
ATOM      4  C   UNL     1      27.766  24.230  25.042  0.00  0.00    +0.000 C 
ATOM      5  O   UNL     1      27.224  23.190  24.193  0.00  0.00    +0.000 OA
ATOM      6  C   UNL     1      26.905  25.368  24.527  0.00  0.00    +0.000 C 
ATOM      7  C   UNL     1      27.561  25.793  23.260  0.00  0.00    +0.000 C 
ATOM      8  N   UNL     1      28.920  25.778  23.135  0.00  0.00    +0.000 N 
ATOM      9  C   UNL     1      29.360  27.184  22.880  0.00  0.00    +0.000 C 
ATOM     10  C   UNL     1      28.636  27.732  21.659  0.00  0.00    +0.000 C 
ATOM     11  C   UNL     1      28.208  26.551  20.795  0.00  0.00    +0.000 C 
ATOM     12  C   UNL     1      29.333  25.550  20.734  0.00  0.00    +0.000 C 
ATOM     13  C   UNL     1      29.492  24.964  22.103  0.00  0.00    +0.000 C 
ENDROOT
BRANCH   4  14
ATOM     14  C   UNL     1      27.355  23.799  26.400  0.00  0.00    +0.000 A 
ATOM     15  C   UNL     1      26.264  24.421  26.988  0.00  0.00    +0.000 A 
ATOM     16  C   UNL     1      25.859  24.100  28.291  0.00  0.00    +0.000 A 
ATOM     17  C   UNL     1      26.535  23.162  29.032  0.00  0.00    +0.000 A 
ATOM     18  C   UNL     1      27.612  22.551  28.446  0.00  0.00    +0.000 A 
ATOM     19  C   UNL     1      27.996  22.874  27.157  0.00  0.00    +0.000 A 
BRANCH  17  20
ATOM     20  N   UNL     1      26.149  22.865  30.384  0.00  0.00    +0.000 N 
ATOM     21  O   UNL     1      25.929  21.700  30.783  0.00  0.00    +0.000 OA
ATOM     22  O   UNL     1      26.004  23.881  31.293  0.00  0.00    +0.000 OA
ENDBRANCH  17  20
ENDBRANCH   4  14
TORSDOF 2
ENDMDL
MODEL 5
REMARK VINA RESULT:      -6.4     17.282     19.049
REMARK  Name = 
REMARK  2 active torsions:
REMARK  status: ('A' for Active; 'I' for Inactive)
REMARK    1  A    between atoms: C_4  and  C_6
REMARK    2  A    between atoms: C_9  and  N_10
REMARK                            x       y       z     vdW  Elec       q    Type
REMARK                         _______ _______ _______ _____ _____    ______ ____
ROOT
ATOM      1  C   UNL     1      17.169   9.907  39.471  0.00  0.00    +0.000 C 
ATOM      2  C   UNL     1      18.139   8.583  39.458  0.00  0.00    +0.000 C 
ATOM      3  O   UNL     1      18.650   8.753  38.067  0.00  0.00    +0.000 OA
ATOM      4  C   UNL     1      18.835   9.938  37.579  0.00  0.00    +0.000 C 
ATOM      5  O   UNL     1      20.188   9.923  37.067  0.00  0.00    +0.000 OA
ATOM      6  C   UNL     1      19.000  11.113  38.527  0.00  0.00    +0.000 C 
ATOM      7  C   UNL     1      19.655  10.535  39.732  0.00  0.00    +0.000 C 
ATOM      8  N   UNL     1      19.349   9.275  40.160  0.00  0.00    +0.000 N 
ATOM      9  C   UNL     1      18.774   9.399  41.535  0.00  0.00    +0.000 C 
ATOM     10  C   UNL     1      19.757  10.132  42.434  0.00  0.00    +0.000 C 
ATOM     11  C   UNL     1      21.154   9.956  41.850  0.00  0.00    +0.000 C 
ATOM     12  C   UNL     1      21.323   8.529  41.397  0.00  0.00    +0.000 C 
ATOM     13  C   UNL     1      20.408   8.312  40.232  0.00  0.00    +0.000 C 
ENDROOT
BRANCH   4  14
ATOM     14  C   UNL     1      18.031  10.301  36.387  0.00  0.00    +0.000 A 
ATOM     15  C   UNL     1      18.191   9.554  35.230  0.00  0.00    +0.000 A 
ATOM     16  C   UNL     1      17.504   9.880  34.052  0.00  0.00    +0.000 A 
ATOM     17  C   UNL     1      16.654  10.957  34.004  0.00  0.00    +0.000 A 
ATOM     18  C   UNL     1      16.500  11.692  35.149  0.00  0.00    +0.000 A 
ATOM     19  C   UNL     1      17.180  11.354  36.305  0.00  0.00    +0.000 A 
BRANCH  17  20
ATOM     20  N   UNL     1      15.984  11.319  32.786  0.00  0.00    +0.000 N 
ATOM     21  O   UNL     1      16.184  10.726  31.702  0.00  0.00    +0.000 OA
ATOM     22  O   UNL     1      15.089  12.357  32.780  0.00  0.00    +0.000 OA
ENDBRANCH  17  20
ENDBRANCH   4  14
TORSDOF 2
ENDMDL
MODEL 6
REMARK VINA RESULT:      -6.3     15.913     17.623
REMARK  Name = 
REMARK  2 active torsions:
REMARK  status: ('A' for Active; 'I' for Inactive)
REMARK    1  A    between atoms: C_4  and  C_6
REMARK    2  A    between atoms: C_9  and  N_10
REMARK                            x       y       z     vdW  Elec       q    Type
REMARK                         _______ _______ _______ _____ _____    ______ ____
ROOT
ATOM      1  C   UNL     1      17.530   4.800  42.485  0.00  0.00    +0.000 C 
ATOM      2  C   UNL     1      18.314   6.052  43.201  0.00  0.00    +0.000 C 
ATOM      3  O   UNL     1      19.653   5.789  42.600  0.00  0.00    +0.000 OA
ATOM      4  C   UNL     1      19.747   5.311  41.400  0.00  0.00    +0.000 C 
ATOM      5  O   UNL     1      20.661   6.201  40.716  0.00  0.00    +0.000 OA
ATOM      6  C   UNL     1      18.577   5.464  40.445  0.00  0.00    +0.000 C 
ATOM      7  C   UNL     1      17.933   6.746  40.844  0.00  0.00    +0.000 C 
ATOM      8  N   UNL     1      17.874   7.123  42.155  0.00  0.00    +0.000 N 
ATOM      9  C   UNL     1      16.429   7.225  42.525  0.00  0.00    +0.000 C 
ATOM     10  C   UNL     1      15.726   8.184  41.577  0.00  0.00    +0.000 C 
ATOM     11  C   UNL     1      16.771   9.133  41.003  0.00  0.00    +0.000 C 
ATOM     12  C   UNL     1      17.705   9.563  42.105  0.00  0.00    +0.000 C 
ATOM     13  C   UNL     1      18.492   8.362  42.527  0.00  0.00    +0.000 C 
ENDROOT
BRANCH   4  14
ATOM     14  C   UNL     1      20.402   3.988  41.259  0.00  0.00    +0.000 A 
ATOM     15  C   UNL     1      21.588   3.762  41.942  0.00  0.00    +0.000 A 
ATOM     16  C   UNL     1      22.286   2.553  41.807  0.00  0.00    +0.000 A 
ATOM     17  C   UNL     1      21.822   1.555  40.987  0.00  0.00    +0.000 A 
ATOM     18  C   UNL     1      20.651   1.784  40.315  0.00  0.00    +0.000 A 
ATOM     19  C   UNL     1      19.970   2.979  40.463  0.00  0.00    +0.000 A 
BRANCH  17  20
ATOM     20  N   UNL     1      22.560   0.335  40.812  0.00  0.00    +0.000 N 
ATOM     21  O   UNL     1      22.003  -0.768  40.611  0.00  0.00    +0.000 OA
ATOM     22  O   UNL     1      23.929   0.349  40.869  0.00  0.00    +0.000 OA
ENDBRANCH  17  20
ENDBRANCH   4  14
TORSDOF 2
ENDMDL
MODEL 7
REMARK VINA RESULT:      -6.2     22.277     25.042
REMARK  Name = 
REMARK  2 active torsions:
REMARK  status: ('A' for Active; 'I' for Inactive)
REMARK    1  A    between atoms: C_4  and  C_6
REMARK    2  A    between atoms: C_9  and  N_10
REMARK                            x       y       z     vdW  Elec       q    Type
REMARK                         _______ _______ _______ _____ _____    ______ ____
ROOT
ATOM      1  C   UNL     1      30.898  24.733  28.139  0.00  0.00    +0.000 C 
ATOM      2  C   UNL     1      29.652  24.463  29.175  0.00  0.00    +0.000 C 
ATOM      3  O   UNL     1      28.785  23.718  28.217  0.00  0.00    +0.000 OA
ATOM      4  C   UNL     1      29.314  22.952  27.317  0.00  0.00    +0.000 C 
ATOM      5  O   UNL     1      28.631  21.684  27.460  0.00  0.00    +0.000 OA
ATOM      6  C   UNL     1      30.727  22.433  27.521  0.00  0.00    +0.000 C 
ATOM      7  C   UNL     1      30.870  22.303  28.997  0.00  0.00    +0.000 C 
ATOM      8  N   UNL     1      30.281  23.200  29.841  0.00  0.00    +0.000 N 
ATOM      9  C   UNL     1      31.373  23.869  30.613  0.00  0.00    +0.000 C 
ATOM     10  C   UNL     1      32.213  22.818  31.322  0.00  0.00    +0.000 C 
ATOM     11  C   UNL     1      31.354  21.572  31.507  0.00  0.00    +0.000 C 
ATOM     12  C   UNL     1      29.971  21.986  31.942  0.00  0.00    +0.000 C 
ATOM     13  C   UNL     1      29.333  22.705  30.795  0.00  0.00    +0.000 C 
ENDROOT
BRANCH   4  14
ATOM     14  C   UNL     1      29.059  23.310  25.901  0.00  0.00    +0.000 A 
ATOM     15  C   UNL     1      30.093  23.172  24.988  0.00  0.00    +0.000 A 
ATOM     16  C   UNL     1      29.934  23.546  23.646  0.00  0.00    +0.000 A 
ATOM     17  C   UNL     1      28.749  24.071  23.193  0.00  0.00    +0.000 A 
ATOM     18  C   UNL     1      27.731  24.206  24.100  0.00  0.00    +0.000 A 
ATOM     19  C   UNL     1      27.901  23.826  25.419  0.00  0.00    +0.000 A 
BRANCH  17  20
ATOM     20  N   UNL     1      28.599  24.498  21.830  0.00  0.00    +0.000 N 
ATOM     21  O   UNL     1      27.534  24.985  21.388  0.00  0.00    +0.000 OA
ATOM     22  O   UNL     1      29.646  24.373  20.954  0.00  0.00    +0.000 OA
ENDBRANCH  17  20
ENDBRANCH   4  14
TORSDOF 2
ENDMDL
MODEL 8
REMARK VINA RESULT:      -6.2     22.164     25.310
REMARK  Name = 
REMARK  2 active torsions:
REMARK  status: ('A' for Active; 'I' for Inactive)
REMARK    1  A    between atoms: C_4  and  C_6
REMARK    2  A    between atoms: C_9  and  N_10
REMARK                            x       y       z     vdW  Elec       q    Type
REMARK                         _______ _______ _______ _____ _____    ______ ____
ROOT
ATOM      1  C   UNL     1      27.982  22.837  25.823  0.00  0.00    +0.000 C 
ATOM      2  C   UNL     1      27.996  24.465  25.604  0.00  0.00    +0.000 C 
ATOM      3  O   UNL     1      29.218  24.741  26.413  0.00  0.00    +0.000 OA
ATOM      4  C   UNL     1      30.190  23.885  26.441  0.00  0.00    +0.000 C 
ATOM      5  O   UNL     1      31.373  24.655  26.123  0.00  0.00    +0.000 OA
ATOM      6  C   UNL     1      30.315  22.868  25.321  0.00  0.00    +0.000 C 
ATOM      7  C   UNL     1      29.775  23.563  24.120  0.00  0.00    +0.000 C 
ATOM      8  N   UNL     1      28.722  24.425  24.224  0.00  0.00    +0.000 N 
ATOM      9  C   UNL     1      27.607  23.869  23.396  0.00  0.00    +0.000 C 
ATOM     10  C   UNL     1      28.089  23.656  21.969  0.00  0.00    +0.000 C 
ATOM     11  C   UNL     1      29.266  24.593  21.722  0.00  0.00    +0.000 C 
ATOM     12  C   UNL     1      28.955  25.942  22.318  0.00  0.00    +0.000 C 
ATOM     13  C   UNL     1      28.919  25.782  23.806  0.00  0.00    +0.000 C 
ENDROOT
BRANCH   4  14
ATOM     14  C   UNL     1      30.522  23.294  27.760  0.00  0.00    +0.000 A 
ATOM     15  C   UNL     1      31.715  22.601  27.892  0.00  0.00    +0.000 A 
ATOM     16  C   UNL     1      32.062  21.971  29.096  0.00  0.00    +0.000 A 
ATOM     17  C   UNL     1      31.225  22.013  30.183  0.00  0.00    +0.000 A 
ATOM     18  C   UNL     1      30.047  22.699  30.047  0.00  0.00    +0.000 A 
ATOM     19  C   UNL     1      29.722  23.321  28.855  0.00  0.00    +0.000 A 
BRANCH  17  20
ATOM     20  N   UNL     1      31.557  21.330  31.402  0.00  0.00    +0.000 N 
ATOM     21  O   UNL     1      30.735  21.169  32.332  0.00  0.00    +0.000 OA
ATOM     22  O   UNL     1      32.821  20.829  31.584  0.00  0.00    +0.000 OA
ENDBRANCH  17  20
ENDBRANCH   4  14
TORSDOF 2
ENDMDL
MODEL 9
REMARK VINA RESULT:      -6.2     24.461     27.716
REMARK  Name = 
REMARK  2 active torsions:
REMARK  status: ('A' for Active; 'I' for Inactive)
REMARK    1  A    between atoms: C_4  and  C_6
REMARK    2  A    between atoms: C_9  and  N_10
REMARK                            x       y       z     vdW  Elec       q    Type
REMARK                         _______ _______ _______ _____ _____    ______ ____
ROOT
ATOM      1  C   UNL     1      26.119  24.920  24.729  0.00  0.00    +0.000 C 
ATOM      2  C   UNL     1      26.705  23.407  24.981  0.00  0.00    +0.000 C 
ATOM      3  O   UNL     1      28.023  23.614  24.315  0.00  0.00    +0.000 OA
ATOM      4  C   UNL     1      28.610  24.767  24.375  0.00  0.00    +0.000 C 
ATOM      5  O   UNL     1      29.952  24.477  24.836  0.00  0.00    +0.000 OA
ATOM      6  C   UNL     1      28.232  25.736  25.481  0.00  0.00    +0.000 C 
ATOM      7  C   UNL     1      27.858  24.867  26.631  0.00  0.00    +0.000 C 
ATOM      8  N   UNL     1      27.211  23.681  26.431  0.00  0.00    +0.000 N 
ATOM      9  C   UNL     1      25.888  23.773  27.122  0.00  0.00    +0.000 C 
ATOM     10  C   UNL     1      26.101  24.120  28.588  0.00  0.00    +0.000 C 
ATOM     11  C   UNL     1      27.504  23.673  28.980  0.00  0.00    +0.000 C 
ATOM     12  C   UNL     1      27.776  22.316  28.382  0.00  0.00    +0.000 C 
ATOM     13  C   UNL     1      27.845  22.482  26.896  0.00  0.00    +0.000 C 
ENDROOT
BRANCH   4  14
ATOM     14  C   UNL     1      28.843  25.465  23.088  0.00  0.00    +0.000 A 
ATOM     15  C   UNL     1      29.143  24.703  21.969  0.00  0.00    +0.000 A 
ATOM     16  C   UNL     1      29.430  25.304  20.735  0.00  0.00    +0.000 A 
ATOM     17  C   UNL     1      29.430  26.670  20.596  0.00  0.00    +0.000 A 
ATOM     18  C   UNL     1      29.133  27.418  21.705  0.00  0.00    +0.000 A 
ATOM     19  C   UNL     1      28.847  26.810  22.914  0.00  0.00    +0.000 A 
BRANCH  17  20
ATOM     20  N   UNL     1      29.768  27.289  19.345  0.00  0.00    +0.000 N 
ATOM     21  O   UNL     1      30.616  26.808  18.560  0.00  0.00    +0.000 OA
ATOM     22  O   UNL     1      29.156  28.458  18.972  0.00  0.00    +0.000 OA
ENDBRANCH  17  20
ENDBRANCH   4  14
TORSDOF 2
ENDMDL
MODEL 10
REMARK VINA RESULT:      -6.1     22.395     25.309
REMARK  Name = 
REMARK  2 active torsions:
REMARK  status: ('A' for Active; 'I' for Inactive)
REMARK    1  A    between atoms: C_4  and  C_6
REMARK    2  A    between atoms: C_9  and  N_10
REMARK                            x       y       z     vdW  Elec       q    Type
REMARK                         _______ _______ _______ _____ _____    ______ ____
ROOT
ATOM      1  C   UNL     1      28.552  24.897  26.869  0.00  0.00    +0.000 C 
ATOM      2  C   UNL     1      28.975  25.292  25.332  0.00  0.00    +0.000 C 
ATOM      3  O   UNL     1      30.172  24.406  25.246  0.00  0.00    +0.000 OA
ATOM      4  C   UNL     1      30.185  23.264  25.857  0.00  0.00    +0.000 C 
ATOM      5  O   UNL     1      30.572  22.305  24.845  0.00  0.00    +0.000 OA
ATOM      6  C   UNL     1      28.868  22.615  26.245  0.00  0.00    +0.000 C 
ATOM      7  C   UNL     1      27.910  23.049  25.191  0.00  0.00    +0.000 C 
ATOM      8  N   UNL     1      27.988  24.298  24.645  0.00  0.00    +0.000 N 
ATOM      9  C   UNL     1      26.705  25.001  24.953  0.00  0.00    +0.000 C 
ATOM     10  C   UNL     1      25.535  24.176  24.439  0.00  0.00    +0.000 C 
ATOM     11  C   UNL     1      26.045  23.285  23.311  0.00  0.00    +0.000 C 
ATOM     12  C   UNL     1      26.970  24.086  22.430  0.00  0.00    +0.000 C 
ATOM     13  C   UNL     1      28.195  24.403  23.230  0.00  0.00    +0.000 C 
ENDROOT
BRANCH   4  14
ATOM     14  C   UNL     1      31.218  23.080  26.904  0.00  0.00    +0.000 A 
ATOM     15  C   UNL     1      31.095  22.005  27.772  0.00  0.00    +0.000 A 
ATOM     16  C   UNL     1      32.007  21.807  28.819  0.00  0.00    +0.000 A 
ATOM     17  C   UNL     1      33.050  22.675  29.023  0.00  0.00    +0.000 A 
ATOM     18  C   UNL     1      33.167  23.735  28.163  0.00  0.00    +0.000 A 
ATOM     19  C   UNL     1      32.263  23.914  27.131  0.00  0.00    +0.000 A 
BRANCH  17  20
ATOM     20  N   UNL     1      33.958  22.499  30.122  0.00  0.00    +0.000 N 
ATOM     21  O   UNL     1      34.774  23.381  30.472  0.00  0.00    +0.000 OA
ATOM     22  O   UNL     1      33.956  21.325  30.830  0.00  0.00    +0.000 OA
ENDBRANCH  17  20
ENDBRANCH   4  14
TORSDOF 2
ENDMDL
