MODEL 1
REMARK VINA RESULT:      -6.9      0.000      0.000
REMARK  Name = 
REMARK  1 active torsions:
REMARK  status: ('A' for Active; 'I' for Inactive)
REMARK    1  A    between atoms: C_2  and  C_3
REMARK                            x       y       z     vdW  Elec       q    Type
REMARK                         _______ _______ _______ _____ _____    ______ ____
ROOT
ATOM      1  C   UNL     1      30.790  21.419   9.346  0.00  0.00    +0.000 C 
ATOM      2  N   UNL     1      29.497  21.006  10.205  0.00  0.00    +0.000 NA
ATOM      3  C   UNL     1      29.080  21.915  11.204  0.00  0.00    +0.000 A 
ATOM      4  C   UNL     1      27.727  22.183  11.221  0.00  0.00    +0.000 A 
ATOM      5  C   UNL     1      27.198  23.042  12.151  0.00  0.00    +0.000 A 
ATOM      6  C   UNL     1      27.998  23.661  13.091  0.00  0.00    +0.000 A 
ATOM      7  C   UNL     1      29.345  23.415  13.100  0.00  0.00    +0.000 A 
ATOM      8  C   UNL     1      29.855  22.539  12.145  0.00  0.00    +0.000 A 
ATOM      9  N   UNL     1      31.301  22.381  12.274  0.00  0.00    +0.000 NA
ATOM     10  C   UNL     1      32.166  21.829  11.284  0.00  0.00    +0.000 C 
ATOM     11  C   UNL     1      33.232  22.465  11.160  0.00  0.00    +0.000 C 
ATOM     12  C   UNL     1      34.424  22.346  10.324  0.00  0.00    +0.000 C 
ATOM     13  C   UNL     1      35.490  21.430  10.883  0.00  0.00    +0.000 C 
ATOM     14  C   UNL     1      34.909  23.713   9.980  0.00  0.00    +0.000 C 
ATOM     15  C   UNL     1      33.885  21.637   9.068  0.00  0.00    +0.000 C 
ATOM     16  C   UNL     1      33.055  20.505   9.480  0.00  0.00    +0.000 C 
ATOM     17  O   UNL     1      33.367  19.387   9.038  0.00  0.00    +0.000 OA
ATOM     18  C   UNL     1      31.834  20.578  10.419  0.00  0.00    +0.000 C 
ENDROOT
BRANCH   1  20
ATOM     19  C   UNL     1      30.659  20.640   6.937  0.00  0.00    +0.000 C 
ATOM     20  C   UNL     1      30.572  20.156   8.346  0.00  0.00    +0.000 C 
ENDBRANCH   1  20
TORSDOF 1
ENDMDL
MODEL 2
REMARK VINA RESULT:      -6.6     27.333     29.974
REMARK  Name = 
REMARK  1 active torsions:
REMARK  status: ('A' for Active; 'I' for Inactive)
REMARK    1  A    between atoms: C_2  and  C_3
REMARK                            x       y       z     vdW  Elec       q    Type
REMARK                         _______ _______ _______ _____ _____    ______ ____
ROOT
ATOM      1  C   UNL     1      15.064  13.106  34.412  0.00  0.00    +0.000 C 
ATOM      2  N   UNL     1      14.882  11.940  35.501  0.00  0.00    +0.000 NA
ATOM      3  C   UNL     1      15.980  11.071  35.693  0.00  0.00    +0.000 A 
ATOM      4  C   UNL     1      16.312  10.832  37.010  0.00  0.00    +0.000 A 
ATOM      5  C   UNL     1      17.353   9.997  37.326  0.00  0.00    +0.000 A 
ATOM      6  C   UNL     1      18.097   9.376  36.343  0.00  0.00    +0.000 A 
ATOM      7  C   UNL     1      17.793   9.593  35.026  0.00  0.00    +0.000 A 
ATOM      8  C   UNL     1      16.730  10.444  34.733  0.00  0.00    +0.000 A 
ATOM      9  N   UNL     1      16.530  10.583  33.294  0.00  0.00    +0.000 NA
ATOM     10  C   UNL     1      15.762  11.603  32.659  0.00  0.00    +0.000 C 
ATOM     11  C   UNL     1      16.311  12.061  31.636  0.00  0.00    +0.000 C 
ATOM     12  C   UNL     1      15.982  13.083  30.646  0.00  0.00    +0.000 C 
ATOM     13  C   UNL     1      15.135  12.585  29.495  0.00  0.00    +0.000 C 
ATOM     14  C   UNL     1      17.235  13.773  30.231  0.00  0.00    +0.000 C 
ATOM     15  C   UNL     1      15.078  14.043  31.441  0.00  0.00    +0.000 C 
ATOM     16  C   UNL     1      14.084  13.261  32.176  0.00  0.00    +0.000 C 
ATOM     17  O   UNL     1      12.889  13.534  31.973  0.00  0.00    +0.000 OA
ATOM     18  C   UNL     1      14.389  12.126  33.174  0.00  0.00    +0.000 C 
ENDROOT
BRANCH   1  20
ATOM     19  C   UNL     1      13.218  13.193  36.147  0.00  0.00    +0.000 C 
ATOM     20  C   UNL     1      13.649  13.780  34.845  0.00  0.00    +0.000 C 
ENDBRANCH   1  20
TORSDOF 1
ENDMDL
MODEL 3
REMARK VINA RESULT:      -6.5     13.983     16.921
REMARK  Name = 
REMARK  1 active torsions:
REMARK  status: ('A' for Active; 'I' for Inactive)
REMARK    1  A    between atoms: C_2  and  C_3
REMARK                            x       y       z     vdW  Elec       q    Type
REMARK                         _______ _______ _______ _____ _____    ______ ____
ROOT
ATOM      1  C   UNL     1      29.462  24.052  26.554  0.00  0.00    +0.000 C 
ATOM      2  N   UNL     1      29.720  23.355  25.131  0.00  0.00    +0.000 NA
ATOM      3  C   UNL     1      28.699  23.488  24.163  0.00  0.00    +0.000 A 
ATOM      4  C   UNL     1      29.131  23.848  22.903  0.00  0.00    +0.000 A 
ATOM      5  C   UNL     1      28.236  23.998  21.875  0.00  0.00    +0.000 A 
ATOM      6  C   UNL     1      26.884  23.796  22.067  0.00  0.00    +0.000 A 
ATOM      7  C   UNL     1      26.423  23.438  23.306  0.00  0.00    +0.000 A 
ATOM      8  C   UNL     1      27.354  23.292  24.332  0.00  0.00    +0.000 A 
ATOM      9  N   UNL     1      26.716  22.915  25.590  0.00  0.00    +0.000 NA
ATOM     10  C   UNL     1      27.317  22.999  26.880  0.00  0.00    +0.000 C 
ATOM     11  C   UNL     1      26.539  23.439  27.752  0.00  0.00    +0.000 C 
ATOM     12  C   UNL     1      26.631  23.724  29.181  0.00  0.00    +0.000 C 
ATOM     13  C   UNL     1      26.335  22.538  30.073  0.00  0.00    +0.000 C 
ATOM     14  C   UNL     1      25.819  24.936  29.484  0.00  0.00    +0.000 C 
ATOM     15  C   UNL     1      28.130  24.021  29.370  0.00  0.00    +0.000 C 
ATOM     16  C   UNL     1      28.909  22.989  28.686  0.00  0.00    +0.000 C 
ATOM     17  O   UNL     1      29.735  22.360  29.370  0.00  0.00    +0.000 OA
ATOM     18  C   UNL     1      28.790  22.609  27.197  0.00  0.00    +0.000 C 
ENDROOT
BRANCH   1  20
ATOM     19  C   UNL     1      31.923  24.156  25.957  0.00  0.00    +0.000 C 
ATOM     20  C   UNL     1      30.981  23.723  27.030  0.00  0.00    +0.000 C 
ENDBRANCH   1  20
TORSDOF 1
ENDMDL
MODEL 4
REMARK VINA RESULT:      -6.4     12.172     14.887
REMARK  Name = 
REMARK  1 active torsions:
REMARK  status: ('A' for Active; 'I' for Inactive)
REMARK    1  A    between atoms: C_2  and  C_3
REMARK                            x       y       z     vdW  Elec       q    Type
REMARK                         _______ _______ _______ _____ _____    ______ ____
ROOT
ATOM      1  C   UNL     1      27.980  23.756  24.970  0.00  0.00    +0.000 C 
ATOM      2  N   UNL     1      28.711  22.571  25.770  0.00  0.00    +0.000 NA
ATOM      3  C   UNL     1      29.940  22.887  26.392  0.00  0.00    +0.000 A 
ATOM      4  C   UNL     1      30.066  22.449  27.694  0.00  0.00    +0.000 A 
ATOM      5  C   UNL     1      31.218  22.685  28.401  0.00  0.00    +0.000 A 
ATOM      6  C   UNL     1      32.278  23.364  27.836  0.00  0.00    +0.000 A 
ATOM      7  C   UNL     1      32.185  23.811  26.545  0.00  0.00    +0.000 A 
ATOM      8  C   UNL     1      31.005  23.558  25.850  0.00  0.00    +0.000 A 
ATOM      9  N   UNL     1      31.049  24.098  24.495  0.00  0.00    +0.000 NA
ATOM     10  C   UNL     1      29.922  24.298  23.645  0.00  0.00    +0.000 C 
ATOM     11  C   UNL     1      29.964  25.380  23.026  0.00  0.00    +0.000 C 
ATOM     12  C   UNL     1      29.102  26.065  22.066  0.00  0.00    +0.000 C 
ATOM     13  C   UNL     1      29.346  25.679  20.623  0.00  0.00    +0.000 C 
ATOM     14  C   UNL     1      29.161  27.531  22.326  0.00  0.00    +0.000 C 
ATOM     15  C   UNL     1      27.707  25.514  22.413  0.00  0.00    +0.000 C 
ATOM     16  C   UNL     1      27.790  24.061  22.550  0.00  0.00    +0.000 C 
ATOM     17  O   UNL     1      27.034  23.382  21.835  0.00  0.00    +0.000 OA
ATOM     18  C   UNL     1      28.737  23.298  23.498  0.00  0.00    +0.000 C 
ENDROOT
BRANCH   1  20
ATOM     19  C   UNL     1      25.501  23.482  25.421  0.00  0.00    +0.000 C 
ATOM     20  C   UNL     1      26.660  22.835  24.741  0.00  0.00    +0.000 C 
ENDBRANCH   1  20
TORSDOF 1
ENDMDL
MODEL 5
REMARK VINA RESULT:      -6.3     14.150     16.875
REMARK  Name = 
REMARK  1 active torsions:
REMARK  status: ('A' for Active; 'I' for Inactive)
REMARK    1  A    between atoms: C_2  and  C_3
REMARK                            x       y       z     vdW  Elec       q    Type
REMARK                         _______ _______ _______ _____ _____    ______ ____
ROOT
ATOM      1  C   UNL     1      27.557  23.974  27.137  0.00  0.00    +0.000 C 
ATOM      2  N   UNL     1      27.871  22.904  28.293  0.00  0.00    +0.000 NA
ATOM      3  C   UNL     1      29.231  22.688  28.608  0.00  0.00    +0.000 A 
ATOM      4  C   UNL     1      29.526  22.685  29.955  0.00  0.00    +0.000 A 
ATOM      5  C   UNL     1      30.810  22.475  30.388  0.00  0.00    +0.000 A 
ATOM      6  C   UNL     1      31.842  22.263  29.495  0.00  0.00    +0.000 A 
ATOM      7  C   UNL     1      31.582  22.259  28.151  0.00  0.00    +0.000 A 
ATOM      8  C   UNL     1      30.269  22.475  27.739  0.00  0.00    +0.000 A 
ATOM      9  N   UNL     1      30.148  22.449  26.284  0.00  0.00    +0.000 NA
ATOM     10  C   UNL     1      29.039  22.944  25.537  0.00  0.00    +0.000 C 
ATOM     11  C   UNL     1      29.382  23.576  24.517  0.00  0.00    +0.000 C 
ATOM     12  C   UNL     1      28.684  24.274  23.441  0.00  0.00    +0.000 C 
ATOM     13  C   UNL     1      28.284  23.389  22.281  0.00  0.00    +0.000 C 
ATOM     14  C   UNL     1      29.477  25.474  23.050  0.00  0.00    +0.000 C 
ATOM     15  C   UNL     1      27.365  24.698  24.113  0.00  0.00    +0.000 C 
ATOM     16  C   UNL     1      26.816  23.556  24.844  0.00  0.00    +0.000 C 
ATOM     17  O   UNL     1      25.660  23.204  24.554  0.00  0.00    +0.000 OA
ATOM     18  C   UNL     1      27.547  22.748  25.935  0.00  0.00    +0.000 C 
ENDROOT
BRANCH   1  20
ATOM     19  C   UNL     1      25.707  24.402  28.817  0.00  0.00    +0.000 C 
ATOM     20  C   UNL     1      25.962  23.886  27.440  0.00  0.00    +0.000 C 
ENDBRANCH   1  20
TORSDOF 1
ENDMDL
MODEL 6
REMARK VINA RESULT:      -6.2     13.511     16.241
REMARK  Name = 
REMARK  1 active torsions:
REMARK  status: ('A' for Active; 'I' for Inactive)
REMARK    1  A    between atoms: C_2  and  C_3
REMARK                            x       y       z     vdW  Elec       q    Type
REMARK                         _______ _______ _______ _____ _____    ______ ____
ROOT
ATOM      1  C   UNL     1      28.818  22.874  26.034  0.00  0.00    +0.000 C 
ATOM      2  N   UNL     1      28.968  23.523  27.495  0.00  0.00    +0.000 NA
ATOM      3  C   UNL     1      27.780  23.966  28.119  0.00  0.00    +0.000 A 
ATOM      4  C   UNL     1      27.634  23.582  29.436  0.00  0.00    +0.000 A 
ATOM      5  C   UNL     1      26.528  23.959  30.154  0.00  0.00    +0.000 A 
ATOM      6  C   UNL     1      25.532  24.728  29.585  0.00  0.00    +0.000 A 
ATOM      7  C   UNL     1      25.647  25.125  28.280  0.00  0.00    +0.000 A 
ATOM      8  C   UNL     1      26.781  24.729  27.574  0.00  0.00    +0.000 A 
ATOM      9  N   UNL     1      26.762  25.220  26.200  0.00  0.00    +0.000 NA
ATOM     10  C   UNL     1      27.583  24.741  25.137  0.00  0.00    +0.000 C 
ATOM     11  C   UNL     1      26.962  24.611  24.062  0.00  0.00    +0.000 C 
ATOM     12  C   UNL     1      27.300  24.170  22.712  0.00  0.00    +0.000 C 
ATOM     13  C   UNL     1      27.841  25.262  21.816  0.00  0.00    +0.000 C 
ATOM     14  C   UNL     1      26.138  23.430  22.142  0.00  0.00    +0.000 C 
ATOM     15  C   UNL     1      28.479  23.211  22.956  0.00  0.00    +0.000 C 
ATOM     16  C   UNL     1      29.426  23.845  23.873  0.00  0.00    +0.000 C 
ATOM     17  O   UNL     1      30.600  23.959  23.482  0.00  0.00    +0.000 OA
ATOM     18  C   UNL     1      29.093  24.390  25.276  0.00  0.00    +0.000 C 
ENDROOT
BRANCH   1  20
ATOM     19  C   UNL     1      30.779  22.065  27.423  0.00  0.00    +0.000 C 
ATOM     20  C   UNL     1      30.383  22.431  26.032  0.00  0.00    +0.000 C 
ENDBRANCH   1  20
TORSDOF 1
ENDMDL
MODEL 7
REMARK VINA RESULT:      -6.2     34.044     34.949
REMARK  Name = 
REMARK  1 active torsions:
REMARK  status: ('A' for Active; 'I' for Inactive)
REMARK    1  A    between atoms: C_2  and  C_3
REMARK                            x       y       z     vdW  Elec       q    Type
REMARK                         _______ _______ _______ _____ _____    ______ ____
ROOT
ATOM      1  C   UNL     1      20.605  -9.609  24.954  0.00  0.00    +0.000 C 
ATOM      2  N   UNL     1      20.114  -9.072  26.385  0.00  0.00    +0.000 NA
ATOM      3  C   UNL     1      19.615  -7.750  26.432  0.00  0.00    +0.000 A 
ATOM      4  C   UNL     1      18.431  -7.597  27.123  0.00  0.00    +0.000 A 
ATOM      5  C   UNL     1      17.852  -6.360  27.248  0.00  0.00    +0.000 A 
ATOM      6  C   UNL     1      18.430  -5.238  26.689  0.00  0.00    +0.000 A 
ATOM      7  C   UNL     1      19.606  -5.357  25.998  0.00  0.00    +0.000 A 
ATOM      8  C   UNL     1      20.173  -6.624  25.887  0.00  0.00    +0.000 A 
ATOM      9  N   UNL     1      21.415  -6.595  25.120  0.00  0.00    +0.000 NA
ATOM     10  C   UNL     1      22.065  -7.730  24.553  0.00  0.00    +0.000 C 
ATOM     11  C   UNL     1      22.497  -7.520  23.401  0.00  0.00    +0.000 C 
ATOM     12  C   UNL     1      23.210  -8.304  22.397  0.00  0.00    +0.000 C 
ATOM     13  C   UNL     1      24.716  -8.285  22.544  0.00  0.00    +0.000 C 
ATOM     14  C   UNL     1      22.721  -7.913  21.044  0.00  0.00    +0.000 C 
ATOM     15  C   UNL     1      22.780  -9.745  22.727  0.00  0.00    +0.000 C 
ATOM     16  C   UNL     1      22.896  -9.957  24.169  0.00  0.00    +0.000 C 
ATOM     17  O   UNL     1      23.609 -10.903  24.544  0.00  0.00    +0.000 OA
ATOM     18  C   UNL     1      22.219  -9.107  25.263  0.00  0.00    +0.000 C 
ENDROOT
BRANCH   1  20
ATOM     19  C   UNL     1      19.549 -11.531  26.225  0.00  0.00    +0.000 C 
ATOM     20  C   UNL     1      20.809 -11.108  25.547  0.00  0.00    +0.000 C 
ENDBRANCH   1  20
TORSDOF 1
ENDMDL
MODEL 8
REMARK VINA RESULT:      -6.0     19.281     20.495
REMARK  Name = 
REMARK  1 active torsions:
REMARK  status: ('A' for Active; 'I' for Inactive)
REMARK    1  A    between atoms: C_2  and  C_3
REMARK                            x       y       z     vdW  Elec       q    Type
REMARK                         _______ _______ _______ _____ _____    ______ ____
ROOT
ATOM      1  C   UNL     1      25.463   3.879  15.359  0.00  0.00    +0.000 C 
ATOM      2  N   UNL     1      25.617   5.429  15.747  0.00  0.00    +0.000 NA
ATOM      3  C   UNL     1      26.370   5.724  16.906  0.00  0.00    +0.000 A 
ATOM      4  C   UNL     1      27.297   6.734  16.759  0.00  0.00    +0.000 A 
ATOM      5  C   UNL     1      28.083   7.119  17.816  0.00  0.00    +0.000 A 
ATOM      6  C   UNL     1      27.972   6.510  19.050  0.00  0.00    +0.000 A 
ATOM      7  C   UNL     1      27.062   5.504  19.228  0.00  0.00    +0.000 A 
ATOM      8  C   UNL     1      26.276   5.133  18.139  0.00  0.00    +0.000 A 
ATOM      9  N   UNL     1      25.360   4.048  18.477  0.00  0.00    +0.000 NA
ATOM     10  C   UNL     1      24.665   3.229  17.540  0.00  0.00    +0.000 C 
ATOM     11  C   UNL     1      24.656   2.023  17.860  0.00  0.00    +0.000 C 
ATOM     12  C   UNL     1      24.112   0.797  17.282  0.00  0.00    +0.000 C 
ATOM     13  C   UNL     1      22.678   0.507  17.668  0.00  0.00    +0.000 C 
ATOM     14  C   UNL     1      25.057  -0.323  17.553  0.00  0.00    +0.000 C 
ATOM     15  C   UNL     1      24.080   1.119  15.777  0.00  0.00    +0.000 C 
ATOM     16  C   UNL     1      23.494   2.446  15.587  0.00  0.00    +0.000 C 
ATOM     17  O   UNL     1      22.503   2.524  14.841  0.00  0.00    +0.000 OA
ATOM     18  C   UNL     1      23.993   3.752  16.237  0.00  0.00    +0.000 C 
ENDROOT
BRANCH   1  20
ATOM     19  C   UNL     1      25.606   5.262  13.239  0.00  0.00    +0.000 C 
ATOM     20  C   UNL     1      24.752   4.266  13.949  0.00  0.00    +0.000 C 
ENDBRANCH   1  20
TORSDOF 1
ENDMDL
MODEL 9
REMARK VINA RESULT:      -6.0     20.180     23.776
REMARK  Name = 
REMARK  1 active torsions:
REMARK  status: ('A' for Active; 'I' for Inactive)
REMARK    1  A    between atoms: C_2  and  C_3
REMARK                            x       y       z     vdW  Elec       q    Type
REMARK                         _______ _______ _______ _____ _____    ______ ____
ROOT
ATOM      1  C   UNL     1      10.877  21.321  20.998  0.00  0.00    +0.000 C 
ATOM      2  N   UNL     1      12.209  21.800  20.239  0.00  0.00    +0.000 NA
ATOM      3  C   UNL     1      13.084  22.643  20.960  0.00  0.00    +0.000 A 
ATOM      4  C   UNL     1      14.416  22.292  20.898  0.00  0.00    +0.000 A 
ATOM      5  C   UNL     1      15.366  23.039  21.548  0.00  0.00    +0.000 A 
ATOM      6  C   UNL     1      15.019  24.157  22.280  0.00  0.00    +0.000 A 
ATOM      7  C   UNL     1      13.705  24.532  22.361  0.00  0.00    +0.000 A 
ATOM      8  C   UNL     1      12.762  23.756  21.691  0.00  0.00    +0.000 A 
ATOM      9  N   UNL     1      11.409  24.273  21.873  0.00  0.00    +0.000 NA
ATOM     10  C   UNL     1      10.206  23.557  21.604  0.00  0.00    +0.000 C 
ATOM     11  C   UNL     1       9.334  23.723  22.481  0.00  0.00    +0.000 C 
ATOM     12  C   UNL     1       7.972  23.242  22.700  0.00  0.00    +0.000 C 
ATOM     13  C   UNL     1       6.901  24.074  22.030  0.00  0.00    +0.000 C 
ATOM     14  C   UNL     1       7.763  23.035  24.161  0.00  0.00    +0.000 C 
ATOM     15  C   UNL     1       7.970  21.890  21.961  0.00  0.00    +0.000 C 
ATOM     16  C   UNL     1       8.576  22.069  20.642  0.00  0.00    +0.000 C 
ATOM     17  O   UNL     1       7.894  21.734  19.659  0.00  0.00    +0.000 OA
ATOM     18  C   UNL     1       9.980  22.641  20.365  0.00  0.00    +0.000 C 
ENDROOT
BRANCH   1  20
ATOM     19  C   UNL     1      10.613  18.903  20.283  0.00  0.00    +0.000 C 
ATOM     20  C   UNL     1      10.507  20.306  19.784  0.00  0.00    +0.000 C 
ENDBRANCH   1  20
TORSDOF 1
ENDMDL
MODEL 10
REMARK VINA RESULT:      -5.9     15.395     18.553
REMARK  Name = 
REMARK  1 active torsions:
REMARK  status: ('A' for Active; 'I' for Inactive)
REMARK    1  A    between atoms: C_2  and  C_3
REMARK                            x       y       z     vdW  Elec       q    Type
REMARK                         _______ _______ _______ _____ _____    ______ ____
ROOT
ATOM      1  C   UNL     1      28.315  23.895  28.771  0.00  0.00    +0.000 C 
ATOM      2  N   UNL     1      28.735  22.608  27.908  0.00  0.00    +0.000 NA
ATOM      3  C   UNL     1      28.906  22.802  26.518  0.00  0.00    +0.000 A 
ATOM      4  C   UNL     1      30.052  22.248  25.987  0.00  0.00    +0.000 A 
ATOM      5  C   UNL     1      30.325  22.360  24.647  0.00  0.00    +0.000 A 
ATOM      6  C   UNL     1      29.467  23.027  23.795  0.00  0.00    +0.000 A 
ATOM      7  C   UNL     1      28.321  23.587  24.291  0.00  0.00    +0.000 A 
ATOM      8  C   UNL     1      28.068  23.459  25.655  0.00  0.00    +0.000 A 
ATOM      9  N   UNL     1      26.819  24.109  26.037  0.00  0.00    +0.000 NA
ATOM     10  C   UNL     1      26.431  24.442  27.368  0.00  0.00    +0.000 C 
ATOM     11  C   UNL     1      25.904  25.570  27.455  0.00  0.00    +0.000 C 
ATOM     12  C   UNL     1      25.350  26.380  28.536  0.00  0.00    +0.000 C 
ATOM     13  C   UNL     1      23.892  26.106  28.836  0.00  0.00    +0.000 C 
ATOM     14  C   UNL     1      25.662  27.813  28.273  0.00  0.00    +0.000 C 
ATOM     15  C   UNL     1      26.128  25.878  29.766  0.00  0.00    +0.000 C 
ATOM     16  C   UNL     1      26.138  24.415  29.758  0.00  0.00    +0.000 C 
ATOM     17  O   UNL     1      25.692  23.843  30.766  0.00  0.00    +0.000 OA
ATOM     18  C   UNL     1      26.647  23.524  28.607  0.00  0.00    +0.000 C 
ENDROOT
BRANCH   1  20
ATOM     19  C   UNL     1      29.944  22.700  30.302  0.00  0.00    +0.000 C 
ATOM     20  C   UNL     1      28.506  23.070  30.159  0.00  0.00    +0.000 C 
ENDBRANCH   1  20
TORSDOF 1
ENDMDL
