MODEL 1
REMARK VINA RESULT:      -8.1      0.000      0.000
REMARK  Name = 
REMARK  7 active torsions:
REMARK  status: ('A' for Active; 'I' for Inactive)
REMARK    1  A    between atoms: C_2  and  C_3
REMARK    2  A    between atoms: C_3  and  C_4
REMARK    3  A    between atoms: C_4  and  O_5
REMARK    4  A    between atoms: O_5  and  C_6
REMARK    5  A    between atoms: C_10  and  C_11
REMARK    6  A    between atoms: N_13  and  C_14
REMARK    7  A    between atoms: C_16  and  C_17
REMARK                            x       y       z     vdW  Elec       q    Type
REMARK                         _______ _______ _______ _____ _____    ______ ____
ROOT
ATOM      1  C   UNL     1      25.329  14.865  39.091  0.00  0.00    +0.000 A 
ATOM      2  C   UNL     1      25.875  13.623  39.437  0.00  0.00    +0.000 A 
ATOM      3  C   UNL     1      26.208  13.380  40.752  0.00  0.00    +0.000 A 
ATOM      4  C   UNL     1      25.993  14.357  41.672  0.00  0.00    +0.000 A 
ATOM      5  C   UNL     1      25.450  15.598  41.336  0.00  0.00    +0.000 A 
ATOM      6  C   UNL     1      25.115  15.852  40.030  0.00  0.00    +0.000 A 
ATOM      7  C   UNL     1      24.528  17.149  39.579  0.00  0.00    +0.000 C 
ENDROOT
BRANCH   3   8
ATOM      8  C   UNL     1      26.779  12.069  41.095  0.00  0.00    +0.000 A 
ATOM      9  N   UNL     1      26.214  10.982  41.545  0.00  0.00    +0.000 NA
ATOM     10  C   UNL     1      26.910   9.914  41.789  0.00  0.00    +0.000 A 
ATOM     11  C   UNL     1      26.443   8.678  42.273  0.00  0.00    +0.000 A 
ATOM     12  C   UNL     1      27.253   7.621  42.495  0.00  0.00    +0.000 A 
ATOM     13  C   UNL     1      28.598   7.678  42.264  0.00  0.00    +0.000 A 
ATOM     14  C   UNL     1      29.100   8.872  41.790  0.00  0.00    +0.000 A 
ATOM     15  C   UNL     1      28.260   9.972  41.558  0.00  0.00    +0.000 A 
ATOM     16  S   UNL     1      28.436  11.580  40.997  0.00  0.00    +0.000 S 
ENDBRANCH   3   8
BRANCH   1  19
ATOM     17  C   UNL     1      25.927  15.435  36.741  0.00  0.00    +0.000 C 
ATOM     18  O   UNL     1      27.146  15.478  37.093  0.00  0.00    +0.000 OA
ATOM     19  N   UNL     1      24.980  15.127  37.727  0.00  0.00    +0.000 NA
BRANCH  17  24
ATOM     20  C   UNL     1      24.755  17.173  33.625  0.00  0.00    +0.000 A 
ATOM     21  C   UNL     1      24.995  16.193  32.690  0.00  0.00    +0.000 A 
ATOM     22  C   UNL     1      25.526  14.986  33.047  0.00  0.00    +0.000 A 
ATOM     23  C   UNL     1      25.826  14.755  34.376  0.00  0.00    +0.000 A 
ATOM     24  C   UNL     1      25.602  15.707  35.349  0.00  0.00    +0.000 A 
ATOM     25  C   UNL     1      25.066  16.906  34.938  0.00  0.00    +0.000 A 
BRANCH  20  26
ATOM     26  O   UNL     1      24.211  18.397  33.238  0.00  0.00    +0.000 OA
BRANCH  26  27
ATOM     27  C   UNL     1      23.993  18.682  31.888  0.00  0.00    +0.000 C 
BRANCH  27  28
ATOM     28  C   UNL     1      24.004  20.159  31.573  0.00  0.00    +0.000 C 
BRANCH  28  30
ATOM     29  C   UNL     1      22.477  21.899  32.352  0.00  0.00    +0.000 C 
ATOM     30  C   UNL     1      22.568  20.636  31.550  0.00  0.00    +0.000 C 
ENDBRANCH  28  30
ENDBRANCH  27  28
ENDBRANCH  26  27
ENDBRANCH  20  26
ENDBRANCH  17  24
ENDBRANCH   1  19
TORSDOF 7
ENDMDL
MODEL 2
REMARK VINA RESULT:      -8.0     24.705     28.227
REMARK  Name = 
REMARK  7 active torsions:
REMARK  status: ('A' for Active; 'I' for Inactive)
REMARK    1  A    between atoms: C_2  and  C_3
REMARK    2  A    between atoms: C_3  and  C_4
REMARK    3  A    between atoms: C_4  and  O_5
REMARK    4  A    between atoms: O_5  and  C_6
REMARK    5  A    between atoms: C_10  and  C_11
REMARK    6  A    between atoms: N_13  and  C_14
REMARK    7  A    between atoms: C_16  and  C_17
REMARK                            x       y       z     vdW  Elec       q    Type
REMARK                         _______ _______ _______ _____ _____    ______ ____
ROOT
ATOM      1  C   UNL     1      38.025   3.067  15.405  0.00  0.00    +0.000 A 
ATOM      2  C   UNL     1      38.051   3.999  16.450  0.00  0.00    +0.000 A 
ATOM      3  C   UNL     1      38.512   5.274  16.199  0.00  0.00    +0.000 A 
ATOM      4  C   UNL     1      38.925   5.584  14.942  0.00  0.00    +0.000 A 
ATOM      5  C   UNL     1      38.902   4.661  13.895  0.00  0.00    +0.000 A 
ATOM      6  C   UNL     1      38.446   3.388  14.132  0.00  0.00    +0.000 A 
ATOM      7  C   UNL     1      38.386   2.337  13.074  0.00  0.00    +0.000 C 
ENDROOT
BRANCH   3   8
ATOM      8  C   UNL     1      38.531   6.238  17.309  0.00  0.00    +0.000 A 
ATOM      9  N   UNL     1      38.058   7.451  17.393  0.00  0.00    +0.000 NA
ATOM     10  C   UNL     1      38.182   8.147  18.483  0.00  0.00    +0.000 A 
ATOM     11  C   UNL     1      37.728   9.457  18.720  0.00  0.00    +0.000 A 
ATOM     12  C   UNL     1      37.908  10.097  19.896  0.00  0.00    +0.000 A 
ATOM     13  C   UNL     1      38.553   9.510  20.948  0.00  0.00    +0.000 A 
ATOM     14  C   UNL     1      39.016   8.225  20.759  0.00  0.00    +0.000 A 
ATOM     15  C   UNL     1      38.830   7.559  19.538  0.00  0.00    +0.000 A 
ATOM     16  S   UNL     1      39.218   6.025  18.883  0.00  0.00    +0.000 S 
ENDBRANCH   3   8
BRANCH   1  19
ATOM     17  C   UNL     1      36.196   1.443  15.879  0.00  0.00    +0.000 C 
ATOM     18  O   UNL     1      35.373   2.408  15.855  0.00  0.00    +0.000 OA
ATOM     19  N   UNL     1      37.548   1.740  15.655  0.00  0.00    +0.000 NA
BRANCH  17  24
ATOM     20  C   UNL     1      35.654  -2.268  15.687  0.00  0.00    +0.000 A 
ATOM     21  C   UNL     1      34.686  -2.428  16.652  0.00  0.00    +0.000 A 
ATOM     22  C   UNL     1      34.208  -1.361  17.360  0.00  0.00    +0.000 A 
ATOM     23  C   UNL     1      34.714  -0.103  17.095  0.00  0.00    +0.000 A 
ATOM     24  C   UNL     1      35.683   0.105  16.137  0.00  0.00    +0.000 A 
ATOM     25  C   UNL     1      36.132  -1.000  15.451  0.00  0.00    +0.000 A 
BRANCH  20  26
ATOM     26  O   UNL     1      36.126  -3.370  14.976  0.00  0.00    +0.000 OA
BRANCH  26  27
ATOM     27  C   UNL     1      37.463  -3.762  15.079  0.00  0.00    +0.000 C 
BRANCH  27  28
ATOM     28  C   UNL     1      37.855  -4.212  16.466  0.00  0.00    +0.000 C 
BRANCH  28  30
ATOM     29  C   UNL     1      38.385  -2.534  18.160  0.00  0.00    +0.000 C 
ATOM     30  C   UNL     1      38.925  -3.270  16.971  0.00  0.00    +0.000 C 
ENDBRANCH  28  30
ENDBRANCH  27  28
ENDBRANCH  26  27
ENDBRANCH  20  26
ENDBRANCH  17  24
ENDBRANCH   1  19
TORSDOF 7
ENDMDL
MODEL 3
REMARK VINA RESULT:      -7.7     24.996     27.772
REMARK  Name = 
REMARK  7 active torsions:
REMARK  status: ('A' for Active; 'I' for Inactive)
REMARK    1  A    between atoms: C_2  and  C_3
REMARK    2  A    between atoms: C_3  and  C_4
REMARK    3  A    between atoms: C_4  and  O_5
REMARK    4  A    between atoms: O_5  and  C_6
REMARK    5  A    between atoms: C_10  and  C_11
REMARK    6  A    between atoms: N_13  and  C_14
REMARK    7  A    between atoms: C_16  and  C_17
REMARK                            x       y       z     vdW  Elec       q    Type
REMARK                         _______ _______ _______ _____ _____    ______ ____
ROOT
ATOM      1  C   UNL     1      36.743   3.074  15.973  0.00  0.00    +0.000 A 
ATOM      2  C   UNL     1      36.983   1.738  16.318  0.00  0.00    +0.000 A 
ATOM      3  C   UNL     1      36.684   0.747  15.408  0.00  0.00    +0.000 A 
ATOM      4  C   UNL     1      36.166   1.101  14.202  0.00  0.00    +0.000 A 
ATOM      5  C   UNL     1      35.923   2.430  13.851  0.00  0.00    +0.000 A 
ATOM      6  C   UNL     1      36.215   3.426  14.749  0.00  0.00    +0.000 A 
ATOM      7  C   UNL     1      35.990   4.872  14.459  0.00  0.00    +0.000 C 
ENDROOT
BRANCH   3   8
ATOM      8  C   UNL     1      36.945  -0.649  15.788  0.00  0.00    +0.000 A 
ATOM      9  N   UNL     1      37.714  -1.153  16.714  0.00  0.00    +0.000 NA
ATOM     10  C   UNL     1      37.805  -2.437  16.888  0.00  0.00    +0.000 A 
ATOM     11  C   UNL     1      38.587  -3.120  17.836  0.00  0.00    +0.000 A 
ATOM     12  C   UNL     1      38.611  -4.467  17.938  0.00  0.00    +0.000 A 
ATOM     13  C   UNL     1      37.871  -5.268  17.115  0.00  0.00    +0.000 A 
ATOM     14  C   UNL     1      37.090  -4.639  16.168  0.00  0.00    +0.000 A 
ATOM     15  C   UNL     1      37.062  -3.241  16.062  0.00  0.00    +0.000 A 
ATOM     16  S   UNL     1      36.275  -2.079  15.081  0.00  0.00    +0.000 S 
ENDBRANCH   3   8
BRANCH   1  19
ATOM     17  C   UNL     1      38.340   4.636  17.077  0.00  0.00    +0.000 C 
ATOM     18  O   UNL     1      39.264   4.156  16.351  0.00  0.00    +0.000 OA
ATOM     19  N   UNL     1      37.050   4.111  16.912  0.00  0.00    +0.000 NA
BRANCH  17  24
ATOM     20  C   UNL     1      40.073   6.568  19.791  0.00  0.00    +0.000 A 
ATOM     21  C   UNL     1      39.307   7.710  19.810  0.00  0.00    +0.000 A 
ATOM     22  C   UNL     1      38.244   7.866  18.964  0.00  0.00    +0.000 A 
ATOM     23  C   UNL     1      37.943   6.851  18.076  0.00  0.00    +0.000 A 
ATOM     24  C   UNL     1      38.682   5.688  18.022  0.00  0.00    +0.000 A 
ATOM     25  C   UNL     1      39.741   5.579  18.894  0.00  0.00    +0.000 A 
BRANCH  20  26
ATOM     26  O   UNL     1      41.152   6.430  20.663  0.00  0.00    +0.000 OA
BRANCH  26  27
ATOM     27  C   UNL     1      42.280   7.242  20.531  0.00  0.00    +0.000 C 
BRANCH  27  28
ATOM     28  C   UNL     1      43.511   6.498  20.074  0.00  0.00    +0.000 C 
BRANCH  28  30
ATOM     29  C   UNL     1      43.038   6.722  17.688  0.00  0.00    +0.000 C 
ATOM     30  C   UNL     1      43.979   7.129  18.781  0.00  0.00    +0.000 C 
ENDBRANCH  28  30
ENDBRANCH  27  28
ENDBRANCH  26  27
ENDBRANCH  20  26
ENDBRANCH  17  24
ENDBRANCH   1  19
TORSDOF 7
ENDMDL
MODEL 4
REMARK VINA RESULT:      -7.7     25.859     28.451
REMARK  Name = 
REMARK  7 active torsions:
REMARK  status: ('A' for Active; 'I' for Inactive)
REMARK    1  A    between atoms: C_2  and  C_3
REMARK    2  A    between atoms: C_3  and  C_4
REMARK    3  A    between atoms: C_4  and  O_5
REMARK    4  A    between atoms: O_5  and  C_6
REMARK    5  A    between atoms: C_10  and  C_11
REMARK    6  A    between atoms: N_13  and  C_14
REMARK    7  A    between atoms: C_16  and  C_17
REMARK                            x       y       z     vdW  Elec       q    Type
REMARK                         _______ _______ _______ _____ _____    ______ ____
ROOT
ATOM      1  C   UNL     1      37.476   4.051  15.369  0.00  0.00    +0.000 A 
ATOM      2  C   UNL     1      38.587   4.373  16.158  0.00  0.00    +0.000 A 
ATOM      3  C   UNL     1      38.991   5.687  16.243  0.00  0.00    +0.000 A 
ATOM      4  C   UNL     1      38.294   6.631  15.557  0.00  0.00    +0.000 A 
ATOM      5  C   UNL     1      37.185   6.319  14.769  0.00  0.00    +0.000 A 
ATOM      6  C   UNL     1      36.773   5.014  14.675  0.00  0.00    +0.000 A 
ATOM      7  C   UNL     1      35.600   4.588  13.858  0.00  0.00    +0.000 C 
ENDROOT
BRANCH   3   8
ATOM      8  C   UNL     1      40.160   6.005  17.077  0.00  0.00    +0.000 A 
ATOM      9  N   UNL     1      40.308   6.011  18.373  0.00  0.00    +0.000 NA
ATOM     10  C   UNL     1      41.442   6.328  18.920  0.00  0.00    +0.000 A 
ATOM     11  C   UNL     1      41.749   6.380  20.291  0.00  0.00    +0.000 A 
ATOM     12  C   UNL     1      42.968   6.722  20.761  0.00  0.00    +0.000 A 
ATOM     13  C   UNL     1      44.000   7.048  19.927  0.00  0.00    +0.000 A 
ATOM     14  C   UNL     1      43.743   7.012  18.572  0.00  0.00    +0.000 A 
ATOM     15  C   UNL     1      42.477   6.655  18.082  0.00  0.00    +0.000 A 
ATOM     16  S   UNL     1      41.737   6.482  16.548  0.00  0.00    +0.000 S 
ENDBRANCH   3   8
BRANCH   1  19
ATOM     17  C   UNL     1      36.427   2.006  16.331  0.00  0.00    +0.000 C 
ATOM     18  O   UNL     1      36.244   2.644  17.412  0.00  0.00    +0.000 OA
ATOM     19  N   UNL     1      37.048   2.687  15.275  0.00  0.00    +0.000 NA
BRANCH  17  24
ATOM     20  C   UNL     1      36.122  -1.598  15.317  0.00  0.00    +0.000 A 
ATOM     21  C   UNL     1      35.116  -2.008  16.162  0.00  0.00    +0.000 A 
ATOM     22  C   UNL     1      34.537  -1.144  17.048  0.00  0.00    +0.000 A 
ATOM     23  C   UNL     1      34.979   0.165  17.091  0.00  0.00    +0.000 A 
ATOM     24  C   UNL     1      35.983   0.621  16.264  0.00  0.00    +0.000 A 
ATOM     25  C   UNL     1      36.534  -0.287  15.389  0.00  0.00    +0.000 A 
BRANCH  20  26
ATOM     26  O   UNL     1      36.698  -2.496  14.420  0.00  0.00    +0.000 OA
BRANCH  26  27
ATOM     27  C   UNL     1      37.980  -3.000  14.645  0.00  0.00    +0.000 C 
BRANCH  27  28
ATOM     28  C   UNL     1      38.137  -3.676  15.987  0.00  0.00    +0.000 C 
BRANCH  28  30
ATOM     29  C   UNL     1      38.379  -2.458  18.090  0.00  0.00    +0.000 C 
ATOM     30  C   UNL     1      39.079  -2.834  16.820  0.00  0.00    +0.000 C 
ENDBRANCH  28  30
ENDBRANCH  27  28
ENDBRANCH  26  27
ENDBRANCH  20  26
ENDBRANCH  17  24
ENDBRANCH   1  19
TORSDOF 7
ENDMDL
MODEL 5
REMARK VINA RESULT:      -7.5     23.644     26.550
REMARK  Name = 
REMARK  7 active torsions:
REMARK  status: ('A' for Active; 'I' for Inactive)
REMARK    1  A    between atoms: C_2  and  C_3
REMARK    2  A    between atoms: C_3  and  C_4
REMARK    3  A    between atoms: C_4  and  O_5
REMARK    4  A    between atoms: O_5  and  C_6
REMARK    5  A    between atoms: C_10  and  C_11
REMARK    6  A    between atoms: N_13  and  C_14
REMARK    7  A    between atoms: C_16  and  C_17
REMARK                            x       y       z     vdW  Elec       q    Type
REMARK                         _______ _______ _______ _____ _____    ______ ____
ROOT
ATOM      1  C   UNL     1      38.660   4.603  15.650  0.00  0.00    +0.000 A 
ATOM      2  C   UNL     1      37.903   3.443  15.860  0.00  0.00    +0.000 A 
ATOM      3  C   UNL     1      38.170   2.322  15.105  0.00  0.00    +0.000 A 
ATOM      4  C   UNL     1      39.164   2.380  14.179  0.00  0.00    +0.000 A 
ATOM      5  C   UNL     1      39.923   3.531  13.963  0.00  0.00    +0.000 A 
ATOM      6  C   UNL     1      39.666   4.654  14.708  0.00  0.00    +0.000 A 
ATOM      7  C   UNL     1      40.426   5.928  14.546  0.00  0.00    +0.000 C 
ENDROOT
BRANCH   3   8
ATOM      8  C   UNL     1      37.365   1.114  15.341  0.00  0.00    +0.000 A 
ATOM      9  N   UNL     1      36.432   0.869  16.218  0.00  0.00    +0.000 NA
ATOM     10  C   UNL     1      35.835  -0.283  16.261  0.00  0.00    +0.000 A 
ATOM     11  C   UNL     1      34.819  -0.691  17.144  0.00  0.00    +0.000 A 
ATOM     12  C   UNL     1      34.259  -1.920  17.106  0.00  0.00    +0.000 A 
ATOM     13  C   UNL     1      34.646  -2.863  16.197  0.00  0.00    +0.000 A 
ATOM     14  C   UNL     1      35.642  -2.506  15.311  0.00  0.00    +0.000 A 
ATOM     15  C   UNL     1      36.224  -1.231  15.349  0.00  0.00    +0.000 A 
ATOM     16  S   UNL     1      37.436  -0.387  14.483  0.00  0.00    +0.000 S 
ENDBRANCH   3   8
BRANCH   1  19
ATOM     17  C   UNL     1      38.694   5.869  17.795  0.00  0.00    +0.000 C 
ATOM     18  O   UNL     1      39.234   4.862  18.347  0.00  0.00    +0.000 OA
ATOM     19  N   UNL     1      38.390   5.773  16.430  0.00  0.00    +0.000 NA
BRANCH  17  24
ATOM     20  C   UNL     1      37.312   9.154  18.980  0.00  0.00    +0.000 A 
ATOM     21  C   UNL     1      37.949   9.267  20.194  0.00  0.00    +0.000 A 
ATOM     22  C   UNL     1      38.815   8.305  20.633  0.00  0.00    +0.000 A 
ATOM     23  C   UNL     1      39.046   7.200  19.837  0.00  0.00    +0.000 A 
ATOM     24  C   UNL     1      38.431   7.044  18.613  0.00  0.00    +0.000 A 
ATOM     25  C   UNL     1      37.569   8.040  18.215  0.00  0.00    +0.000 A 
BRANCH  20  26
ATOM     26  O   UNL     1      36.434  10.148  18.550  0.00  0.00    +0.000 OA
BRANCH  26  27
ATOM     27  C   UNL     1      35.736  10.008  17.349  0.00  0.00    +0.000 C 
BRANCH  27  28
ATOM     28  C   UNL     1      34.362  10.634  17.371  0.00  0.00    +0.000 C 
BRANCH  28  30
ATOM     29  C   UNL     1      32.782   9.167  18.518  0.00  0.00    +0.000 C 
ATOM     30  C   UNL     1      33.348   9.528  17.179  0.00  0.00    +0.000 C 
ENDBRANCH  28  30
ENDBRANCH  27  28
ENDBRANCH  26  27
ENDBRANCH  20  26
ENDBRANCH  17  24
ENDBRANCH   1  19
TORSDOF 7
ENDMDL
MODEL 6
REMARK VINA RESULT:      -7.5     24.685     27.379
REMARK  Name = 
REMARK  7 active torsions:
REMARK  status: ('A' for Active; 'I' for Inactive)
REMARK    1  A    between atoms: C_2  and  C_3
REMARK    2  A    between atoms: C_3  and  C_4
REMARK    3  A    between atoms: C_4  and  O_5
REMARK    4  A    between atoms: O_5  and  C_6
REMARK    5  A    between atoms: C_10  and  C_11
REMARK    6  A    between atoms: N_13  and  C_14
REMARK    7  A    between atoms: C_16  and  C_17
REMARK                            x       y       z     vdW  Elec       q    Type
REMARK                         _______ _______ _______ _____ _____    ______ ____
ROOT
ATOM      1  C   UNL     1      37.261   3.291  15.336  0.00  0.00    +0.000 A 
ATOM      2  C   UNL     1      37.536   1.964  15.687  0.00  0.00    +0.000 A 
ATOM      3  C   UNL     1      36.606   0.988  15.401  0.00  0.00    +0.000 A 
ATOM      4  C   UNL     1      35.448   1.349  14.785  0.00  0.00    +0.000 A 
ATOM      5  C   UNL     1      35.166   2.669  14.433  0.00  0.00    +0.000 A 
ATOM      6  C   UNL     1      36.084   3.650  14.713  0.00  0.00    +0.000 A 
ATOM      7  C   UNL     1      35.867   5.087  14.372  0.00  0.00    +0.000 C 
ENDROOT
BRANCH   3   8
ATOM      8  C   UNL     1      36.914  -0.400  15.776  0.00  0.00    +0.000 A 
ATOM      9  N   UNL     1      37.670  -0.880  16.725  0.00  0.00    +0.000 NA
ATOM     10  C   UNL     1      37.812  -2.160  16.889  0.00  0.00    +0.000 A 
ATOM     11  C   UNL     1      38.587  -2.820  17.859  0.00  0.00    +0.000 A 
ATOM     12  C   UNL     1      38.668  -4.166  17.948  0.00  0.00    +0.000 A 
ATOM     13  C   UNL     1      37.995  -4.988  17.090  0.00  0.00    +0.000 A 
ATOM     14  C   UNL     1      37.222  -4.384  16.121  0.00  0.00    +0.000 A 
ATOM     15  C   UNL     1      37.136  -2.986  16.028  0.00  0.00    +0.000 A 
ATOM     16  S   UNL     1      36.335  -1.850  15.030  0.00  0.00    +0.000 S 
ENDBRANCH   3   8
BRANCH   1  19
ATOM     17  C   UNL     1      38.601   4.654  16.934  0.00  0.00    +0.000 C 
ATOM     18  O   UNL     1      38.056   4.018  17.887  0.00  0.00    +0.000 OA
ATOM     19  N   UNL     1      38.221   4.312  15.629  0.00  0.00    +0.000 NA
BRANCH  17  24
ATOM     20  C   UNL     1      40.352   7.480  18.682  0.00  0.00    +0.000 A 
ATOM     21  C   UNL     1      41.441   7.643  17.858  0.00  0.00    +0.000 A 
ATOM     22  C   UNL     1      41.618   6.860  16.752  0.00  0.00    +0.000 A 
ATOM     23  C   UNL     1      40.680   5.887  16.465  0.00  0.00    +0.000 A 
ATOM     24  C   UNL     1      39.572   5.687  17.262  0.00  0.00    +0.000 A 
ATOM     25  C   UNL     1      39.439   6.501  18.363  0.00  0.00    +0.000 A 
BRANCH  20  26
ATOM     26  O   UNL     1      40.190   8.291  19.804  0.00  0.00    +0.000 OA
BRANCH  26  27
ATOM     27  C   UNL     1      39.123   8.084  20.682  0.00  0.00    +0.000 C 
BRANCH  27  28
ATOM     28  C   UNL     1      38.098   9.192  20.658  0.00  0.00    +0.000 C 
BRANCH  28  30
ATOM     29  C   UNL     1      37.047   9.577  18.486  0.00  0.00    +0.000 C 
ATOM     30  C   UNL     1      36.974   8.761  19.742  0.00  0.00    +0.000 C 
ENDBRANCH  28  30
ENDBRANCH  27  28
ENDBRANCH  26  27
ENDBRANCH  20  26
ENDBRANCH  17  24
ENDBRANCH   1  19
TORSDOF 7
ENDMDL
MODEL 7
REMARK VINA RESULT:      -7.3     29.418     32.058
REMARK  Name = 
REMARK  7 active torsions:
REMARK  status: ('A' for Active; 'I' for Inactive)
REMARK    1  A    between atoms: C_2  and  C_3
REMARK    2  A    between atoms: C_3  and  C_4
REMARK    3  A    between atoms: C_4  and  O_5
REMARK    4  A    between atoms: O_5  and  C_6
REMARK    5  A    between atoms: C_10  and  C_11
REMARK    6  A    between atoms: N_13  and  C_14
REMARK    7  A    between atoms: C_16  and  C_17
REMARK                            x       y       z     vdW  Elec       q    Type
REMARK                         _______ _______ _______ _____ _____    ______ ____
ROOT
ATOM      1  C   UNL     1      41.962  -2.013  13.795  0.00  0.00    +0.000 A 
ATOM      2  C   UNL     1      42.871  -1.308  14.594  0.00  0.00    +0.000 A 
ATOM      3  C   UNL     1      44.222  -1.490  14.393  0.00  0.00    +0.000 A 
ATOM      4  C   UNL     1      44.628  -2.350  13.421  0.00  0.00    +0.000 A 
ATOM      5  C   UNL     1      43.729  -3.056  12.621  0.00  0.00    +0.000 A 
ATOM      6  C   UNL     1      42.381  -2.884  12.812  0.00  0.00    +0.000 A 
ATOM      7  C   UNL     1      41.349  -3.596  12.003  0.00  0.00    +0.000 C 
ENDROOT
BRANCH   3   8
ATOM      8  C   UNL     1      45.161  -0.740  15.241  0.00  0.00    +0.000 A 
ATOM      9  N   UNL     1      45.241  -0.636  16.539  0.00  0.00    +0.000 NA
ATOM     10  C   UNL     1      46.160   0.090  17.100  0.00  0.00    +0.000 A 
ATOM     11  C   UNL     1      46.370   0.297  18.475  0.00  0.00    +0.000 A 
ATOM     12  C   UNL     1      47.361   1.076  18.960  0.00  0.00    +0.000 A 
ATOM     13  C   UNL     1      48.238   1.726  18.139  0.00  0.00    +0.000 A 
ATOM     14  C   UNL     1      48.069   1.552  16.781  0.00  0.00    +0.000 A 
ATOM     15  C   UNL     1      47.040   0.743  16.276  0.00  0.00    +0.000 A 
ATOM     16  S   UNL     1      46.478   0.259  14.732  0.00  0.00    +0.000 S 
ENDBRANCH   3   8
BRANCH   1  19
ATOM     17  C   UNL     1      39.831  -2.508  14.987  0.00  0.00    +0.000 C 
ATOM     18  O   UNL     1      40.469  -3.317  15.729  0.00  0.00    +0.000 OA
ATOM     19  N   UNL     1      40.556  -1.830  13.997  0.00  0.00    +0.000 NA
BRANCH  17  24
ATOM     20  C   UNL     1      36.487  -0.951  15.688  0.00  0.00    +0.000 A 
ATOM     21  C   UNL     1      35.681  -2.065  15.642  0.00  0.00    +0.000 A 
ATOM     22  C   UNL     1      36.197  -3.305  15.391  0.00  0.00    +0.000 A 
ATOM     23  C   UNL     1      37.557  -3.432  15.178  0.00  0.00    +0.000 A 
ATOM     24  C   UNL     1      38.404  -2.344  15.214  0.00  0.00    +0.000 A 
ATOM     25  C   UNL     1      37.835  -1.118  15.471  0.00  0.00    +0.000 A 
BRANCH  20  26
ATOM     26  O   UNL     1      35.939   0.304  15.947  0.00  0.00    +0.000 OA
BRANCH  26  27
ATOM     27  C   UNL     1      35.210   0.533  17.117  0.00  0.00    +0.000 C 
BRANCH  27  28
ATOM     28  C   UNL     1      36.066   0.598  18.359  0.00  0.00    +0.000 C 
BRANCH  28  30
ATOM     29  C   UNL     1      36.978  -1.464  19.299  0.00  0.00    +0.000 C 
ATOM     30  C   UNL     1      35.746  -0.616  19.204  0.00  0.00    +0.000 C 
ENDBRANCH  28  30
ENDBRANCH  27  28
ENDBRANCH  26  27
ENDBRANCH  20  26
ENDBRANCH  17  24
ENDBRANCH   1  19
TORSDOF 7
ENDMDL
MODEL 8
REMARK VINA RESULT:      -7.2     24.364     26.602
REMARK  Name = 
REMARK  7 active torsions:
REMARK  status: ('A' for Active; 'I' for Inactive)
REMARK    1  A    between atoms: C_2  and  C_3
REMARK    2  A    between atoms: C_3  and  C_4
REMARK    3  A    between atoms: C_4  and  O_5
REMARK    4  A    between atoms: O_5  and  C_6
REMARK    5  A    between atoms: C_10  and  C_11
REMARK    6  A    between atoms: N_13  and  C_14
REMARK    7  A    between atoms: C_16  and  C_17
REMARK                            x       y       z     vdW  Elec       q    Type
REMARK                         _______ _______ _______ _____ _____    ______ ____
ROOT
ATOM      1  C   UNL     1      39.412   6.347  19.036  0.00  0.00    +0.000 A 
ATOM      2  C   UNL     1      40.702   6.008  19.463  0.00  0.00    +0.000 A 
ATOM      3  C   UNL     1      41.476   6.965  20.083  0.00  0.00    +0.000 A 
ATOM      4  C   UNL     1      40.958   8.209  20.262  0.00  0.00    +0.000 A 
ATOM      5  C   UNL     1      39.674   8.555  19.839  0.00  0.00    +0.000 A 
ATOM      6  C   UNL     1      38.894   7.612  19.219  0.00  0.00    +0.000 A 
ATOM      7  C   UNL     1      37.510   7.892  18.736  0.00  0.00    +0.000 C 
ENDROOT
BRANCH   3   8
ATOM      8  C   UNL     1      42.827   6.589  20.525  0.00  0.00    +0.000 A 
ATOM      9  N   UNL     1      43.224   5.716  21.410  0.00  0.00    +0.000 NA
ATOM     10  C   UNL     1      44.486   5.534  21.656  0.00  0.00    +0.000 A 
ATOM     11  C   UNL     1      45.060   4.637  22.575  0.00  0.00    +0.000 A 
ATOM     12  C   UNL     1      46.393   4.523  22.758  0.00  0.00    +0.000 A 
ATOM     13  C   UNL     1      47.287   5.281  22.056  0.00  0.00    +0.000 A 
ATOM     14  C   UNL     1      46.768   6.176  21.144  0.00  0.00    +0.000 A 
ATOM     15  C   UNL     1      45.383   6.295  20.953  0.00  0.00    +0.000 A 
ATOM     16  S   UNL     1      44.336   7.230  19.972  0.00  0.00    +0.000 S 
ENDBRANCH   3   8
BRANCH   1  19
ATOM     17  C   UNL     1      38.817   4.935  17.072  0.00  0.00    +0.000 C 
ATOM     18  O   UNL     1      39.783   5.461  16.438  0.00  0.00    +0.000 OA
ATOM     19  N   UNL     1      38.600   5.360  18.390  0.00  0.00    +0.000 NA
BRANCH  17  24
ATOM     20  C   UNL     1      36.158   2.382  16.352  0.00  0.00    +0.000 A 
ATOM     21  C   UNL     1      36.489   2.036  15.063  0.00  0.00    +0.000 A 
ATOM     22  C   UNL     1      37.553   2.611  14.425  0.00  0.00    +0.000 A 
ATOM     23  C   UNL     1      38.303   3.557  15.096  0.00  0.00    +0.000 A 
ATOM     24  C   UNL     1      38.009   3.935  16.389  0.00  0.00    +0.000 A 
ATOM     25  C   UNL     1      36.929   3.328  16.988  0.00  0.00    +0.000 A 
BRANCH  20  26
ATOM     26  O   UNL     1      35.070   1.783  16.984  0.00  0.00    +0.000 OA
BRANCH  26  27
ATOM     27  C   UNL     1      34.950   0.392  17.023  0.00  0.00    +0.000 C 
BRANCH  27  28
ATOM     28  C   UNL     1      35.407  -0.218  18.327  0.00  0.00    +0.000 C 
BRANCH  28  30
ATOM     29  C   UNL     1      37.166  -1.581  19.334  0.00  0.00    +0.000 C 
ATOM     30  C   UNL     1      36.763  -0.847  18.091  0.00  0.00    +0.000 C 
ENDBRANCH  28  30
ENDBRANCH  27  28
ENDBRANCH  26  27
ENDBRANCH  20  26
ENDBRANCH  17  24
ENDBRANCH   1  19
TORSDOF 7
ENDMDL
MODEL 9
REMARK VINA RESULT:      -7.2     27.109     30.607
REMARK  Name = 
REMARK  7 active torsions:
REMARK  status: ('A' for Active; 'I' for Inactive)
REMARK    1  A    between atoms: C_2  and  C_3
REMARK    2  A    between atoms: C_3  and  C_4
REMARK    3  A    between atoms: C_4  and  O_5
REMARK    4  A    between atoms: O_5  and  C_6
REMARK    5  A    between atoms: C_10  and  C_11
REMARK    6  A    between atoms: N_13  and  C_14
REMARK    7  A    between atoms: C_16  and  C_17
REMARK                            x       y       z     vdW  Elec       q    Type
REMARK                         _______ _______ _______ _____ _____    ______ ____
ROOT
ATOM      1  C   UNL     1      36.489   2.181  15.267  0.00  0.00    +0.000 A 
ATOM      2  C   UNL     1      36.667   3.146  14.268  0.00  0.00    +0.000 A 
ATOM      3  C   UNL     1      35.669   4.069  14.042  0.00  0.00    +0.000 A 
ATOM      4  C   UNL     1      34.543   4.013  14.802  0.00  0.00    +0.000 A 
ATOM      5  C   UNL     1      34.358   3.055  15.800  0.00  0.00    +0.000 A 
ATOM      6  C   UNL     1      35.344   2.129  16.033  0.00  0.00    +0.000 A 
ATOM      7  C   UNL     1      35.233   1.071  17.079  0.00  0.00    +0.000 C 
ENDROOT
BRANCH   3   8
ATOM      8  C   UNL     1      35.874   5.075  12.989  0.00  0.00    +0.000 A 
ATOM      9  N   UNL     1      36.642   5.061  11.935  0.00  0.00    +0.000 NA
ATOM     10  C   UNL     1      36.678   6.069  11.116  0.00  0.00    +0.000 A 
ATOM     11  C   UNL     1      37.451   6.198   9.948  0.00  0.00    +0.000 A 
ATOM     12  C   UNL     1      37.416   7.294   9.159  0.00  0.00    +0.000 A 
ATOM     13  C   UNL     1      36.620   8.366   9.445  0.00  0.00    +0.000 A 
ATOM     14  C   UNL     1      35.845   8.283  10.583  0.00  0.00    +0.000 A 
ATOM     15  C   UNL     1      35.879   7.145  11.403  0.00  0.00    +0.000 A 
ATOM     16  S   UNL     1      35.122   6.626  12.849  0.00  0.00    +0.000 S 
ENDBRANCH   3   8
BRANCH   1  19
ATOM     17  C   UNL     1      37.624   0.014  14.798  0.00  0.00    +0.000 C 
ATOM     18  O   UNL     1      36.754  -0.214  13.902  0.00  0.00    +0.000 OA
ATOM     19  N   UNL     1      37.521   1.217  15.509  0.00  0.00    +0.000 NA
BRANCH  17  24
ATOM     20  C   UNL     1      39.500  -2.934  16.174  0.00  0.00    +0.000 A 
ATOM     21  C   UNL     1      40.650  -2.869  15.423  0.00  0.00    +0.000 A 
ATOM     22  C   UNL     1      40.829  -1.892  14.483  0.00  0.00    +0.000 A 
ATOM     23  C   UNL     1      39.829  -0.958  14.292  0.00  0.00    +0.000 A 
ATOM     24  C   UNL     1      38.660  -0.984  15.022  0.00  0.00    +0.000 A 
ATOM     25  C   UNL     1      38.527  -1.986  15.955  0.00  0.00    +0.000 A 
BRANCH  20  26
ATOM     26  O   UNL     1      39.338  -3.938  17.128  0.00  0.00    +0.000 OA
BRANCH  26  27
ATOM     27  C   UNL     1      38.331  -3.847  18.092  0.00  0.00    +0.000 C 
BRANCH  27  28
ATOM     28  C   UNL     1      38.853  -3.810  19.509  0.00  0.00    +0.000 C 
BRANCH  28  30
ATOM     29  C   UNL     1      37.375  -1.871  19.354  0.00  0.00    +0.000 C 
ATOM     30  C   UNL     1      37.971  -2.869  20.300  0.00  0.00    +0.000 C 
ENDBRANCH  28  30
ENDBRANCH  27  28
ENDBRANCH  26  27
ENDBRANCH  20  26
ENDBRANCH  17  24
ENDBRANCH   1  19
TORSDOF 7
ENDMDL
MODEL 10
REMARK VINA RESULT:      -7.2     23.483     26.708
REMARK  Name = 
REMARK  7 active torsions:
REMARK  status: ('A' for Active; 'I' for Inactive)
REMARK    1  A    between atoms: C_2  and  C_3
REMARK    2  A    between atoms: C_3  and  C_4
REMARK    3  A    between atoms: C_4  and  O_5
REMARK    4  A    between atoms: O_5  and  C_6
REMARK    5  A    between atoms: C_10  and  C_11
REMARK    6  A    between atoms: N_13  and  C_14
REMARK    7  A    between atoms: C_16  and  C_17
REMARK                            x       y       z     vdW  Elec       q    Type
REMARK                         _______ _______ _______ _____ _____    ______ ____
ROOT
ATOM      1  C   UNL     1      40.025   6.519  19.523  0.00  0.00    +0.000 A 
ATOM      2  C   UNL     1      39.608   5.445  18.727  0.00  0.00    +0.000 A 
ATOM      3  C   UNL     1      38.568   5.630  17.843  0.00  0.00    +0.000 A 
ATOM      4  C   UNL     1      37.980   6.854  17.772  0.00  0.00    +0.000 A 
ATOM      5  C   UNL     1      38.390   7.930  18.561  0.00  0.00    +0.000 A 
ATOM      6  C   UNL     1      39.424   7.758  19.447  0.00  0.00    +0.000 A 
ATOM      7  C   UNL     1      39.929   8.850  20.329  0.00  0.00    +0.000 C 
ENDROOT
BRANCH   3   8
ATOM      8  C   UNL     1      38.145   4.490  17.016  0.00  0.00    +0.000 A 
ATOM      9  N   UNL     1      37.229   3.583  17.216  0.00  0.00    +0.000 NA
ATOM     10  C   UNL     1      37.010   2.645  16.346  0.00  0.00    +0.000 A 
ATOM     11  C   UNL     1      36.065   1.606  16.424  0.00  0.00    +0.000 A 
ATOM     12  C   UNL     1      35.913   0.673  15.459  0.00  0.00    +0.000 A 
ATOM     13  C   UNL     1      36.678   0.674  14.327  0.00  0.00    +0.000 A 
ATOM     14  C   UNL     1      37.619   1.675  14.208  0.00  0.00    +0.000 A 
ATOM     15  C   UNL     1      37.777   2.645  15.210  0.00  0.00    +0.000 A 
ATOM     16  S   UNL     1      38.773   4.012  15.476  0.00  0.00    +0.000 S 
ENDBRANCH   3   8
BRANCH   1  19
ATOM     17  C   UNL     1      42.452   6.480  20.084  0.00  0.00    +0.000 C 
ATOM     18  O   UNL     1      42.705   6.788  18.879  0.00  0.00    +0.000 OA
ATOM     19  N   UNL     1      41.106   6.336  20.446  0.00  0.00    +0.000 NA
BRANCH  17  24
ATOM     20  C   UNL     1      44.529   6.426  23.213  0.00  0.00    +0.000 A 
ATOM     21  C   UNL     1      45.717   5.944  22.713  0.00  0.00    +0.000 A 
ATOM     22  C   UNL     1      45.858   5.639  21.389  0.00  0.00    +0.000 A 
ATOM     23  C   UNL     1      44.780   5.820  20.543  0.00  0.00    +0.000 A 
ATOM     24  C   UNL     1      43.570   6.300  20.998  0.00  0.00    +0.000 A 
ATOM     25  C   UNL     1      43.479   6.592  22.340  0.00  0.00    +0.000 A 
BRANCH  20  26
ATOM     26  O   UNL     1      44.407   6.731  24.568  0.00  0.00    +0.000 OA
BRANCH  26  27
ATOM     27  C   UNL     1      44.942   5.881  25.538  0.00  0.00    +0.000 C 
BRANCH  27  28
ATOM     28  C   UNL     1      44.010   4.765  25.944  0.00  0.00    +0.000 C 
BRANCH  28  30
ATOM     29  C   UNL     1      42.608   4.374  27.906  0.00  0.00    +0.000 C 
ATOM     30  C   UNL     1      42.934   5.361  26.826  0.00  0.00    +0.000 C 
ENDBRANCH  28  30
ENDBRANCH  27  28
ENDBRANCH  26  27
ENDBRANCH  20  26
ENDBRANCH  17  24
ENDBRANCH   1  19
TORSDOF 7
ENDMDL
