MODEL 1
REMARK VINA RESULT:      -7.6      0.000      0.000
REMARK  Name = 
REMARK  2 active torsions:
REMARK  status: ('A' for Active; 'I' for Inactive)
REMARK    1  A    between atoms: N_2  and  C_4
REMARK    2  A    between atoms: C_7  and  C_8
REMARK                            x       y       z     vdW  Elec       q    Type
REMARK                         _______ _______ _______ _____ _____    ______ ____
ROOT
ATOM      1  C   UNL     1      14.674  12.789  34.791  0.00  0.00    +0.000 A 
ATOM      2  N   UNL     1      13.919  13.917  34.959  0.00  0.00    +0.000 NA
ATOM      3  N   UNL     1      13.469  14.344  33.791  0.00  0.00    +0.000 NA
ATOM      4  C   UNL     1      13.937  13.483  32.861  0.00  0.00    +0.000 A 
ATOM      5  C   UNL     1      14.700  12.489  33.448  0.00  0.00    +0.000 A 
ATOM      6  C   UNL     1      15.418  11.330  32.931  0.00  0.00    +0.000 C 
ATOM      7  C   UNL     1      15.790  11.342  31.503  0.00  0.00    +0.000 C 
ATOM      8  C   UNL     1      14.688  11.661  30.550  0.00  0.00    +0.000 C 
ATOM      9  C   UNL     1      14.579  13.162  30.387  0.00  0.00    +0.000 C 
ATOM     10  N   UNL     1      13.668  13.628  31.443  0.00  0.00    +0.000 NA
ENDROOT
BRANCH   1  14
ATOM     11  C   UNL     1      16.691  10.737  37.918  0.00  0.00    +0.000 A 
ATOM     12  C   UNL     1      15.323  10.919  37.934  0.00  0.00    +0.000 A 
ATOM     13  C   UNL     1      14.630  11.579  36.940  0.00  0.00    +0.000 A 
ATOM     14  C   UNL     1      15.321  12.083  35.877  0.00  0.00    +0.000 A 
ATOM     15  C   UNL     1      16.702  11.909  35.838  0.00  0.00    +0.000 A 
ATOM     16  C   UNL     1      17.387  11.245  36.844  0.00  0.00    +0.000 A 
BRANCH  11  18
ATOM     17  C   UNL     1      18.776   9.799  38.953  0.00  0.00    +0.000 C 
ATOM     18  N   UNL     1      17.356  10.054  38.985  0.00  0.00    +0.000 N 
ATOM     19  C   UNL     1      16.623   9.588  40.159  0.00  0.00    +0.000 C 
ENDBRANCH  11  18
ENDBRANCH   1  14
TORSDOF 2
ENDMDL
MODEL 2
REMARK VINA RESULT:      -7.2      1.801      2.592
REMARK  Name = 
REMARK  2 active torsions:
REMARK  status: ('A' for Active; 'I' for Inactive)
REMARK    1  A    between atoms: N_2  and  C_4
REMARK    2  A    between atoms: C_7  and  C_8
REMARK                            x       y       z     vdW  Elec       q    Type
REMARK                         _______ _______ _______ _____ _____    ______ ____
ROOT
ATOM      1  C   UNL     1      16.226  11.029  33.324  0.00  0.00    +0.000 A 
ATOM      2  N   UNL     1      16.587  10.330  32.204  0.00  0.00    +0.000 NA
ATOM      3  N   UNL     1      16.047  10.879  31.128  0.00  0.00    +0.000 NA
ATOM      4  C   UNL     1      15.334  11.943  31.557  0.00  0.00    +0.000 A 
ATOM      5  C   UNL     1      15.419  12.073  32.933  0.00  0.00    +0.000 A 
ATOM      6  C   UNL     1      14.868  13.022  33.893  0.00  0.00    +0.000 C 
ATOM      7  C   UNL     1      13.676  13.790  33.482  0.00  0.00    +0.000 C 
ATOM      8  C   UNL     1      13.774  14.477  32.162  0.00  0.00    +0.000 C 
ATOM      9  C   UNL     1      13.360  13.523  31.063  0.00  0.00    +0.000 C 
ATOM     10  N   UNL     1      14.576  12.798  30.664  0.00  0.00    +0.000 NA
ENDROOT
BRANCH   1  14
ATOM     11  C   UNL     1      17.546   9.917  37.205  0.00  0.00    +0.000 A 
ATOM     12  C   UNL     1      16.456  10.742  37.020  0.00  0.00    +0.000 A 
ATOM     13  C   UNL     1      15.995  11.126  35.777  0.00  0.00    +0.000 A 
ATOM     14  C   UNL     1      16.642  10.674  34.665  0.00  0.00    +0.000 A 
ATOM     15  C   UNL     1      17.743   9.839  34.827  0.00  0.00    +0.000 A 
ATOM     16  C   UNL     1      18.198   9.460  36.082  0.00  0.00    +0.000 A 
BRANCH  11  18
ATOM     17  C   UNL     1      19.327   9.093  38.771  0.00  0.00    +0.000 C 
ATOM     18  N   UNL     1      17.985   9.561  38.521  0.00  0.00    +0.000 N 
ATOM     19  C   UNL     1      17.091   9.662  39.671  0.00  0.00    +0.000 C 
ENDBRANCH  11  18
ENDBRANCH   1  14
TORSDOF 2
ENDMDL
MODEL 3
REMARK VINA RESULT:      -6.4     19.883     22.063
REMARK  Name = 
REMARK  2 active torsions:
REMARK  status: ('A' for Active; 'I' for Inactive)
REMARK    1  A    between atoms: N_2  and  C_4
REMARK    2  A    between atoms: C_7  and  C_8
REMARK                            x       y       z     vdW  Elec       q    Type
REMARK                         _______ _______ _______ _____ _____    ______ ____
ROOT
ATOM      1  C   UNL     1      33.677   0.551  35.710  0.00  0.00    +0.000 A 
ATOM      2  N   UNL     1      34.055   0.767  37.008  0.00  0.00    +0.000 NA
ATOM      3  N   UNL     1      34.228   2.060  37.225  0.00  0.00    +0.000 NA
ATOM      4  C   UNL     1      33.958   2.685  36.058  0.00  0.00    +0.000 A 
ATOM      5  C   UNL     1      33.607   1.772  35.079  0.00  0.00    +0.000 A 
ATOM      6  C   UNL     1      33.220   1.894  33.678  0.00  0.00    +0.000 C 
ATOM      7  C   UNL     1      33.617   3.124  32.966  0.00  0.00    +0.000 C 
ATOM      8  C   UNL     1      33.274   4.405  33.650  0.00  0.00    +0.000 C 
ATOM      9  C   UNL     1      34.380   4.776  34.614  0.00  0.00    +0.000 C 
ATOM     10  N   UNL     1      34.054   4.122  35.891  0.00  0.00    +0.000 NA
ENDROOT
BRANCH   1  14
ATOM     11  C   UNL     1      32.830  -3.312  34.160  0.00  0.00    +0.000 A 
ATOM     12  C   UNL     1      33.834  -2.524  33.634  0.00  0.00    +0.000 A 
ATOM     13  C   UNL     1      34.140  -1.266  34.108  0.00  0.00    +0.000 A 
ATOM     14  C   UNL     1      33.422  -0.760  35.152  0.00  0.00    +0.000 A 
ATOM     15  C   UNL     1      32.407  -1.538  35.700  0.00  0.00    +0.000 A 
ATOM     16  C   UNL     1      32.107  -2.802  35.215  0.00  0.00    +0.000 A 
BRANCH  11  18
ATOM     17  C   UNL     1      31.608  -5.503  34.246  0.00  0.00    +0.000 C 
ATOM     18  N   UNL     1      32.550  -4.607  33.619  0.00  0.00    +0.000 N 
ATOM     19  C   UNL     1      33.205  -5.077  32.401  0.00  0.00    +0.000 C 
ENDBRANCH  11  18
ENDBRANCH   1  14
TORSDOF 2
ENDMDL
MODEL 4
REMARK VINA RESULT:      -6.4      2.766      7.866
REMARK  Name = 
REMARK  2 active torsions:
REMARK  status: ('A' for Active; 'I' for Inactive)
REMARK    1  A    between atoms: N_2  and  C_4
REMARK    2  A    between atoms: C_7  and  C_8
REMARK                            x       y       z     vdW  Elec       q    Type
REMARK                         _______ _______ _______ _____ _____    ______ ____
ROOT
ATOM      1  C   UNL     1      18.993   9.636  37.749  0.00  0.00    +0.000 A 
ATOM      2  N   UNL     1      18.421   9.202  38.913  0.00  0.00    +0.000 NA
ATOM      3  N   UNL     1      19.356   8.929  39.808  0.00  0.00    +0.000 NA
ATOM      4  C   UNL     1      20.541   9.192  39.217  0.00  0.00    +0.000 A 
ATOM      5  C   UNL     1      20.358   9.639  37.920  0.00  0.00    +0.000 A 
ATOM      6  C   UNL     1      21.267  10.062  36.860  0.00  0.00    +0.000 C 
ATOM      7  C   UNL     1      22.666   9.601  36.940  0.00  0.00    +0.000 C 
ATOM      8  C   UNL     1      23.348   9.829  38.247  0.00  0.00    +0.000 C 
ATOM      9  C   UNL     1      23.064   8.668  39.175  0.00  0.00    +0.000 C 
ATOM     10  N   UNL     1      21.816   8.999  39.881  0.00  0.00    +0.000 NA
ENDROOT
BRANCH   1  14
ATOM     11  C   UNL     1      16.752  10.828  34.341  0.00  0.00    +0.000 A 
ATOM     12  C   UNL     1      17.390   9.605  34.398  0.00  0.00    +0.000 A 
ATOM     13  C   UNL     1      18.126   9.181  35.485  0.00  0.00    +0.000 A 
ATOM     14  C   UNL     1      18.239  10.002  36.568  0.00  0.00    +0.000 A 
ATOM     15  C   UNL     1      17.603  11.239  36.534  0.00  0.00    +0.000 A 
ATOM     16  C   UNL     1      16.865  11.656  35.436  0.00  0.00    +0.000 A 
BRANCH  11  18
ATOM     17  C   UNL     1      16.247  10.613  31.892  0.00  0.00    +0.000 C 
ATOM     18  N   UNL     1      16.011  11.218  33.181  0.00  0.00    +0.000 N 
ATOM     19  C   UNL     1      14.977  12.247  33.253  0.00  0.00    +0.000 C 
ENDBRANCH  11  18
ENDBRANCH   1  14
TORSDOF 2
ENDMDL
MODEL 5
REMARK VINA RESULT:      -6.4     18.075     19.742
REMARK  Name = 
REMARK  2 active torsions:
REMARK  status: ('A' for Active; 'I' for Inactive)
REMARK    1  A    between atoms: N_2  and  C_4
REMARK    2  A    between atoms: C_7  and  C_8
REMARK                            x       y       z     vdW  Elec       q    Type
REMARK                         _______ _______ _______ _____ _____    ______ ____
ROOT
ATOM      1  C   UNL     1      27.031  23.650  24.336  0.00  0.00    +0.000 A 
ATOM      2  N   UNL     1      26.276  22.958  23.429  0.00  0.00    +0.000 NA
ATOM      3  N   UNL     1      26.400  23.495  22.226  0.00  0.00    +0.000 NA
ATOM      4  C   UNL     1      27.244  24.541  22.358  0.00  0.00    +0.000 A 
ATOM      5  C   UNL     1      27.665  24.674  23.670  0.00  0.00    +0.000 A 
ATOM      6  C   UNL     1      28.560  25.601  24.353  0.00  0.00    +0.000 C 
ATOM      7  C   UNL     1      28.812  26.904  23.708  0.00  0.00    +0.000 C 
ATOM      8  C   UNL     1      29.218  26.848  22.274  0.00  0.00    +0.000 C 
ATOM      9  C   UNL     1      27.983  26.816  21.399  0.00  0.00    +0.000 C 
ATOM     10  N   UNL     1      27.619  25.398  21.249  0.00  0.00    +0.000 NA
ENDROOT
BRANCH   1  14
ATOM     11  C   UNL     1      27.344  22.614  28.444  0.00  0.00    +0.000 A 
ATOM     12  C   UNL     1      26.346  23.447  27.980  0.00  0.00    +0.000 A 
ATOM     13  C   UNL     1      26.209  23.807  26.656  0.00  0.00    +0.000 A 
ATOM     14  C   UNL     1      27.101  23.322  25.745  0.00  0.00    +0.000 A 
ATOM     15  C   UNL     1      28.115  22.480  26.189  0.00  0.00    +0.000 A 
ATOM     16  C   UNL     1      28.243  22.125  27.523  0.00  0.00    +0.000 A 
BRANCH  11  18
ATOM     17  C   UNL     1      28.613  22.616  30.610  0.00  0.00    +0.000 C 
ATOM     18  N   UNL     1      27.442  22.285  29.834  0.00  0.00    +0.000 N 
ATOM     19  C   UNL     1      26.355  21.601  30.528  0.00  0.00    +0.000 C 
ENDBRANCH  11  18
ENDBRANCH   1  14
TORSDOF 2
ENDMDL
MODEL 6
REMARK VINA RESULT:      -6.3     21.286     22.909
REMARK  Name = 
REMARK  2 active torsions:
REMARK  status: ('A' for Active; 'I' for Inactive)
REMARK    1  A    between atoms: N_2  and  C_4
REMARK    2  A    between atoms: C_7  and  C_8
REMARK                            x       y       z     vdW  Elec       q    Type
REMARK                         _______ _______ _______ _____ _____    ______ ____
ROOT
ATOM      1  C   UNL     1      20.062  -6.710  25.656  0.00  0.00    +0.000 A 
ATOM      2  N   UNL     1      19.730  -5.403  25.886  0.00  0.00    +0.000 NA
ATOM      3  N   UNL     1      18.478  -5.316  26.306  0.00  0.00    +0.000 NA
ATOM      4  C   UNL     1      17.999  -6.578  26.349  0.00  0.00    +0.000 A 
ATOM      5  C   UNL     1      18.964  -7.486  25.948  0.00  0.00    +0.000 A 
ATOM      6  C   UNL     1      18.989  -8.939  25.817  0.00  0.00    +0.000 C 
ATOM      7  C   UNL     1      17.694  -9.633  25.685  0.00  0.00    +0.000 C 
ATOM      8  C   UNL     1      16.667  -9.283  26.710  0.00  0.00    +0.000 C 
ATOM      9  C   UNL     1      15.896  -8.063  26.257  0.00  0.00    +0.000 C 
ATOM     10  N   UNL     1      16.642  -6.895  26.750  0.00  0.00    +0.000 NA
ENDROOT
BRANCH   1  14
ATOM     11  C   UNL     1      23.885  -7.850  24.194  0.00  0.00    +0.000 A 
ATOM     12  C   UNL     1      23.089  -8.726  24.904  0.00  0.00    +0.000 A 
ATOM     13  C   UNL     1      21.843  -8.395  25.396  0.00  0.00    +0.000 A 
ATOM     14  C   UNL     1      21.358  -7.140  25.175  0.00  0.00    +0.000 A 
ATOM     15  C   UNL     1      22.142  -6.240  24.459  0.00  0.00    +0.000 A 
ATOM     16  C   UNL     1      23.393  -6.583  23.971  0.00  0.00    +0.000 A 
BRANCH  11  18
ATOM     17  C   UNL     1      26.056  -7.316  23.054  0.00  0.00    +0.000 C 
ATOM     18  N   UNL     1      25.175  -8.246  23.719  0.00  0.00    +0.000 N 
ATOM     19  C   UNL     1      25.659  -9.613  23.891  0.00  0.00    +0.000 C 
ENDBRANCH  11  18
ENDBRANCH   1  14
TORSDOF 2
ENDMDL
MODEL 7
REMARK VINA RESULT:      -6.2      2.297      7.963
REMARK  Name = 
REMARK  2 active torsions:
REMARK  status: ('A' for Active; 'I' for Inactive)
REMARK    1  A    between atoms: N_2  and  C_4
REMARK    2  A    between atoms: C_7  and  C_8
REMARK                            x       y       z     vdW  Elec       q    Type
REMARK                         _______ _______ _______ _____ _____    ______ ____
ROOT
ATOM      1  C   UNL     1      18.976   9.885  38.054  0.00  0.00    +0.000 A 
ATOM      2  N   UNL     1      20.342   9.820  38.097  0.00  0.00    +0.000 NA
ATOM      3  N   UNL     1      20.744   9.462  39.305  0.00  0.00    +0.000 NA
ATOM      4  C   UNL     1      19.628   9.293  40.047  0.00  0.00    +0.000 A 
ATOM      5  C   UNL     1      18.493   9.549  39.297  0.00  0.00    +0.000 A 
ATOM      6  C   UNL     1      17.064   9.513  39.586  0.00  0.00    +0.000 C 
ATOM      7  C   UNL     1      16.652   9.614  40.999  0.00  0.00    +0.000 C 
ATOM      8  C   UNL     1      17.334   8.678  41.939  0.00  0.00    +0.000 C 
ATOM      9  C   UNL     1      18.627   9.297  42.421  0.00  0.00    +0.000 C 
ATOM     10  N   UNL     1      19.659   8.912  41.446  0.00  0.00    +0.000 NA
ENDROOT
BRANCH   1  14
ATOM     11  C   UNL     1      16.801  10.874  34.540  0.00  0.00    +0.000 A 
ATOM     12  C   UNL     1      16.883  11.742  35.610  0.00  0.00    +0.000 A 
ATOM     13  C   UNL     1      17.579  11.459  36.768  0.00  0.00    +0.000 A 
ATOM     14  C   UNL     1      18.225  10.263  36.875  0.00  0.00    +0.000 A 
ATOM     15  C   UNL     1      18.157   9.372  35.807  0.00  0.00    +0.000 A 
ATOM     16  C   UNL     1      17.454   9.667  34.649  0.00  0.00    +0.000 A 
BRANCH  11  18
ATOM     17  C   UNL     1      15.010  12.214  33.401  0.00  0.00    +0.000 C 
ATOM     18  N   UNL     1      16.054  11.218  33.369  0.00  0.00    +0.000 N 
ATOM     19  C   UNL     1      16.321  10.576  32.085  0.00  0.00    +0.000 C 
ENDBRANCH  11  18
ENDBRANCH   1  14
TORSDOF 2
ENDMDL
MODEL 8
REMARK VINA RESULT:      -6.2     19.122     20.501
REMARK  Name = 
REMARK  2 active torsions:
REMARK  status: ('A' for Active; 'I' for Inactive)
REMARK    1  A    between atoms: N_2  and  C_4
REMARK    2  A    between atoms: C_7  and  C_8
REMARK                            x       y       z     vdW  Elec       q    Type
REMARK                         _______ _______ _______ _____ _____    ______ ____
ROOT
ATOM      1  C   UNL     1      29.740  23.371  24.612  0.00  0.00    +0.000 A 
ATOM      2  N   UNL     1      30.350  23.607  23.409  0.00  0.00    +0.000 NA
ATOM      3  N   UNL     1      29.442  23.799  22.466  0.00  0.00    +0.000 NA
ATOM      4  C   UNL     1      28.236  23.688  23.065  0.00  0.00    +0.000 A 
ATOM      5  C   UNL     1      28.379  23.420  24.416  0.00  0.00    +0.000 A 
ATOM      6  C   UNL     1      27.435  23.218  25.510  0.00  0.00    +0.000 C 
ATOM      7  C   UNL     1      26.059  22.820  25.156  0.00  0.00    +0.000 C 
ATOM      8  C   UNL     1      25.389  23.659  24.121  0.00  0.00    +0.000 C 
ATOM      9  C   UNL     1      25.740  23.141  22.744  0.00  0.00    +0.000 C 
ATOM     10  N   UNL     1      26.983  23.821  22.349  0.00  0.00    +0.000 NA
ENDROOT
BRANCH   1  14
ATOM     11  C   UNL     1      31.916  22.714  28.201  0.00  0.00    +0.000 A 
ATOM     12  C   UNL     1      30.918  21.854  27.790  0.00  0.00    +0.000 A 
ATOM     13  C   UNL     1      30.189  22.031  26.633  0.00  0.00    +0.000 A 
ATOM     14  C   UNL     1      30.458  23.109  25.842  0.00  0.00    +0.000 A 
ATOM     15  C   UNL     1      31.461  23.990  26.234  0.00  0.00    +0.000 A 
ATOM     16  C   UNL     1      32.188  23.802  27.401  0.00  0.00    +0.000 A 
BRANCH  11  18
ATOM     17  C   UNL     1      33.942  23.045  29.645  0.00  0.00    +0.000 C 
ATOM     18  N   UNL     1      32.632  22.484  29.419  0.00  0.00    +0.000 N 
ATOM     19  C   UNL     1      32.062  21.673  30.491  0.00  0.00    +0.000 C 
ENDBRANCH  11  18
ENDBRANCH   1  14
TORSDOF 2
ENDMDL
MODEL 9
REMARK VINA RESULT:      -6.1     18.898     20.013
REMARK  Name = 
REMARK  2 active torsions:
REMARK  status: ('A' for Active; 'I' for Inactive)
REMARK    1  A    between atoms: N_2  and  C_4
REMARK    2  A    between atoms: C_7  and  C_8
REMARK                            x       y       z     vdW  Elec       q    Type
REMARK                         _______ _______ _______ _____ _____    ______ ____
ROOT
ATOM      1  C   UNL     1      28.025  22.984  25.454  0.00  0.00    +0.000 A 
ATOM      2  N   UNL     1      26.690  22.683  25.496  0.00  0.00    +0.000 NA
ATOM      3  N   UNL     1      26.113  23.004  24.351  0.00  0.00    +0.000 NA
ATOM      4  C   UNL     1      27.083  23.515  23.561  0.00  0.00    +0.000 A 
ATOM      5  C   UNL     1      28.302  23.519  24.217  0.00  0.00    +0.000 A 
ATOM      6  C   UNL     1      29.647  23.940  23.842  0.00  0.00    +0.000 C 
ATOM      7  C   UNL     1      29.775  24.907  22.735  0.00  0.00    +0.000 C 
ATOM      8  C   UNL     1      29.039  24.558  21.485  0.00  0.00    +0.000 C 
ATOM      9  C   UNL     1      27.617  25.068  21.576  0.00  0.00    +0.000 C 
ATOM     10  N   UNL     1      26.834  24.000  22.217  0.00  0.00    +0.000 NA
ENDROOT
BRANCH   1  14
ATOM     11  C   UNL     1      30.613  22.404  28.773  0.00  0.00    +0.000 A 
ATOM     12  C   UNL     1      30.930  21.932  27.515  0.00  0.00    +0.000 A 
ATOM     13  C   UNL     1      30.118  22.099  26.412  0.00  0.00    +0.000 A 
ATOM     14  C   UNL     1      28.936  22.765  26.557  0.00  0.00    +0.000 A 
ATOM     15  C   UNL     1      28.596  23.251  27.816  0.00  0.00    +0.000 A 
ATOM     16  C   UNL     1      29.420  23.076  28.918  0.00  0.00    +0.000 A 
BRANCH  11  18
ATOM     17  C   UNL     1      32.822  21.661  29.704  0.00  0.00    +0.000 C 
ATOM     18  N   UNL     1      31.490  22.189  29.883  0.00  0.00    +0.000 N 
ATOM     19  C   UNL     1      31.076  22.502  31.247  0.00  0.00    +0.000 C 
ENDBRANCH  11  18
ENDBRANCH   1  14
TORSDOF 2
ENDMDL
MODEL 10
REMARK VINA RESULT:      -6.1     17.623     19.570
REMARK  Name = 
REMARK  2 active torsions:
REMARK  status: ('A' for Active; 'I' for Inactive)
REMARK    1  A    between atoms: N_2  and  C_4
REMARK    2  A    between atoms: C_7  and  C_8
REMARK                            x       y       z     vdW  Elec       q    Type
REMARK                         _______ _______ _______ _____ _____    ______ ____
ROOT
ATOM      1  C   UNL     1      26.001  24.015  24.848  0.00  0.00    +0.000 A 
ATOM      2  N   UNL     1      25.182  23.265  24.048  0.00  0.00    +0.000 NA
ATOM      3  N   UNL     1      25.790  22.984  22.907  0.00  0.00    +0.000 NA
ATOM      4  C   UNL     1      27.012  23.555  22.972  0.00  0.00    +0.000 A 
ATOM      5  C   UNL     1      27.186  24.214  24.177  0.00  0.00    +0.000 A 
ATOM      6  C   UNL     1      28.285  24.972  24.763  0.00  0.00    +0.000 C 
ATOM      7  C   UNL     1      29.293  25.533  23.842  0.00  0.00    +0.000 C 
ATOM      8  C   UNL     1      29.871  24.573  22.856  0.00  0.00    +0.000 C 
ATOM      9  C   UNL     1      28.989  24.516  21.628  0.00  0.00    +0.000 C 
ATOM     10  N   UNL     1      27.978  23.481  21.892  0.00  0.00    +0.000 NA
ENDROOT
BRANCH   1  14
ATOM     11  C   UNL     1      24.823  25.526  28.639  0.00  0.00    +0.000 A 
ATOM     12  C   UNL     1      25.646  24.425  28.522  0.00  0.00    +0.000 A 
ATOM     13  C   UNL     1      26.051  23.903  27.311  0.00  0.00    +0.000 A 
ATOM     14  C   UNL     1      25.624  24.497  26.160  0.00  0.00    +0.000 A 
ATOM     15  C   UNL     1      24.795  25.611  26.254  0.00  0.00    +0.000 A 
ATOM     16  C   UNL     1      24.393  26.126  27.477  0.00  0.00    +0.000 A 
BRANCH  11  18
ATOM     17  C   UNL     1      23.221  26.789  30.101  0.00  0.00    +0.000 C 
ATOM     18  N   UNL     1      24.426  26.015  29.924  0.00  0.00    +0.000 N 
ATOM     19  C   UNL     1      25.225  25.747  31.117  0.00  0.00    +0.000 C 
ENDBRANCH  11  18
ENDBRANCH   1  14
TORSDOF 2
ENDMDL
