MODEL 1
REMARK VINA RESULT:      -8.0      0.000      0.000
REMARK  Name = 
REMARK  6 active torsions:
REMARK  status: ('A' for Active; 'I' for Inactive)
REMARK    1  A    between atoms: C_2  and  C_3
REMARK    2  A    between atoms: C_3  and  O_4
REMARK    3  A    between atoms: O_4  and  C_5
REMARK    4  A    between atoms: N_15  and  C_16
REMARK    5  A    between atoms: C_21  and  C_22
REMARK    6  A    between atoms: N_24  and  C_25
REMARK                            x       y       z     vdW  Elec       q    Type
REMARK                         _______ _______ _______ _____ _____    ______ ____
ROOT
ATOM      1  O   UNL     1      35.408   3.722  15.628  0.00  0.00    +0.000 OA
ATOM      2  C   UNL     1      35.799   2.729  16.297  0.00  0.00    +0.000 C 
ATOM      3  N   UNL     1      37.151   2.688  16.769  0.00  0.00    +0.000 NA
ENDROOT
BRANCH   3   4
ATOM      4  C   UNL     1      38.039   3.764  16.484  0.00  0.00    +0.000 A 
ATOM      5  C   UNL     1      38.108   4.896  17.280  0.00  0.00    +0.000 A 
ATOM      6  C   UNL     1      38.984   5.899  16.965  0.00  0.00    +0.000 A 
ATOM      7  C   UNL     1      39.815   5.818  15.858  0.00  0.00    +0.000 A 
ATOM      8  C   UNL     1      39.726   4.676  15.079  0.00  0.00    +0.000 A 
ATOM      9  C   UNL     1      38.860   3.651  15.367  0.00  0.00    +0.000 A 
BRANCH   9  10
ATOM     10  C   UNL     1      38.776   2.449  14.520  0.00  0.00    +0.000 C 
ATOM     11  O   UNL     1      38.009   2.417  13.525  0.00  0.00    +0.000 OA
ATOM     12  N   UNL     1      39.541   1.299  14.785  0.00  0.00    +0.000 NA
BRANCH  12  13
ATOM     13  C   UNL     1      39.551   0.078  14.044  0.00  0.00    +0.000 C 
ATOM     14  C   UNL     1      40.858  -0.224  13.379  0.00  0.00    +0.000 C 
ATOM     15  C   UNL     1      41.820  -0.952  14.303  0.00  0.00    +0.000 C 
ATOM     16  C   UNL     1      41.138  -2.269  14.662  0.00  0.00    +0.000 C 
ATOM     17  C   UNL     1      39.910  -1.970  15.459  0.00  0.00    +0.000 C 
ATOM     18  C   UNL     1      38.929  -1.085  14.738  0.00  0.00    +0.000 C 
ENDBRANCH  12  13
ENDBRANCH   9  10
ENDBRANCH   3   4
BRANCH   2  19
ATOM     19  C   UNL     1      34.837   1.626  16.580  0.00  0.00    +0.000 C 
BRANCH  19  20
ATOM     20  O   UNL     1      35.267   0.874  17.681  0.00  0.00    +0.000 OA
BRANCH  20  21
ATOM     21  C   UNL     1      35.766  -0.403  17.485  0.00  0.00    +0.000 A 
ATOM     22  C   UNL     1      35.169  -1.152  16.474  0.00  0.00    +0.000 A 
ATOM     23  C   UNL     1      35.651  -2.409  16.266  0.00  0.00    +0.000 A 
ATOM     24  C   UNL     1      36.668  -2.976  16.979  0.00  0.00    +0.000 A 
ATOM     25  C   UNL     1      37.136  -4.248  16.752  0.00  0.00    +0.000 A 
ATOM     26  C   UNL     1      38.165  -4.786  17.492  0.00  0.00    +0.000 A 
ATOM     27  C   UNL     1      38.763  -4.034  18.507  0.00  0.00    +0.000 A 
ATOM     28  C   UNL     1      38.289  -2.766  18.729  0.00  0.00    +0.000 A 
ATOM     29  C   UNL     1      37.259  -2.239  17.980  0.00  0.00    +0.000 A 
ATOM     30  C   UNL     1      36.794  -0.949  18.221  0.00  0.00    +0.000 A 
ENDBRANCH  20  21
ENDBRANCH  19  20
ENDBRANCH   2  19
TORSDOF 6
ENDMDL
MODEL 2
REMARK VINA RESULT:      -7.9      2.149      6.690
REMARK  Name = 
REMARK  6 active torsions:
REMARK  status: ('A' for Active; 'I' for Inactive)
REMARK    1  A    between atoms: C_2  and  C_3
REMARK    2  A    between atoms: C_3  and  O_4
REMARK    3  A    between atoms: O_4  and  C_5
REMARK    4  A    between atoms: N_15  and  C_16
REMARK    5  A    between atoms: C_21  and  C_22
REMARK    6  A    between atoms: N_24  and  C_25
REMARK                            x       y       z     vdW  Elec       q    Type
REMARK                         _______ _______ _______ _____ _____    ______ ____
ROOT
ATOM      1  O   UNL     1      35.039   2.099  15.386  0.00  0.00    +0.000 OA
ATOM      2  C   UNL     1      36.199   2.141  15.880  0.00  0.00    +0.000 C 
ATOM      3  N   UNL     1      36.770   0.950  16.431  0.00  0.00    +0.000 NA
ENDROOT
BRANCH   3   4
ATOM      4  C   UNL     1      36.034  -0.268  16.417  0.00  0.00    +0.000 A 
ATOM      5  C   UNL     1      35.092  -0.575  17.385  0.00  0.00    +0.000 A 
ATOM      6  C   UNL     1      34.408  -1.758  17.321  0.00  0.00    +0.000 A 
ATOM      7  C   UNL     1      34.632  -2.674  16.304  0.00  0.00    +0.000 A 
ATOM      8  C   UNL     1      35.579  -2.344  15.348  0.00  0.00    +0.000 A 
ATOM      9  C   UNL     1      36.282  -1.165  15.382  0.00  0.00    +0.000 A 
BRANCH   9  10
ATOM     10  C   UNL     1      37.291  -0.838  14.360  0.00  0.00    +0.000 C 
ATOM     11  O   UNL     1      36.980  -0.165  13.344  0.00  0.00    +0.000 OA
ATOM     12  N   UNL     1      38.628  -1.258  14.474  0.00  0.00    +0.000 NA
BRANCH  12  13
ATOM     13  C   UNL     1      39.694  -1.006  13.558  0.00  0.00    +0.000 C 
ATOM     14  C   UNL     1      41.010  -0.723  14.213  0.00  0.00    +0.000 C 
ATOM     15  C   UNL     1      41.782  -1.994  14.528  0.00  0.00    +0.000 C 
ATOM     16  C   UNL     1      42.039  -2.670  13.185  0.00  0.00    +0.000 C 
ATOM     17  C   UNL     1      40.728  -3.089  12.601  0.00  0.00    +0.000 C 
ATOM     18  C   UNL     1      39.769  -1.947  12.405  0.00  0.00    +0.000 C 
ENDBRANCH  12  13
ENDBRANCH   9  10
ENDBRANCH   3   4
BRANCH   2  19
ATOM     19  C   UNL     1      36.940   3.435  15.870  0.00  0.00    +0.000 C 
BRANCH  19  20
ATOM     20  O   UNL     1      37.390   3.749  17.159  0.00  0.00    +0.000 OA
BRANCH  20  21
ATOM     21  C   UNL     1      38.499   4.562  17.318  0.00  0.00    +0.000 A 
ATOM     22  C   UNL     1      39.179   4.915  16.156  0.00  0.00    +0.000 A 
ATOM     23  C   UNL     1      40.270   5.718  16.295  0.00  0.00    +0.000 A 
ATOM     24  C   UNL     1      40.736   6.191  17.487  0.00  0.00    +0.000 A 
ATOM     25  C   UNL     1      41.842   7.000  17.604  0.00  0.00    +0.000 A 
ATOM     26  C   UNL     1      42.282   7.458  18.825  0.00  0.00    +0.000 A 
ATOM     27  C   UNL     1      41.599   7.102  19.992  0.00  0.00    +0.000 A 
ATOM     28  C   UNL     1      40.498   6.293  19.868  0.00  0.00    +0.000 A 
ATOM     29  C   UNL     1      40.068   5.843  18.640  0.00  0.00    +0.000 A 
ATOM     30  C   UNL     1      38.946   5.024  18.537  0.00  0.00    +0.000 A 
ENDBRANCH  20  21
ENDBRANCH  19  20
ENDBRANCH   2  19
TORSDOF 6
ENDMDL
MODEL 3
REMARK VINA RESULT:      -7.7      1.888      6.960
REMARK  Name = 
REMARK  6 active torsions:
REMARK  status: ('A' for Active; 'I' for Inactive)
REMARK    1  A    between atoms: C_2  and  C_3
REMARK    2  A    between atoms: C_3  and  O_4
REMARK    3  A    between atoms: O_4  and  C_5
REMARK    4  A    between atoms: N_15  and  C_16
REMARK    5  A    between atoms: C_21  and  C_22
REMARK    6  A    between atoms: N_24  and  C_25
REMARK                            x       y       z     vdW  Elec       q    Type
REMARK                         _______ _______ _______ _____ _____    ______ ____
ROOT
ATOM      1  O   UNL     1      38.726   1.228  12.591  0.00  0.00    +0.000 OA
ATOM      2  C   UNL     1      38.658   1.705  13.756  0.00  0.00    +0.000 C 
ATOM      3  N   UNL     1      39.487   1.158  14.787  0.00  0.00    +0.000 NA
ENDROOT
BRANCH   3   4
ATOM      4  C   UNL     1      40.380   0.088  14.495  0.00  0.00    +0.000 A 
ATOM      5  C   UNL     1      41.690   0.305  14.100  0.00  0.00    +0.000 A 
ATOM      6  C   UNL     1      42.508  -0.759  13.836  0.00  0.00    +0.000 A 
ATOM      7  C   UNL     1      42.061  -2.067  13.950  0.00  0.00    +0.000 A 
ATOM      8  C   UNL     1      40.747  -2.257  14.346  0.00  0.00    +0.000 A 
ATOM      9  C   UNL     1      39.900  -1.212  14.620  0.00  0.00    +0.000 A 
BRANCH   9  10
ATOM     10  C   UNL     1      38.504  -1.436  15.031  0.00  0.00    +0.000 C 
ATOM     11  O   UNL     1      37.636  -1.788  14.192  0.00  0.00    +0.000 OA
ATOM     12  N   UNL     1      38.086  -1.268  16.364  0.00  0.00    +0.000 NA
BRANCH  12  13
ATOM     13  C   UNL     1      36.770  -1.455  16.886  0.00  0.00    +0.000 C 
ATOM     14  C   UNL     1      36.731  -2.144  18.215  0.00  0.00    +0.000 C 
ATOM     15  C   UNL     1      36.891  -1.173  19.373  0.00  0.00    +0.000 C 
ATOM     16  C   UNL     1      35.705  -0.217  19.283  0.00  0.00    +0.000 C 
ATOM     17  C   UNL     1      35.828   0.581  18.025  0.00  0.00    +0.000 C 
ATOM     18  C   UNL     1      35.877  -0.266  16.782  0.00  0.00    +0.000 C 
ENDBRANCH  12  13
ENDBRANCH   9  10
ENDBRANCH   3   4
BRANCH   2  19
ATOM     19  C   UNL     1      37.716   2.830  14.021  0.00  0.00    +0.000 C 
BRANCH  19  20
ATOM     20  O   UNL     1      38.418   4.037  14.133  0.00  0.00    +0.000 OA
BRANCH  20  21
ATOM     21  C   UNL     1      38.766   4.512  15.386  0.00  0.00    +0.000 A 
ATOM     22  C   UNL     1      37.878   4.234  16.422  0.00  0.00    +0.000 A 
ATOM     23  C   UNL     1      38.207   4.692  17.661  0.00  0.00    +0.000 A 
ATOM     24  C   UNL     1      39.338   5.400  17.950  0.00  0.00    +0.000 A 
ATOM     25  C   UNL     1      39.649   5.854  19.210  0.00  0.00    +0.000 A 
ATOM     26  C   UNL     1      40.799   6.566  19.463  0.00  0.00    +0.000 A 
ATOM     27  C   UNL     1      41.690   6.846  18.422  0.00  0.00    +0.000 A 
ATOM     28  C   UNL     1      41.372   6.392  17.167  0.00  0.00    +0.000 A 
ATOM     29  C   UNL     1      40.218   5.679  16.928  0.00  0.00    +0.000 A 
ATOM     30  C   UNL     1      39.915   5.226  15.647  0.00  0.00    +0.000 A 
ENDBRANCH  20  21
ENDBRANCH  19  20
ENDBRANCH   2  19
TORSDOF 6
ENDMDL
MODEL 4
REMARK VINA RESULT:      -7.4      2.081      7.006
REMARK  Name = 
REMARK  6 active torsions:
REMARK  status: ('A' for Active; 'I' for Inactive)
REMARK    1  A    between atoms: C_2  and  C_3
REMARK    2  A    between atoms: C_3  and  O_4
REMARK    3  A    between atoms: O_4  and  C_5
REMARK    4  A    between atoms: N_15  and  C_16
REMARK    5  A    between atoms: C_21  and  C_22
REMARK    6  A    between atoms: N_24  and  C_25
REMARK                            x       y       z     vdW  Elec       q    Type
REMARK                         _______ _______ _______ _____ _____    ______ ____
ROOT
ATOM      1  O   UNL     1      35.061   2.077  15.614  0.00  0.00    +0.000 OA
ATOM      2  C   UNL     1      36.002   2.212  16.443  0.00  0.00    +0.000 C 
ATOM      3  N   UNL     1      36.438   1.078  17.201  0.00  0.00    +0.000 NA
ENDROOT
BRANCH   3   4
ATOM      4  C   UNL     1      35.813  -0.187  17.017  0.00  0.00    +0.000 A 
ATOM      5  C   UNL     1      34.548  -0.467  17.510  0.00  0.00    +0.000 A 
ATOM      6  C   UNL     1      33.991  -1.699  17.300  0.00  0.00    +0.000 A 
ATOM      7  C   UNL     1      34.662  -2.691  16.599  0.00  0.00    +0.000 A 
ATOM      8  C   UNL     1      35.924  -2.386  16.117  0.00  0.00    +0.000 A 
ATOM      9  C   UNL     1      36.512  -1.160  16.309  0.00  0.00    +0.000 A 
BRANCH   9  10
ATOM     10  C   UNL     1      37.858  -0.860  15.794  0.00  0.00    +0.000 C 
ATOM     11  O   UNL     1      38.878  -1.092  16.491  0.00  0.00    +0.000 OA
ATOM     12  N   UNL     1      38.059  -0.308  14.516  0.00  0.00    +0.000 NA
BRANCH  12  13
ATOM     13  C   UNL     1      39.306   0.026  13.905  0.00  0.00    +0.000 C 
ATOM     14  C   UNL     1      39.363  -0.258  12.436  0.00  0.00    +0.000 C 
ATOM     15  C   UNL     1      38.819   0.893  11.606  0.00  0.00    +0.000 C 
ATOM     16  C   UNL     1      39.718   2.087  11.908  0.00  0.00    +0.000 C 
ATOM     17  C   UNL     1      39.544   2.466  13.343  0.00  0.00    +0.000 C 
ATOM     18  C   UNL     1      39.866   1.350  14.300  0.00  0.00    +0.000 C 
ENDBRANCH  12  13
ENDBRANCH   9  10
ENDBRANCH   3   4
BRANCH   2  19
ATOM     19  C   UNL     1      36.635   3.553  16.601  0.00  0.00    +0.000 C 
BRANCH  19  20
ATOM     20  O   UNL     1      38.029   3.447  16.510  0.00  0.00    +0.000 OA
BRANCH  20  21
ATOM     21  C   UNL     1      38.824   4.503  16.920  0.00  0.00    +0.000 A 
ATOM     22  C   UNL     1      39.618   5.098  15.943  0.00  0.00    +0.000 A 
ATOM     23  C   UNL     1      40.403   6.140  16.329  0.00  0.00    +0.000 A 
ATOM     24  C   UNL     1      40.464   6.633  17.601  0.00  0.00    +0.000 A 
ATOM     25  C   UNL     1      41.267   7.686  17.969  0.00  0.00    +0.000 A 
ATOM     26  C   UNL     1      41.303   8.156  19.262  0.00  0.00    +0.000 A 
ATOM     27  C   UNL     1      40.507   7.558  20.244  0.00  0.00    +0.000 A 
ATOM     28  C   UNL     1      39.710   6.506  19.870  0.00  0.00    +0.000 A 
ATOM     29  C   UNL     1      39.684   6.047  18.572  0.00  0.00    +0.000 A 
ATOM     30  C   UNL     1      38.866   4.978  18.213  0.00  0.00    +0.000 A 
ENDBRANCH  20  21
ENDBRANCH  19  20
ENDBRANCH   2  19
TORSDOF 6
ENDMDL
MODEL 5
REMARK VINA RESULT:      -7.3      2.263      6.615
REMARK  Name = 
REMARK  6 active torsions:
REMARK  status: ('A' for Active; 'I' for Inactive)
REMARK    1  A    between atoms: C_2  and  C_3
REMARK    2  A    between atoms: C_3  and  O_4
REMARK    3  A    between atoms: O_4  and  C_5
REMARK    4  A    between atoms: N_15  and  C_16
REMARK    5  A    between atoms: C_21  and  C_22
REMARK    6  A    between atoms: N_24  and  C_25
REMARK                            x       y       z     vdW  Elec       q    Type
REMARK                         _______ _______ _______ _____ _____    ______ ____
ROOT
ATOM      1  O   UNL     1      35.941   3.095  14.735  0.00  0.00    +0.000 OA
ATOM      2  C   UNL     1      37.132   3.051  15.145  0.00  0.00    +0.000 C 
ATOM      3  N   UNL     1      37.580   1.906  15.878  0.00  0.00    +0.000 NA
ENDROOT
BRANCH   3   4
ATOM      4  C   UNL     1      36.686   0.828  16.136  0.00  0.00    +0.000 A 
ATOM      5  C   UNL     1      35.790   0.847  17.193  0.00  0.00    +0.000 A 
ATOM      6  C   UNL     1      34.949  -0.214  17.392  0.00  0.00    +0.000 A 
ATOM      7  C   UNL     1      34.965  -1.323  16.559  0.00  0.00    +0.000 A 
ATOM      8  C   UNL     1      35.869  -1.316  15.510  0.00  0.00    +0.000 A 
ATOM      9  C   UNL     1      36.727  -0.269  15.281  0.00  0.00    +0.000 A 
BRANCH   9  10
ATOM     10  C   UNL     1      37.686  -0.286  14.163  0.00  0.00    +0.000 C 
ATOM     11  O   UNL     1      37.338   0.081  13.013  0.00  0.00    +0.000 OA
ATOM     12  N   UNL     1      39.017  -0.709  14.333  0.00  0.00    +0.000 NA
BRANCH  12  13
ATOM     13  C   UNL     1      40.038  -0.771  13.336  0.00  0.00    +0.000 C 
ATOM     14  C   UNL     1      41.422  -0.554  13.864  0.00  0.00    +0.000 C 
ATOM     15  C   UNL     1      42.052  -1.839  14.374  0.00  0.00    +0.000 C 
ATOM     16  C   UNL     1      42.128  -2.774  13.171  0.00  0.00    +0.000 C 
ATOM     17  C   UNL     1      40.737  -3.112  12.739  0.00  0.00    +0.000 C 
ATOM     18  C   UNL     1      39.914  -1.905  12.378  0.00  0.00    +0.000 C 
ENDBRANCH  12  13
ENDBRANCH   9  10
ENDBRANCH   3   4
BRANCH   2  19
ATOM     19  C   UNL     1      38.039   4.197  14.849  0.00  0.00    +0.000 C 
BRANCH  19  20
ATOM     20  O   UNL     1      37.816   5.241  15.756  0.00  0.00    +0.000 OA
BRANCH  20  21
ATOM     21  C   UNL     1      38.783   5.547  16.698  0.00  0.00    +0.000 A 
ATOM     22  C   UNL     1      38.390   5.484  18.033  0.00  0.00    +0.000 A 
ATOM     23  C   UNL     1      39.330   5.779  18.972  0.00  0.00    +0.000 A 
ATOM     24  C   UNL     1      40.619   6.130  18.693  0.00  0.00    +0.000 A 
ATOM     25  C   UNL     1      41.552   6.424  19.659  0.00  0.00    +0.000 A 
ATOM     26  C   UNL     1      42.844   6.775  19.340  0.00  0.00    +0.000 A 
ATOM     27  C   UNL     1      43.239   6.838  18.000  0.00  0.00    +0.000 A 
ATOM     28  C   UNL     1      42.303   6.545  17.041  0.00  0.00    +0.000 A 
ATOM     29  C   UNL     1      41.013   6.195  17.375  0.00  0.00    +0.000 A 
ATOM     30  C   UNL     1      40.079   5.899  16.387  0.00  0.00    +0.000 A 
ENDBRANCH  20  21
ENDBRANCH  19  20
ENDBRANCH   2  19
TORSDOF 6
ENDMDL
MODEL 6
REMARK VINA RESULT:      -7.1      2.024      7.112
REMARK  Name = 
REMARK  6 active torsions:
REMARK  status: ('A' for Active; 'I' for Inactive)
REMARK    1  A    between atoms: C_2  and  C_3
REMARK    2  A    between atoms: C_3  and  O_4
REMARK    3  A    between atoms: O_4  and  C_5
REMARK    4  A    between atoms: N_15  and  C_16
REMARK    5  A    between atoms: C_21  and  C_22
REMARK    6  A    between atoms: N_24  and  C_25
REMARK                            x       y       z     vdW  Elec       q    Type
REMARK                         _______ _______ _______ _____ _____    ______ ____
ROOT
ATOM      1  O   UNL     1      39.163   1.435  15.181  0.00  0.00    +0.000 OA
ATOM      2  C   UNL     1      38.025   1.536  14.648  0.00  0.00    +0.000 C 
ATOM      3  N   UNL     1      37.655   0.627  13.605  0.00  0.00    +0.000 NA
ENDROOT
BRANCH   3   4
ATOM      4  C   UNL     1      38.566  -0.381  13.181  0.00  0.00    +0.000 A 
ATOM      5  C   UNL     1      39.627  -0.110  12.332  0.00  0.00    +0.000 A 
ATOM      6  C   UNL     1      40.477  -1.115  11.959  0.00  0.00    +0.000 A 
ATOM      7  C   UNL     1      40.307  -2.416  12.409  0.00  0.00    +0.000 A 
ATOM      8  C   UNL     1      39.239  -2.661  13.256  0.00  0.00    +0.000 A 
ATOM      9  C   UNL     1      38.368  -1.676  13.650  0.00  0.00    +0.000 A 
BRANCH   9  10
ATOM     10  C   UNL     1      37.234  -1.961  14.546  0.00  0.00    +0.000 C 
ATOM     11  O   UNL     1      36.240  -2.612  14.135  0.00  0.00    +0.000 OA
ATOM     12  N   UNL     1      37.214  -1.522  15.882  0.00  0.00    +0.000 NA
BRANCH  12  13
ATOM     13  C   UNL     1      36.180  -1.732  16.845  0.00  0.00    +0.000 C 
ATOM     14  C   UNL     1      36.661  -2.307  18.141  0.00  0.00    +0.000 C 
ATOM     15  C   UNL     1      37.135  -1.234  19.107  0.00  0.00    +0.000 C 
ATOM     16  C   UNL     1      35.920  -0.353  19.382  0.00  0.00    +0.000 C 
ATOM     17  C   UNL     1      35.535   0.340  18.115  0.00  0.00    +0.000 C 
ATOM     18  C   UNL     1      35.215  -0.606  16.989  0.00  0.00    +0.000 C 
ENDBRANCH  12  13
ENDBRANCH   9  10
ENDBRANCH   3   4
BRANCH   2  19
ATOM     19  C   UNL     1      37.097   2.601  15.125  0.00  0.00    +0.000 C 
BRANCH  19  20
ATOM     20  O   UNL     1      37.557   3.862  14.727  0.00  0.00    +0.000 OA
BRANCH  20  21
ATOM     21  C   UNL     1      38.508   4.517  15.490  0.00  0.00    +0.000 A 
ATOM     22  C   UNL     1      39.626   4.995  14.811  0.00  0.00    +0.000 A 
ATOM     23  C   UNL     1      40.569   5.645  15.547  0.00  0.00    +0.000 A 
ATOM     24  C   UNL     1      40.492   5.854  16.893  0.00  0.00    +0.000 A 
ATOM     25  C   UNL     1      41.459   6.512  17.617  0.00  0.00    +0.000 A 
ATOM     26  C   UNL     1      41.346   6.703  18.975  0.00  0.00    +0.000 A 
ATOM     27  C   UNL     1      40.224   6.223  19.657  0.00  0.00    +0.000 A 
ATOM     28  C   UNL     1      39.265   5.565  18.929  0.00  0.00    +0.000 A 
ATOM     29  C   UNL     1      39.390   5.381  17.570  0.00  0.00    +0.000 A 
ATOM     30  C   UNL     1      38.404   4.713  16.850  0.00  0.00    +0.000 A 
ENDBRANCH  20  21
ENDBRANCH  19  20
ENDBRANCH   2  19
TORSDOF 6
ENDMDL
MODEL 7
REMARK VINA RESULT:      -6.7      2.863      7.118
REMARK  Name = 
REMARK  6 active torsions:
REMARK  status: ('A' for Active; 'I' for Inactive)
REMARK    1  A    between atoms: C_2  and  C_3
REMARK    2  A    between atoms: C_3  and  O_4
REMARK    3  A    between atoms: O_4  and  C_5
REMARK    4  A    between atoms: N_15  and  C_16
REMARK    5  A    between atoms: C_21  and  C_22
REMARK    6  A    between atoms: N_24  and  C_25
REMARK                            x       y       z     vdW  Elec       q    Type
REMARK                         _______ _______ _______ _____ _____    ______ ____
ROOT
ATOM      1  O   UNL     1      36.274   4.191  14.894  0.00  0.00    +0.000 OA
ATOM      2  C   UNL     1      37.386   4.146  15.486  0.00  0.00    +0.000 C 
ATOM      3  N   UNL     1      37.749   2.964  16.208  0.00  0.00    +0.000 NA
ENDROOT
BRANCH   3   4
ATOM      4  C   UNL     1      36.861   1.852  16.251  0.00  0.00    +0.000 A 
ATOM      5  C   UNL     1      35.723   1.844  17.043  0.00  0.00    +0.000 A 
ATOM      6  C   UNL     1      34.900   0.751  17.043  0.00  0.00    +0.000 A 
ATOM      7  C   UNL     1      35.171  -0.365  16.265  0.00  0.00    +0.000 A 
ATOM      8  C   UNL     1      36.314  -0.331  15.483  0.00  0.00    +0.000 A 
ATOM      9  C   UNL     1      37.162   0.748  15.459  0.00  0.00    +0.000 A 
BRANCH   9  10
ATOM     10  C   UNL     1      38.376   0.759  14.626  0.00  0.00    +0.000 C 
ATOM     11  O   UNL     1      39.476   0.367  15.090  0.00  0.00    +0.000 OA
ATOM     12  N   UNL     1      38.357   1.203  13.291  0.00  0.00    +0.000 NA
BRANCH  12  13
ATOM     13  C   UNL     1      39.459   1.262  12.385  0.00  0.00    +0.000 C 
ATOM     14  C   UNL     1      39.295   0.407  11.167  0.00  0.00    +0.000 C 
ATOM     15  C   UNL     1      38.540   1.121  10.059  0.00  0.00    +0.000 C 
ATOM     16  C   UNL     1      39.386   2.336   9.693  0.00  0.00    +0.000 C 
ATOM     17  C   UNL     1      39.422   3.265  10.864  0.00  0.00    +0.000 C 
ATOM     18  C   UNL     1      39.977   2.632  12.111  0.00  0.00    +0.000 C 
ENDBRANCH  12  13
ENDBRANCH   9  10
ENDBRANCH   3   4
BRANCH   2  19
ATOM     19  C   UNL     1      38.291   5.328  15.412  0.00  0.00    +0.000 C 
BRANCH  19  20
ATOM     20  O   UNL     1      38.171   6.107  16.570  0.00  0.00    +0.000 OA
BRANCH  20  21
ATOM     21  C   UNL     1      39.249   6.227  17.429  0.00  0.00    +0.000 A 
ATOM     22  C   UNL     1      38.968   6.143  18.791  0.00  0.00    +0.000 A 
ATOM     23  C   UNL     1      40.018   6.255  19.650  0.00  0.00    +0.000 A 
ATOM     24  C   UNL     1      41.315   6.444  19.267  0.00  0.00    +0.000 A 
ATOM     25  C   UNL     1      42.359   6.556  20.153  0.00  0.00    +0.000 A 
ATOM     26  C   UNL     1      43.655   6.747  19.730  0.00  0.00    +0.000 A 
ATOM     27  C   UNL     1      43.937   6.831  18.363  0.00  0.00    +0.000 A 
ATOM     28  C   UNL     1      42.889   6.721  17.484  0.00  0.00    +0.000 A 
ATOM     29  C   UNL     1      41.597   6.529  17.922  0.00  0.00    +0.000 A 
ATOM     30  C   UNL     1      40.549   6.418  17.013  0.00  0.00    +0.000 A 
ENDBRANCH  20  21
ENDBRANCH  19  20
ENDBRANCH   2  19
TORSDOF 6
ENDMDL
MODEL 8
REMARK VINA RESULT:      -6.7      2.192      7.290
REMARK  Name = 
REMARK  6 active torsions:
REMARK  status: ('A' for Active; 'I' for Inactive)
REMARK    1  A    between atoms: C_2  and  C_3
REMARK    2  A    between atoms: C_3  and  O_4
REMARK    3  A    between atoms: O_4  and  C_5
REMARK    4  A    between atoms: N_15  and  C_16
REMARK    5  A    between atoms: C_21  and  C_22
REMARK    6  A    between atoms: N_24  and  C_25
REMARK                            x       y       z     vdW  Elec       q    Type
REMARK                         _______ _______ _______ _____ _____    ______ ____
ROOT
ATOM      1  O   UNL     1      35.311   2.021  15.064  0.00  0.00    +0.000 OA
ATOM      2  C   UNL     1      36.284   2.228  15.838  0.00  0.00    +0.000 C 
ATOM      3  N   UNL     1      36.697   1.194  16.737  0.00  0.00    +0.000 NA
ENDROOT
BRANCH   3   4
ATOM      4  C   UNL     1      36.015  -0.055  16.752  0.00  0.00    +0.000 A 
ATOM      5  C   UNL     1      34.748  -0.199  17.295  0.00  0.00    +0.000 A 
ATOM      6  C   UNL     1      34.133  -1.421  17.279  0.00  0.00    +0.000 A 
ATOM      7  C   UNL     1      34.747  -2.537  16.729  0.00  0.00    +0.000 A 
ATOM      8  C   UNL     1      36.013  -2.366  16.193  0.00  0.00    +0.000 A 
ATOM      9  C   UNL     1      36.658  -1.154  16.192  0.00  0.00    +0.000 A 
BRANCH   9  10
ATOM     10  C   UNL     1      38.007  -0.997  15.624  0.00  0.00    +0.000 C 
ATOM     11  O   UNL     1      39.022  -1.018  16.365  0.00  0.00    +0.000 OA
ATOM     12  N   UNL     1      38.216  -0.820  14.244  0.00  0.00    +0.000 NA
BRANCH  12  13
ATOM     13  C   UNL     1      39.466  -0.658  13.574  0.00  0.00    +0.000 C 
ATOM     14  C   UNL     1      40.120  -1.946  13.179  0.00  0.00    +0.000 C 
ATOM     15  C   UNL     1      39.634  -2.449  11.831  0.00  0.00    +0.000 C 
ATOM     16  C   UNL     1      40.020  -1.375  10.819  0.00  0.00    +0.000 C 
ATOM     17  C   UNL     1      39.248  -0.132  11.124  0.00  0.00    +0.000 C 
ATOM     18  C   UNL     1      39.483   0.391  12.516  0.00  0.00    +0.000 C 
ENDBRANCH  12  13
ENDBRANCH   9  10
ENDBRANCH   3   4
BRANCH   2  19
ATOM     19  C   UNL     1      36.978   3.547  15.787  0.00  0.00    +0.000 C 
BRANCH  19  20
ATOM     20  O   UNL     1      37.986   3.605  16.758  0.00  0.00    +0.000 OA
BRANCH  20  21
ATOM     21  C   UNL     1      38.347   4.827  17.298  0.00  0.00    +0.000 A 
ATOM     22  C   UNL     1      38.935   4.798  18.559  0.00  0.00    +0.000 A 
ATOM     23  C   UNL     1      39.300   5.991  19.103  0.00  0.00    +0.000 A 
ATOM     24  C   UNL     1      39.125   7.203  18.499  0.00  0.00    +0.000 A 
ATOM     25  C   UNL     1      39.500   8.397  19.068  0.00  0.00    +0.000 A 
ATOM     26  C   UNL     1      39.308   9.600  18.427  0.00  0.00    +0.000 A 
ATOM     27  C   UNL     1      38.717   9.630  17.161  0.00  0.00    +0.000 A 
ATOM     28  C   UNL     1      38.343   8.434  16.599  0.00  0.00    +0.000 A 
ATOM     29  C   UNL     1      38.542   7.238  17.252  0.00  0.00    +0.000 A 
ATOM     30  C   UNL     1      38.157   6.036  16.663  0.00  0.00    +0.000 A 
ENDBRANCH  20  21
ENDBRANCH  19  20
ENDBRANCH   2  19
TORSDOF 6
ENDMDL
MODEL 9
REMARK VINA RESULT:      -6.7      3.033      5.701
REMARK  Name = 
REMARK  6 active torsions:
REMARK  status: ('A' for Active; 'I' for Inactive)
REMARK    1  A    between atoms: C_2  and  C_3
REMARK    2  A    between atoms: C_3  and  O_4
REMARK    3  A    between atoms: O_4  and  C_5
REMARK    4  A    between atoms: N_15  and  C_16
REMARK    5  A    between atoms: C_21  and  C_22
REMARK    6  A    between atoms: N_24  and  C_25
REMARK                            x       y       z     vdW  Elec       q    Type
REMARK                         _______ _______ _______ _____ _____    ______ ____
ROOT
ATOM      1  O   UNL     1      39.607   4.079  15.420  0.00  0.00    +0.000 OA
ATOM      2  C   UNL     1      38.372   3.980  15.653  0.00  0.00    +0.000 C 
ATOM      3  N   UNL     1      37.792   4.757  16.706  0.00  0.00    +0.000 NA
ENDROOT
BRANCH   3   4
ATOM      4  C   UNL     1      38.604   5.635  17.477  0.00  0.00    +0.000 A 
ATOM      5  C   UNL     1      39.176   5.249  18.679  0.00  0.00    +0.000 A 
ATOM      6  C   UNL     1      39.954   6.131  19.379  0.00  0.00    +0.000 A 
ATOM      7  C   UNL     1      40.192   7.417  18.917  0.00  0.00    +0.000 A 
ATOM      8  C   UNL     1      39.609   7.777  17.713  0.00  0.00    +0.000 A 
ATOM      9  C   UNL     1      38.824   6.918  16.985  0.00  0.00    +0.000 A 
BRANCH   9  10
ATOM     10  C   UNL     1      38.208   7.325  15.711  0.00  0.00    +0.000 C 
ATOM     11  O   UNL     1      38.890   7.375  14.656  0.00  0.00    +0.000 OA
ATOM     12  N   UNL     1      36.848   7.671  15.621  0.00  0.00    +0.000 NA
BRANCH  12  13
ATOM     13  C   UNL     1      36.137   8.079  14.452  0.00  0.00    +0.000 C 
ATOM     14  C   UNL     1      35.973   7.000  13.427  0.00  0.00    +0.000 C 
ATOM     15  C   UNL     1      34.750   6.138  13.688  0.00  0.00    +0.000 C 
ATOM     16  C   UNL     1      33.551   7.077  13.603  0.00  0.00    +0.000 C 
ATOM     17  C   UNL     1      33.636   8.064  14.724  0.00  0.00    +0.000 C 
ATOM     18  C   UNL     1      34.904   8.875  14.710  0.00  0.00    +0.000 C 
ENDBRANCH  12  13
ENDBRANCH   9  10
ENDBRANCH   3   4
BRANCH   2  19
ATOM     19  C   UNL     1      37.554   3.054  14.818  0.00  0.00    +0.000 C 
BRANCH  19  20
ATOM     20  O   UNL     1      36.325   2.796  15.439  0.00  0.00    +0.000 OA
BRANCH  20  21
ATOM     21  C   UNL     1      35.971   1.492  15.740  0.00  0.00    +0.000 A 
ATOM     22  C   UNL     1      35.096   1.319  16.810  0.00  0.00    +0.000 A 
ATOM     23  C   UNL     1      34.736   0.042  17.117  0.00  0.00    +0.000 A 
ATOM     24  C   UNL     1      35.173  -1.067  16.453  0.00  0.00    +0.000 A 
ATOM     25  C   UNL     1      34.796  -2.347  16.782  0.00  0.00    +0.000 A 
ATOM     26  C   UNL     1      35.259  -3.442  16.088  0.00  0.00    +0.000 A 
ATOM     27  C   UNL     1      36.138  -3.269  15.015  0.00  0.00    +0.000 A 
ATOM     28  C   UNL     1      36.512  -1.988  14.693  0.00  0.00    +0.000 A 
ATOM     29  C   UNL     1      36.040  -0.901  15.396  0.00  0.00    +0.000 A 
ATOM     30  C   UNL     1      36.431   0.390  15.052  0.00  0.00    +0.000 A 
ENDBRANCH  20  21
ENDBRANCH  19  20
ENDBRANCH   2  19
TORSDOF 6
ENDMDL
MODEL 10
REMARK VINA RESULT:      -6.6      2.423      6.957
REMARK  Name = 
REMARK  6 active torsions:
REMARK  status: ('A' for Active; 'I' for Inactive)
REMARK    1  A    between atoms: C_2  and  C_3
REMARK    2  A    between atoms: C_3  and  O_4
REMARK    3  A    between atoms: O_4  and  C_5
REMARK    4  A    between atoms: N_15  and  C_16
REMARK    5  A    between atoms: C_21  and  C_22
REMARK    6  A    between atoms: N_24  and  C_25
REMARK                            x       y       z     vdW  Elec       q    Type
REMARK                         _______ _______ _______ _____ _____    ______ ____
ROOT
ATOM      1  O   UNL     1      36.797   0.500  11.855  0.00  0.00    +0.000 OA
ATOM      2  C   UNL     1      37.517   0.788  12.849  0.00  0.00    +0.000 C 
ATOM      3  N   UNL     1      38.869   0.320  12.896  0.00  0.00    +0.000 NA
ENDROOT
BRANCH   3   4
ATOM      4  C   UNL     1      39.392  -0.460  11.827  0.00  0.00    +0.000 A 
ATOM      5  C   UNL     1      39.729   0.094  10.602  0.00  0.00    +0.000 A 
ATOM      6  C   UNL     1      40.233  -0.700   9.609  0.00  0.00    +0.000 A 
ATOM      7  C   UNL     1      40.421  -2.062   9.791  0.00  0.00    +0.000 A 
ATOM      8  C   UNL     1      40.077  -2.592  11.024  0.00  0.00    +0.000 A 
ATOM      9  C   UNL     1      39.569  -1.823  12.042  0.00  0.00    +0.000 A 
BRANCH   9  10
ATOM     10  C   UNL     1      39.202  -2.408  13.343  0.00  0.00    +0.000 C 
ATOM     11  O   UNL     1      40.082  -2.657  14.206  0.00  0.00    +0.000 OA
ATOM     12  N   UNL     1      37.869  -2.711  13.672  0.00  0.00    +0.000 NA
BRANCH  12  13
ATOM     13  C   UNL     1      37.387  -3.276  14.892  0.00  0.00    +0.000 C 
ATOM     14  C   UNL     1      37.042  -2.264  15.940  0.00  0.00    +0.000 C 
ATOM     15  C   UNL     1      35.621  -1.746  15.795  0.00  0.00    +0.000 C 
ATOM     16  C   UNL     1      34.714  -2.959  15.969  0.00  0.00    +0.000 C 
ATOM     17  C   UNL     1      34.952  -3.901  14.833  0.00  0.00    +0.000 C 
ATOM     18  C   UNL     1      36.380  -4.363  14.729  0.00  0.00    +0.000 C 
ENDBRANCH  12  13
ENDBRANCH   9  10
ENDBRANCH   3   4
BRANCH   2  19
ATOM     19  C   UNL     1      36.934   1.614  13.945  0.00  0.00    +0.000 C 
BRANCH  19  20
ATOM     20  O   UNL     1      37.431   2.922  13.886  0.00  0.00    +0.000 OA
BRANCH  20  21
ATOM     21  C   UNL     1      37.874   3.539  15.044  0.00  0.00    +0.000 A 
ATOM     22  C   UNL     1      37.143   3.283  16.201  0.00  0.00    +0.000 A 
ATOM     23  C   UNL     1      37.568   3.879  17.349  0.00  0.00    +0.000 A 
ATOM     24  C   UNL     1      38.652   4.704  17.437  0.00  0.00    +0.000 A 
ATOM     25  C   UNL     1      39.062   5.297  18.608  0.00  0.00    +0.000 A 
ATOM     26  C   UNL     1      40.161   6.123  18.658  0.00  0.00    +0.000 A 
ATOM     27  C   UNL     1      40.895   6.380  17.496  0.00  0.00    +0.000 A 
ATOM     28  C   UNL     1      40.479   5.787  16.331  0.00  0.00    +0.000 A 
ATOM     29  C   UNL     1      39.377   4.961  16.295  0.00  0.00    +0.000 A 
ATOM     30  C   UNL     1      38.973   4.368  15.102  0.00  0.00    +0.000 A 
ENDBRANCH  20  21
ENDBRANCH  19  20
ENDBRANCH   2  19
TORSDOF 6
ENDMDL
