MODEL 1
REMARK VINA RESULT:      -6.4      0.000      0.000
REMARK  Name = 
REMARK  2 active torsions:
REMARK  status: ('A' for Active; 'I' for Inactive)
REMARK    1  A    between atoms: C_2  and  C_4
REMARK    2  A    between atoms: C_2  and  C_11
REMARK                            x       y       z     vdW  Elec       q    Type
REMARK                         _______ _______ _______ _____ _____    ______ ____
ROOT
ATOM      1  C   UNL     1      31.178  20.094  12.004  0.00  0.00    +0.000 C 
ATOM      2  C   UNL     1      30.581  21.085  11.002  0.00  0.00    +0.000 C 
ATOM      3  C   UNL     1      29.783  20.248  10.025  0.00  0.00    +0.000 C 
ENDROOT
BRANCH   2   4
ATOM      4  C   UNL     1      29.706  21.990  11.747  0.00  0.00    +0.000 A 
ATOM      5  C   UNL     1      28.439  22.265  11.278  0.00  0.00    +0.000 A 
ATOM      6  C   UNL     1      27.656  23.126  12.024  0.00  0.00    +0.000 A 
ATOM      7  C   UNL     1      28.071  23.717  13.197  0.00  0.00    +0.000 A 
ATOM      8  O   UNL     1      27.295  24.582  13.952  0.00  0.00    +0.000 OA
ATOM      9  C   UNL     1      29.338  23.431  13.651  0.00  0.00    +0.000 A 
ATOM     10  C   UNL     1      30.128  22.568  12.907  0.00  0.00    +0.000 A 
ENDBRANCH   2   4
BRANCH   2  11
ATOM     11  C   UNL     1      31.657  21.830  10.316  0.00  0.00    +0.000 A 
ATOM     12  C   UNL     1      32.855  22.102  10.923  0.00  0.00    +0.000 A 
ATOM     13  C   UNL     1      33.895  22.797  10.321  0.00  0.00    +0.000 A 
ATOM     14  C   UNL     1      33.701  23.239   9.026  0.00  0.00    +0.000 A 
ATOM     15  O   UNL     1      34.746  23.934   8.430  0.00  0.00    +0.000 OA
ATOM     16  C   UNL     1      32.511  22.982   8.392  0.00  0.00    +0.000 A 
ATOM     17  C   UNL     1      31.479  22.283   9.012  0.00  0.00    +0.000 A 
ENDBRANCH   2  11
TORSDOF 2
ENDMDL
MODEL 2
REMARK VINA RESULT:      -6.1      1.851      2.761
REMARK  Name = 
REMARK  2 active torsions:
REMARK  status: ('A' for Active; 'I' for Inactive)
REMARK    1  A    between atoms: C_2  and  C_4
REMARK    2  A    between atoms: C_2  and  C_11
REMARK                            x       y       z     vdW  Elec       q    Type
REMARK                         _______ _______ _______ _____ _____    ______ ____
ROOT
ATOM      1  C   UNL     1      32.043  22.221  11.550  0.00  0.00    +0.000 C 
ATOM      2  C   UNL     1      30.833  21.449  11.019  0.00  0.00    +0.000 C 
ATOM      3  C   UNL     1      30.934  20.064  11.624  0.00  0.00    +0.000 C 
ENDROOT
BRANCH   2   4
ATOM      4  C   UNL     1      29.632  22.136  11.491  0.00  0.00    +0.000 A 
ATOM      5  C   UNL     1      29.731  23.110  12.461  0.00  0.00    +0.000 A 
ATOM      6  C   UNL     1      28.563  23.728  12.868  0.00  0.00    +0.000 A 
ATOM      7  C   UNL     1      27.319  23.423  12.360  0.00  0.00    +0.000 A 
ATOM      8  O   UNL     1      26.142  24.034  12.761  0.00  0.00    +0.000 OA
ATOM      9  C   UNL     1      27.238  22.448  11.393  0.00  0.00    +0.000 A 
ATOM     10  C   UNL     1      28.406  21.825  10.981  0.00  0.00    +0.000 A 
ENDBRANCH   2   4
BRANCH   2  11
ATOM     11  C   UNL     1      30.870  21.393   9.543  0.00  0.00    +0.000 A 
ATOM     12  C   UNL     1      30.491  20.276   8.848  0.00  0.00    +0.000 A 
ATOM     13  C   UNL     1      30.508  20.175   7.463  0.00  0.00    +0.000 A 
ATOM     14  C   UNL     1      30.934  21.278   6.749  0.00  0.00    +0.000 A 
ATOM     15  O   UNL     1      30.948  21.170   5.363  0.00  0.00    +0.000 OA
ATOM     16  C   UNL     1      31.319  22.413   7.418  0.00  0.00    +0.000 A 
ATOM     17  C   UNL     1      31.296  22.496   8.808  0.00  0.00    +0.000 A 
ENDBRANCH   2  11
TORSDOF 2
ENDMDL
MODEL 3
REMARK VINA RESULT:      -6.0     30.105     32.691
REMARK  Name = 
REMARK  2 active torsions:
REMARK  status: ('A' for Active; 'I' for Inactive)
REMARK    1  A    between atoms: C_2  and  C_4
REMARK    2  A    between atoms: C_2  and  C_11
REMARK                            x       y       z     vdW  Elec       q    Type
REMARK                         _______ _______ _______ _____ _____    ______ ____
ROOT
ATOM      1  C   UNL     1      20.374   9.843  37.492  0.00  0.00    +0.000 C 
ATOM      2  C   UNL     1      18.999  10.397  37.871  0.00  0.00    +0.000 C 
ATOM      3  C   UNL     1      19.249  11.799  38.385  0.00  0.00    +0.000 C 
ENDROOT
BRANCH   2   4
ATOM      4  C   UNL     1      18.187  10.427  36.654  0.00  0.00    +0.000 A 
ATOM      5  C   UNL     1      18.246   9.378  35.761  0.00  0.00    +0.000 A 
ATOM      6  C   UNL     1      17.457   9.459  34.629  0.00  0.00    +0.000 A 
ATOM      7  C   UNL     1      16.624  10.521  34.351  0.00  0.00    +0.000 A 
ATOM      8  O   UNL     1      15.829  10.613  33.219  0.00  0.00    +0.000 OA
ATOM      9  C   UNL     1      16.578  11.559  35.253  0.00  0.00    +0.000 A 
ATOM     10  C   UNL     1      17.367  11.483  36.389  0.00  0.00    +0.000 A 
ENDBRANCH   2   4
BRANCH   2  11
ATOM     11  C   UNL     1      18.373   9.549  38.907  0.00  0.00    +0.000 A 
ATOM     12  C   UNL     1      17.228   9.923  39.559  0.00  0.00    +0.000 A 
ATOM     13  C   UNL     1      16.603   9.162  40.538  0.00  0.00    +0.000 A 
ATOM     14  C   UNL     1      17.181   7.951  40.869  0.00  0.00    +0.000 A 
ATOM     15  O   UNL     1      16.550   7.195  41.850  0.00  0.00    +0.000 OA
ATOM     16  C   UNL     1      18.328   7.550  40.233  0.00  0.00    +0.000 A 
ATOM     17  C   UNL     1      18.941   8.326  39.253  0.00  0.00    +0.000 A 
ENDBRANCH   2  11
TORSDOF 2
ENDMDL
MODEL 4
REMARK VINA RESULT:      -5.9     33.455     34.989
REMARK  Name = 
REMARK  2 active torsions:
REMARK  status: ('A' for Active; 'I' for Inactive)
REMARK    1  A    between atoms: C_2  and  C_4
REMARK    2  A    between atoms: C_2  and  C_11
REMARK                            x       y       z     vdW  Elec       q    Type
REMARK                         _______ _______ _______ _____ _____    ______ ____
ROOT
ATOM      1  C   UNL     1      33.166  -6.646  34.080  0.00  0.00    +0.000 C 
ATOM      2  C   UNL     1      33.926  -5.498  33.411  0.00  0.00    +0.000 C 
ATOM      3  C   UNL     1      35.376  -5.681  33.807  0.00  0.00    +0.000 C 
ENDROOT
BRANCH   2   4
ATOM      4  C   UNL     1      33.759  -5.645  31.966  0.00  0.00    +0.000 A 
ATOM      5  C   UNL     1      34.867  -5.731  31.150  0.00  0.00    +0.000 A 
ATOM      6  C   UNL     1      34.651  -5.870  29.791  0.00  0.00    +0.000 A 
ATOM      7  C   UNL     1      33.399  -5.926  29.218  0.00  0.00    +0.000 A 
ATOM      8  O   UNL     1      33.171  -6.064  27.858  0.00  0.00    +0.000 OA
ATOM      9  C   UNL     1      32.305  -5.838  30.046  0.00  0.00    +0.000 A 
ATOM     10  C   UNL     1      32.516  -5.699  31.409  0.00  0.00    +0.000 A 
ENDBRANCH   2   4
BRANCH   2  11
ATOM     11  C   UNL     1      33.402  -4.198  33.878  0.00  0.00    +0.000 A 
ATOM     12  C   UNL     1      33.907  -3.007  33.427  0.00  0.00    +0.000 A 
ATOM     13  C   UNL     1      33.449  -1.761  33.835  0.00  0.00    +0.000 A 
ATOM     14  C   UNL     1      32.417  -1.730  34.754  0.00  0.00    +0.000 A 
ATOM     15  O   UNL     1      31.964  -0.480  35.157  0.00  0.00    +0.000 OA
ATOM     16  C   UNL     1      31.891  -2.908  35.223  0.00  0.00    +0.000 A 
ATOM     17  C   UNL     1      32.363  -4.148  34.802  0.00  0.00    +0.000 A 
ENDBRANCH   2  11
TORSDOF 2
ENDMDL
MODEL 5
REMARK VINA RESULT:      -5.8     33.469     34.744
REMARK  Name = 
REMARK  2 active torsions:
REMARK  status: ('A' for Active; 'I' for Inactive)
REMARK    1  A    between atoms: C_2  and  C_4
REMARK    2  A    between atoms: C_2  and  C_11
REMARK                            x       y       z     vdW  Elec       q    Type
REMARK                         _______ _______ _______ _____ _____    ______ ____
ROOT
ATOM      1  C   UNL     1      35.218  -5.654  33.886  0.00  0.00    +0.000 C 
ATOM      2  C   UNL     1      33.751  -5.523  33.470  0.00  0.00    +0.000 C 
ATOM      3  C   UNL     1      33.019  -6.633  34.195  0.00  0.00    +0.000 C 
ENDROOT
BRANCH   2   4
ATOM      4  C   UNL     1      33.283  -4.212  33.917  0.00  0.00    +0.000 A 
ATOM      5  C   UNL     1      32.265  -4.123  34.843  0.00  0.00    +0.000 A 
ATOM      6  C   UNL     1      31.864  -2.858  35.231  0.00  0.00    +0.000 A 
ATOM      7  C   UNL     1      32.421  -1.695  34.744  0.00  0.00    +0.000 A 
ATOM      8  O   UNL     1      32.026  -0.423  35.125  0.00  0.00    +0.000 OA
ATOM      9  C   UNL     1      33.435  -1.803  33.821  0.00  0.00    +0.000 A 
ATOM     10  C   UNL     1      33.841  -3.069  33.429  0.00  0.00    +0.000 A 
ENDBRANCH   2   4
BRANCH   2  11
ATOM     11  C   UNL     1      33.621  -5.663  32.004  0.00  0.00    +0.000 A 
ATOM     12  C   UNL     1      32.401  -5.758  31.388  0.00  0.00    +0.000 A 
ATOM     13  C   UNL     1      32.227  -5.891  30.017  0.00  0.00    +0.000 A 
ATOM     14  C   UNL     1      33.364  -5.928  29.232  0.00  0.00    +0.000 A 
ATOM     15  O   UNL     1      33.182  -6.061  27.860  0.00  0.00    +0.000 OA
ATOM     16  C   UNL     1      34.600  -5.835  29.820  0.00  0.00    +0.000 A 
ATOM     17  C   UNL     1      34.755  -5.702  31.198  0.00  0.00    +0.000 A 
ENDBRANCH   2  11
TORSDOF 2
ENDMDL
MODEL 6
REMARK VINA RESULT:      -5.7     12.081     15.209
REMARK  Name = 
REMARK  2 active torsions:
REMARK  status: ('A' for Active; 'I' for Inactive)
REMARK    1  A    between atoms: C_2  and  C_4
REMARK    2  A    between atoms: C_2  and  C_11
REMARK                            x       y       z     vdW  Elec       q    Type
REMARK                         _______ _______ _______ _____ _____    ______ ____
ROOT
ATOM      1  C   UNL     1      27.098  25.240  26.180  0.00  0.00    +0.000 C 
ATOM      2  C   UNL     1      27.728  23.940  25.676  0.00  0.00    +0.000 C 
ATOM      3  C   UNL     1      26.599  22.933  25.618  0.00  0.00    +0.000 C 
ENDROOT
BRANCH   2   4
ATOM      4  C   UNL     1      28.262  24.200  24.339  0.00  0.00    +0.000 A 
ATOM      5  C   UNL     1      29.157  25.230  24.143  0.00  0.00    +0.000 A 
ATOM      6  C   UNL     1      29.630  25.430  22.860  0.00  0.00    +0.000 A 
ATOM      7  C   UNL     1      29.256  24.661  21.778  0.00  0.00    +0.000 A 
ATOM      8  O   UNL     1      29.723  24.852  20.488  0.00  0.00    +0.000 OA
ATOM      9  C   UNL     1      28.363  23.637  21.992  0.00  0.00    +0.000 A 
ATOM     10  C   UNL     1      27.885  23.433  23.277  0.00  0.00    +0.000 A 
ENDBRANCH   2   4
BRANCH   2  11
ATOM     11  C   UNL     1      28.795  23.497  26.598  0.00  0.00    +0.000 A 
ATOM     12  C   UNL     1      29.550  22.381  26.354  0.00  0.00    +0.000 A 
ATOM     13  C   UNL     1      30.562  21.925  27.188  0.00  0.00    +0.000 A 
ATOM     14  C   UNL     1      30.817  22.652  28.336  0.00  0.00    +0.000 A 
ATOM     15  O   UNL     1      31.832  22.191  29.167  0.00  0.00    +0.000 OA
ATOM     16  C   UNL     1      30.077  23.776  28.607  0.00  0.00    +0.000 A 
ATOM     17  C   UNL     1      29.065  24.217  27.758  0.00  0.00    +0.000 A 
ENDBRANCH   2  11
TORSDOF 2
ENDMDL
MODEL 7
REMARK VINA RESULT:      -5.7     13.585     16.590
REMARK  Name = 
REMARK  2 active torsions:
REMARK  status: ('A' for Active; 'I' for Inactive)
REMARK    1  A    between atoms: C_2  and  C_4
REMARK    2  A    between atoms: C_2  and  C_11
REMARK                            x       y       z     vdW  Elec       q    Type
REMARK                         _______ _______ _______ _____ _____    ______ ____
ROOT
ATOM      1  C   UNL     1      27.056  26.238  27.155  0.00  0.00    +0.000 C 
ATOM      2  C   UNL     1      27.627  24.847  26.870  0.00  0.00    +0.000 C 
ATOM      3  C   UNL     1      29.131  25.019  26.844  0.00  0.00    +0.000 C 
ENDROOT
BRANCH   2   4
ATOM      4  C   UNL     1      27.223  23.973  27.970  0.00  0.00    +0.000 A 
ATOM      5  C   UNL     1      27.710  22.685  28.042  0.00  0.00    +0.000 A 
ATOM      6  C   UNL     1      27.296  21.903  29.104  0.00  0.00    +0.000 A 
ATOM      7  C   UNL     1      26.430  22.339  30.083  0.00  0.00    +0.000 A 
ATOM      8  O   UNL     1      26.008  21.564  31.151  0.00  0.00    +0.000 OA
ATOM      9  C   UNL     1      25.954  23.627  29.997  0.00  0.00    +0.000 A 
ATOM     10  C   UNL     1      26.366  24.415  28.934  0.00  0.00    +0.000 A 
ENDBRANCH   2   4
BRANCH   2  11
ATOM     11  C   UNL     1      27.122  24.342  25.576  0.00  0.00    +0.000 A 
ATOM     12  C   UNL     1      25.783  24.249  25.305  0.00  0.00    +0.000 A 
ATOM     13  C   UNL     1      25.260  23.782  24.107  0.00  0.00    +0.000 A 
ATOM     14  C   UNL     1      26.156  23.390  23.130  0.00  0.00    +0.000 A 
ATOM     15  O   UNL     1      25.625  22.923  21.933  0.00  0.00    +0.000 OA
ATOM     16  C   UNL     1      27.504  23.472  23.373  0.00  0.00    +0.000 A 
ATOM     17  C   UNL     1      28.010  23.943  24.582  0.00  0.00    +0.000 A 
ENDBRANCH   2  11
TORSDOF 2
ENDMDL
MODEL 8
REMARK VINA RESULT:      -5.7     30.182     32.412
REMARK  Name = 
REMARK  2 active torsions:
REMARK  status: ('A' for Active; 'I' for Inactive)
REMARK    1  A    between atoms: C_2  and  C_4
REMARK    2  A    between atoms: C_2  and  C_11
REMARK                            x       y       z     vdW  Elec       q    Type
REMARK                         _______ _______ _______ _____ _____    ______ ____
ROOT
ATOM      1  C   UNL     1      18.104   9.215  36.292  0.00  0.00    +0.000 C 
ATOM      2  C   UNL     1      18.405  10.155  37.462  0.00  0.00    +0.000 C 
ATOM      3  C   UNL     1      17.543  11.379  37.235  0.00  0.00    +0.000 C 
ENDROOT
BRANCH   2   4
ATOM      4  C   UNL     1      18.016   9.466  38.691  0.00  0.00    +0.000 A 
ATOM      5  C   UNL     1      16.947   9.925  39.431  0.00  0.00    +0.000 A 
ATOM      6  C   UNL     1      16.623   9.235  40.584  0.00  0.00    +0.000 A 
ATOM      7  C   UNL     1      17.307   8.123  41.027  0.00  0.00    +0.000 A 
ATOM      8  O   UNL     1      16.992   7.424  42.181  0.00  0.00    +0.000 OA
ATOM      9  C   UNL     1      18.371   7.679  40.277  0.00  0.00    +0.000 A 
ATOM     10  C   UNL     1      18.700   8.368  39.120  0.00  0.00    +0.000 A 
ENDBRANCH   2   4
BRANCH   2  11
ATOM     11  C   UNL     1      19.840  10.506  37.479  0.00  0.00    +0.000 A 
ATOM     12  C   UNL     1      20.326  11.544  38.230  0.00  0.00    +0.000 A 
ATOM     13  C   UNL     1      21.664  11.912  38.279  0.00  0.00    +0.000 A 
ATOM     14  C   UNL     1      22.556  11.178  37.520  0.00  0.00    +0.000 A 
ATOM     15  O   UNL     1      23.893  11.552  37.574  0.00  0.00    +0.000 OA
ATOM     16  C   UNL     1      22.098  10.132  36.758  0.00  0.00    +0.000 A 
ATOM     17  C   UNL     1      20.752   9.777  36.721  0.00  0.00    +0.000 A 
ENDBRANCH   2  11
TORSDOF 2
ENDMDL
MODEL 9
REMARK VINA RESULT:      -5.6     13.421     16.309
REMARK  Name = 
REMARK  2 active torsions:
REMARK  status: ('A' for Active; 'I' for Inactive)
REMARK    1  A    between atoms: C_2  and  C_4
REMARK    2  A    between atoms: C_2  and  C_11
REMARK                            x       y       z     vdW  Elec       q    Type
REMARK                         _______ _______ _______ _____ _____    ______ ____
ROOT
ATOM      1  C   UNL     1      29.812  24.519  26.500  0.00  0.00    +0.000 C 
ATOM      2  C   UNL     1      28.851  23.335  26.637  0.00  0.00    +0.000 C 
ATOM      3  C   UNL     1      29.730  22.107  26.753  0.00  0.00    +0.000 C 
ENDROOT
BRANCH   2   4
ATOM      4  C   UNL     1      28.076  23.537  27.861  0.00  0.00    +0.000 A 
ATOM      5  C   UNL     1      27.813  22.470  28.694  0.00  0.00    +0.000 A 
ATOM      6  C   UNL     1      27.077  22.719  29.837  0.00  0.00    +0.000 A 
ATOM      7  C   UNL     1      26.598  23.964  30.182  0.00  0.00    +0.000 A 
ATOM      8  O   UNL     1      25.858  24.225  31.325  0.00  0.00    +0.000 OA
ATOM      9  C   UNL     1      26.870  25.017  29.340  0.00  0.00    +0.000 A 
ATOM     10  C   UNL     1      27.607  24.773  28.192  0.00  0.00    +0.000 A 
ENDBRANCH   2   4
BRANCH   2  11
ATOM     11  C   UNL     1      27.968  23.253  25.455  0.00  0.00    +0.000 A 
ATOM     12  C   UNL     1      28.438  23.441  24.182  0.00  0.00    +0.000 A 
ATOM     13  C   UNL     1      27.649  23.375  23.041  0.00  0.00    +0.000 A 
ATOM     14  C   UNL     1      26.305  23.100  23.211  0.00  0.00    +0.000 A 
ATOM     15  O   UNL     1      25.522  23.035  22.065  0.00  0.00    +0.000 OA
ATOM     16  C   UNL     1      25.806  22.906  24.474  0.00  0.00    +0.000 A 
ATOM     17  C   UNL     1      26.613  22.977  25.607  0.00  0.00    +0.000 A 
ENDBRANCH   2  11
TORSDOF 2
ENDMDL
MODEL 10
REMARK VINA RESULT:      -5.6     35.756     38.010
REMARK  Name = 
REMARK  2 active torsions:
REMARK  status: ('A' for Active; 'I' for Inactive)
REMARK    1  A    between atoms: C_2  and  C_4
REMARK    2  A    between atoms: C_2  and  C_11
REMARK                            x       y       z     vdW  Elec       q    Type
REMARK                         _______ _______ _______ _____ _____    ______ ____
ROOT
ATOM      1  C   UNL     1      18.230 -10.480  26.324  0.00  0.00    +0.000 C 
ATOM      2  C   UNL     1      19.039  -9.712  27.372  0.00  0.00    +0.000 C 
ATOM      3  C   UNL     1      20.464 -10.205  27.230  0.00  0.00    +0.000 C 
ENDROOT
BRANCH   2   4
ATOM      4  C   UNL     1      18.946  -8.290  27.044  0.00  0.00    +0.000 A 
ATOM      5  C   UNL     1      19.913  -7.699  26.259  0.00  0.00    +0.000 A 
ATOM      6  C   UNL     1      19.773  -6.352  25.979  0.00  0.00    +0.000 A 
ATOM      7  C   UNL     1      18.730  -5.579  26.441  0.00  0.00    +0.000 A 
ATOM      8  O   UNL     1      18.581  -4.229  26.167  0.00  0.00    +0.000 OA
ATOM      9  C   UNL     1      17.774  -6.185  27.223  0.00  0.00    +0.000 A 
ATOM     10  C   UNL     1      17.909  -7.535  27.506  0.00  0.00    +0.000 A 
ENDBRANCH   2   4
BRANCH   2  11
ATOM     11  C   UNL     1      18.510  -9.982  28.725  0.00  0.00    +0.000 A 
ATOM     12  C   UNL     1      17.312 -10.615  28.925  0.00  0.00    +0.000 A 
ATOM     13  C   UNL     1      16.773 -10.890  30.174  0.00  0.00    +0.000 A 
ATOM     14  C   UNL     1      17.500 -10.498  31.282  0.00  0.00    +0.000 A 
ATOM     15  O   UNL     1      16.955 -10.777  32.530  0.00  0.00    +0.000 OA
ATOM     16  C   UNL     1      18.704  -9.862  31.114  0.00  0.00    +0.000 A 
ATOM     17  C   UNL     1      19.229  -9.594  29.852  0.00  0.00    +0.000 A 
ENDBRANCH   2  11
TORSDOF 2
ENDMDL
