MODEL 1
REMARK VINA RESULT:      -8.1      0.000      0.000
REMARK  Name = 
REMARK  8 active torsions:
REMARK  status: ('A' for Active; 'I' for Inactive)
REMARK    1  A    between atoms: C_2  and  O_3
REMARK    2  A    between atoms: O_3  and  C_4
REMARK    3  A    between atoms: C_7  and  N_8
REMARK    4  A    between atoms: N_8  and  C_9
REMARK    5  A    between atoms: C_10  and  S_11
REMARK    6  A    between atoms: S_11  and  C_12
REMARK    7  A    between atoms: N_20  and  C_21
REMARK    8  A    between atoms: C_24  and  C_25
REMARK                            x       y       z     vdW  Elec       q    Type
REMARK                         _______ _______ _______ _____ _____    ______ ____
ROOT
ATOM      1  C   UNL     1      36.394   4.299  14.737  0.00  0.00    +0.000 C 
ATOM      2  C   UNL     1      37.687   4.086  14.909  0.00  0.00    +0.000 C 
ATOM      3  C   UNL     1      37.900   2.639  15.090  0.00  0.00    +0.000 C 
ATOM      4  O   UNL     1      39.018   2.086  15.279  0.00  0.00    +0.000 OA
ATOM      5  N   UNL     1      36.652   1.994  15.014  0.00  0.00    +0.000 N 
ATOM      6  C   UNL     1      35.696   3.022  14.793  0.00  0.00    +0.000 C 
ATOM      7  O   UNL     1      34.457   2.914  14.660  0.00  0.00    +0.000 OA
ENDROOT
BRANCH   5   8
ATOM      8  C   UNL     1      36.384   0.579  15.140  0.00  0.00    +0.000 A 
ATOM      9  C   UNL     1      35.623   0.107  16.181  0.00  0.00    +0.000 A 
ATOM     10  C   UNL     1      35.401  -1.251  16.265  0.00  0.00    +0.000 A 
ATOM     11  C   UNL     1      35.903  -2.145  15.363  0.00  0.00    +0.000 A 
ATOM     12  C   UNL     1      36.677  -1.668  14.302  0.00  0.00    +0.000 A 
ATOM     13  C   UNL     1      36.897  -0.309  14.220  0.00  0.00    +0.000 A 
BRANCH  11  14
ATOM     14  C   UNL     1      35.608  -3.586  15.543  0.00  0.00    +0.000 C 
ATOM     15  C   UNL     1      34.135  -3.868  15.289  0.00  0.00    +0.000 C 
ENDBRANCH  11  14
ENDBRANCH   5   8
BRANCH   1  16
ATOM     16  N   UNL     1      35.818   5.561  14.536  0.00  0.00    +0.000 NA
BRANCH  16  20
ATOM     17  C   UNL     1      34.259   7.044  10.880  0.00  0.00    +0.000 A 
ATOM     18  C   UNL     1      33.609   7.219  12.089  0.00  0.00    +0.000 A 
ATOM     19  C   UNL     1      34.151   6.718  13.271  0.00  0.00    +0.000 A 
ATOM     20  C   UNL     1      35.351   6.030  13.278  0.00  0.00    +0.000 A 
ATOM     21  C   UNL     1      35.995   5.856  12.083  0.00  0.00    +0.000 A 
ATOM     22  C   UNL     1      35.450   6.358  10.905  0.00  0.00    +0.000 A 
BRANCH  17  23
ATOM     23  O   UNL     1      33.735   7.541   9.674  0.00  0.00    +0.000 OA
BRANCH  23  25
ATOM     24  C   UNL     1      33.313   6.474   7.540  0.00  0.00    +0.000 C 
ATOM     25  C   UNL     1      34.284   7.234   8.427  0.00  0.00    +0.000 C 
ENDBRANCH  23  25
ENDBRANCH  17  23
ENDBRANCH  16  20
ENDBRANCH   1  16
BRANCH   2  26
ATOM     26  S   UNL     1      38.973   5.329  14.925  0.00  0.00    +0.000 S 
BRANCH  26  27
ATOM     27  C   UNL     1      39.524   5.645  16.588  0.00  0.00    +0.000 A 
ATOM     28  C   UNL     1      38.728   5.334  17.674  0.00  0.00    +0.000 A 
ATOM     29  C   UNL     1      39.215   5.605  18.926  0.00  0.00    +0.000 A 
ATOM     30  C   UNL     1      40.450   6.169  19.140  0.00  0.00    +0.000 A 
ATOM     31  C   UNL     1      41.221   6.468  18.026  0.00  0.00    +0.000 A 
ATOM     32  C   UNL     1      40.772   6.214  16.756  0.00  0.00    +0.000 A 
ENDBRANCH  26  27
ENDBRANCH   2  26
TORSDOF 8
ENDMDL
MODEL 2
REMARK VINA RESULT:      -8.1      4.011      8.737
REMARK  Name = 
REMARK  8 active torsions:
REMARK  status: ('A' for Active; 'I' for Inactive)
REMARK    1  A    between atoms: C_2  and  O_3
REMARK    2  A    between atoms: O_3  and  C_4
REMARK    3  A    between atoms: C_7  and  N_8
REMARK    4  A    between atoms: N_8  and  C_9
REMARK    5  A    between atoms: C_10  and  S_11
REMARK    6  A    between atoms: S_11  and  C_12
REMARK    7  A    between atoms: N_20  and  C_21
REMARK    8  A    between atoms: C_24  and  C_25
REMARK                            x       y       z     vdW  Elec       q    Type
REMARK                         _______ _______ _______ _____ _____    ______ ____
ROOT
ATOM      1  C   UNL     1      37.295   2.226  14.958  0.00  0.00    +0.000 C 
ATOM      2  C   UNL     1      38.416   2.523  14.323  0.00  0.00    +0.000 C 
ATOM      3  C   UNL     1      39.038   3.678  14.995  0.00  0.00    +0.000 C 
ATOM      4  O   UNL     1      40.121   4.224  14.649  0.00  0.00    +0.000 OA
ATOM      5  N   UNL     1      38.219   4.057  16.074  0.00  0.00    +0.000 N 
ATOM      6  C   UNL     1      37.121   3.155  16.065  0.00  0.00    +0.000 C 
ATOM      7  O   UNL     1      36.144   3.114  16.846  0.00  0.00    +0.000 OA
ENDROOT
BRANCH   5   8
ATOM      8  C   UNL     1      38.437   5.142  17.005  0.00  0.00    +0.000 A 
ATOM      9  C   UNL     1      38.966   4.893  18.248  0.00  0.00    +0.000 A 
ATOM     10  C   UNL     1      39.148   5.958  19.105  0.00  0.00    +0.000 A 
ATOM     11  C   UNL     1      38.827   7.243  18.775  0.00  0.00    +0.000 A 
ATOM     12  C   UNL     1      38.289   7.499  17.512  0.00  0.00    +0.000 A 
ATOM     13  C   UNL     1      38.108   6.433  16.656  0.00  0.00    +0.000 A 
BRANCH  11  14
ATOM     14  C   UNL     1      39.060   8.317  19.770  0.00  0.00    +0.000 C 
ATOM     15  C   UNL     1      37.742   8.810  20.346  0.00  0.00    +0.000 C 
ENDBRANCH  11  14
ENDBRANCH   5   8
BRANCH   1  16
ATOM     16  N   UNL     1      36.434   1.180  14.598  0.00  0.00    +0.000 NA
BRANCH  16  20
ATOM     17  C   UNL     1      36.396  -2.704  16.303  0.00  0.00    +0.000 A 
ATOM     18  C   UNL     1      36.419  -2.495  14.936  0.00  0.00    +0.000 A 
ATOM     19  C   UNL     1      36.430  -1.204  14.411  0.00  0.00    +0.000 A 
ATOM     20  C   UNL     1      36.419  -0.091  15.233  0.00  0.00    +0.000 A 
ATOM     21  C   UNL     1      36.397  -0.297  16.586  0.00  0.00    +0.000 A 
ATOM     22  C   UNL     1      36.385  -1.588  17.106  0.00  0.00    +0.000 A 
BRANCH  17  23
ATOM     23  O   UNL     1      36.385  -3.995  16.860  0.00  0.00    +0.000 OA
BRANCH  23  25
ATOM     24  C   UNL     1      38.790  -4.207  17.079  0.00  0.00    +0.000 C 
ATOM     25  C   UNL     1      37.464  -4.875  16.753  0.00  0.00    +0.000 C 
ENDBRANCH  23  25
ENDBRANCH  17  23
ENDBRANCH  16  20
ENDBRANCH   1  16
BRANCH   2  26
ATOM     26  S   UNL     1      39.079   1.680  12.892  0.00  0.00    +0.000 S 
BRANCH  26  27
ATOM     27  C   UNL     1      39.544   0.011  13.301  0.00  0.00    +0.000 A 
ATOM     28  C   UNL     1      39.450  -1.004  12.368  0.00  0.00    +0.000 A 
ATOM     29  C   UNL     1      39.824  -2.265  12.752  0.00  0.00    +0.000 A 
ATOM     30  C   UNL     1      40.283  -2.556  14.014  0.00  0.00    +0.000 A 
ATOM     31  C   UNL     1      40.364  -1.512  14.924  0.00  0.00    +0.000 A 
ATOM     32  C   UNL     1      40.000  -0.235  14.583  0.00  0.00    +0.000 A 
ENDBRANCH  26  27
ENDBRANCH   2  26
TORSDOF 8
ENDMDL
MODEL 3
REMARK VINA RESULT:      -7.9      4.174      8.834
REMARK  Name = 
REMARK  8 active torsions:
REMARK  status: ('A' for Active; 'I' for Inactive)
REMARK    1  A    between atoms: C_2  and  O_3
REMARK    2  A    between atoms: O_3  and  C_4
REMARK    3  A    between atoms: C_7  and  N_8
REMARK    4  A    between atoms: N_8  and  C_9
REMARK    5  A    between atoms: C_10  and  S_11
REMARK    6  A    between atoms: S_11  and  C_12
REMARK    7  A    between atoms: N_20  and  C_21
REMARK    8  A    between atoms: C_24  and  C_25
REMARK                            x       y       z     vdW  Elec       q    Type
REMARK                         _______ _______ _______ _____ _____    ______ ____
ROOT
ATOM      1  C   UNL     1      38.380   2.391  14.395  0.00  0.00    +0.000 C 
ATOM      2  C   UNL     1      37.318   2.033  15.096  0.00  0.00    +0.000 C 
ATOM      3  C   UNL     1      37.152   2.985  16.208  0.00  0.00    +0.000 C 
ATOM      4  O   UNL     1      36.236   2.940  17.074  0.00  0.00    +0.000 OA
ATOM      5  N   UNL     1      38.182   3.940  16.131  0.00  0.00    +0.000 N 
ATOM      6  C   UNL     1      38.961   3.582  14.998  0.00  0.00    +0.000 C 
ATOM      7  O   UNL     1      39.980   4.150  14.546  0.00  0.00    +0.000 OA
ENDROOT
BRANCH   5   8
ATOM      8  C   UNL     1      38.412   5.058  17.019  0.00  0.00    +0.000 A 
ATOM      9  C   UNL     1      38.954   4.854  18.265  0.00  0.00    +0.000 A 
ATOM     10  C   UNL     1      39.147   5.949  19.080  0.00  0.00    +0.000 A 
ATOM     11  C   UNL     1      38.826   7.222  18.706  0.00  0.00    +0.000 A 
ATOM     12  C   UNL     1      38.275   7.433  17.440  0.00  0.00    +0.000 A 
ATOM     13  C   UNL     1      38.082   6.336  16.626  0.00  0.00    +0.000 A 
BRANCH  11  14
ATOM     14  C   UNL     1      39.073   8.331  19.658  0.00  0.00    +0.000 C 
ATOM     15  C   UNL     1      37.773   8.778  20.310  0.00  0.00    +0.000 C 
ENDBRANCH  11  14
ENDBRANCH   5   8
BRANCH   1  16
ATOM     16  N   UNL     1      38.846   1.714  13.260  0.00  0.00    +0.000 NA
BRANCH  16  20
ATOM     17  C   UNL     1      41.185  -1.825  13.221  0.00  0.00    +0.000 A 
ATOM     18  C   UNL     1      40.274  -1.528  12.225  0.00  0.00    +0.000 A 
ATOM     19  C   UNL     1      39.521  -0.356  12.270  0.00  0.00    +0.000 A 
ATOM     20  C   UNL     1      39.658   0.548  13.308  0.00  0.00    +0.000 A 
ATOM     21  C   UNL     1      40.560   0.255  14.296  0.00  0.00    +0.000 A 
ATOM     22  C   UNL     1      41.308  -0.917  14.246  0.00  0.00    +0.000 A 
BRANCH  17  23
ATOM     23  O   UNL     1      41.957  -3.000  13.200  0.00  0.00    +0.000 OA
BRANCH  23  25
ATOM     24  C   UNL     1      43.995  -2.283  12.102  0.00  0.00    +0.000 C 
ATOM     25  C   UNL     1      42.862  -3.292  12.177  0.00  0.00    +0.000 C 
ENDBRANCH  23  25
ENDBRANCH  17  23
ENDBRANCH  16  20
ENDBRANCH   1  16
BRANCH   2  26
ATOM     26  S   UNL     1      36.254   0.633  14.767  0.00  0.00    +0.000 S 
BRANCH  26  27
ATOM     27  C   UNL     1      37.101  -0.896  15.102  0.00  0.00    +0.000 A 
ATOM     28  C   UNL     1      37.018  -1.963  14.228  0.00  0.00    +0.000 A 
ATOM     29  C   UNL     1      37.695  -3.110  14.549  0.00  0.00    +0.000 A 
ATOM     30  C   UNL     1      38.444  -3.239  15.694  0.00  0.00    +0.000 A 
ATOM     31  C   UNL     1      38.505  -2.147  16.547  0.00  0.00    +0.000 A 
ATOM     32  C   UNL     1      37.843  -0.980  16.265  0.00  0.00    +0.000 A 
ENDBRANCH  26  27
ENDBRANCH   2  26
TORSDOF 8
ENDMDL
MODEL 4
REMARK VINA RESULT:      -7.8      2.723      3.903
REMARK  Name = 
REMARK  8 active torsions:
REMARK  status: ('A' for Active; 'I' for Inactive)
REMARK    1  A    between atoms: C_2  and  O_3
REMARK    2  A    between atoms: O_3  and  C_4
REMARK    3  A    between atoms: C_7  and  N_8
REMARK    4  A    between atoms: N_8  and  C_9
REMARK    5  A    between atoms: C_10  and  S_11
REMARK    6  A    between atoms: S_11  and  C_12
REMARK    7  A    between atoms: N_20  and  C_21
REMARK    8  A    between atoms: C_24  and  C_25
REMARK                            x       y       z     vdW  Elec       q    Type
REMARK                         _______ _______ _______ _____ _____    ______ ____
ROOT
ATOM      1  C   UNL     1      36.729   5.607  14.615  0.00  0.00    +0.000 C 
ATOM      2  C   UNL     1      37.853   5.400  15.281  0.00  0.00    +0.000 C 
ATOM      3  C   UNL     1      37.836   4.023  15.806  0.00  0.00    +0.000 C 
ATOM      4  O   UNL     1      38.754   3.493  16.489  0.00  0.00    +0.000 OA
ATOM      5  N   UNL     1      36.630   3.414  15.412  0.00  0.00    +0.000 N 
ATOM      6  C   UNL     1      35.925   4.395  14.664  0.00  0.00    +0.000 C 
ATOM      7  O   UNL     1      34.804   4.295  14.116  0.00  0.00    +0.000 OA
ENDROOT
BRANCH   5   8
ATOM      8  C   UNL     1      36.187   2.069  15.706  0.00  0.00    +0.000 A 
ATOM      9  C   UNL     1      36.674   1.005  14.987  0.00  0.00    +0.000 A 
ATOM     10  C   UNL     1      36.216  -0.257  15.298  0.00  0.00    +0.000 A 
ATOM     11  C   UNL     1      35.303  -0.497  16.283  0.00  0.00    +0.000 A 
ATOM     12  C   UNL     1      34.805   0.583  17.017  0.00  0.00    +0.000 A 
ATOM     13  C   UNL     1      35.265   1.845  16.705  0.00  0.00    +0.000 A 
BRANCH  11  14
ATOM     14  C   UNL     1      34.873  -1.893  16.538  0.00  0.00    +0.000 C 
ATOM     15  C   UNL     1      35.908  -2.876  16.013  0.00  0.00    +0.000 C 
ENDBRANCH  11  14
ENDBRANCH   5   8
BRANCH   1  16
ATOM     16  N   UNL     1      36.396   6.810  13.978  0.00  0.00    +0.000 NA
BRANCH  16  20
ATOM     17  C   UNL     1      34.210   9.954  15.801  0.00  0.00    +0.000 A 
ATOM     18  C   UNL     1      35.592   9.922  15.791  0.00  0.00    +0.000 A 
ATOM     19  C   UNL     1      36.278   8.872  15.183  0.00  0.00    +0.000 A 
ATOM     20  C   UNL     1      35.604   7.830  14.570  0.00  0.00    +0.000 A 
ATOM     21  C   UNL     1      34.236   7.861  14.580  0.00  0.00    +0.000 A 
ATOM     22  C   UNL     1      33.555   8.911  15.189  0.00  0.00    +0.000 A 
BRANCH  17  23
ATOM     23  O   UNL     1      33.493  11.001  16.406  0.00  0.00    +0.000 OA
BRANCH  23  25
ATOM     24  C   UNL     1      32.225  10.251  18.330  0.00  0.00    +0.000 C 
ATOM     25  C   UNL     1      33.349  11.120  17.790  0.00  0.00    +0.000 C 
ENDBRANCH  23  25
ENDBRANCH  17  23
ENDBRANCH  16  20
ENDBRANCH   1  16
BRANCH   2  26
ATOM     26  S   UNL     1      39.177   6.579  15.517  0.00  0.00    +0.000 S 
BRANCH  26  27
ATOM     27  C   UNL     1      39.771   6.533  17.195  0.00  0.00    +0.000 A 
ATOM     28  C   UNL     1      38.895   6.583  18.262  0.00  0.00    +0.000 A 
ATOM     29  C   UNL     1      39.421   6.544  19.527  0.00  0.00    +0.000 A 
ATOM     30  C   UNL     1      40.771   6.461  19.771  0.00  0.00    +0.000 A 
ATOM     31  C   UNL     1      41.620   6.413  18.675  0.00  0.00    +0.000 A 
ATOM     32  C   UNL     1      41.136   6.449  17.393  0.00  0.00    +0.000 A 
ENDBRANCH  26  27
ENDBRANCH   2  26
TORSDOF 8
ENDMDL
MODEL 5
REMARK VINA RESULT:      -7.6      2.327      8.495
REMARK  Name = 
REMARK  8 active torsions:
REMARK  status: ('A' for Active; 'I' for Inactive)
REMARK    1  A    between atoms: C_2  and  O_3
REMARK    2  A    between atoms: O_3  and  C_4
REMARK    3  A    between atoms: C_7  and  N_8
REMARK    4  A    between atoms: N_8  and  C_9
REMARK    5  A    between atoms: C_10  and  S_11
REMARK    6  A    between atoms: S_11  and  C_12
REMARK    7  A    between atoms: N_20  and  C_21
REMARK    8  A    between atoms: C_24  and  C_25
REMARK                            x       y       z     vdW  Elec       q    Type
REMARK                         _______ _______ _______ _____ _____    ______ ____
ROOT
ATOM      1  C   UNL     1      37.275   3.947  15.503  0.00  0.00    +0.000 C 
ATOM      2  C   UNL     1      37.728   4.818  14.618  0.00  0.00    +0.000 C 
ATOM      3  C   UNL     1      38.754   5.652  15.269  0.00  0.00    +0.000 C 
ATOM      4  O   UNL     1      39.394   6.585  14.713  0.00  0.00    +0.000 OA
ATOM      5  N   UNL     1      38.890   5.225  16.603  0.00  0.00    +0.000 N 
ATOM      6  C   UNL     1      37.969   4.156  16.765  0.00  0.00    +0.000 C 
ATOM      7  O   UNL     1      37.746   3.472  17.790  0.00  0.00    +0.000 OA
ENDROOT
BRANCH   5   8
ATOM      8  C   UNL     1      39.778   5.761  17.612  0.00  0.00    +0.000 A 
ATOM      9  C   UNL     1      41.082   6.060  17.300  0.00  0.00    +0.000 A 
ATOM     10  C   UNL     1      41.893   6.560  18.296  0.00  0.00    +0.000 A 
ATOM     11  C   UNL     1      41.461   6.770  19.573  0.00  0.00    +0.000 A 
ATOM     12  C   UNL     1      40.135   6.467  19.894  0.00  0.00    +0.000 A 
ATOM     13  C   UNL     1      39.325   5.967  18.896  0.00  0.00    +0.000 A 
BRANCH  11  14
ATOM     14  C   UNL     1      42.414   7.310  20.572  0.00  0.00    +0.000 C 
ATOM     15  C   UNL     1      43.099   6.181  21.325  0.00  0.00    +0.000 C 
ENDBRANCH  11  14
ENDBRANCH   5   8
BRANCH   1  16
ATOM     16  N   UNL     1      36.286   2.990  15.238  0.00  0.00    +0.000 NA
BRANCH  16  20
ATOM     17  C   UNL     1      36.620  -1.171  15.992  0.00  0.00    +0.000 A 
ATOM     18  C   UNL     1      35.646  -0.387  16.581  0.00  0.00    +0.000 A 
ATOM     19  C   UNL     1      35.566   0.978  16.312  0.00  0.00    +0.000 A 
ATOM     20  C   UNL     1      36.454   1.594  15.448  0.00  0.00    +0.000 A 
ATOM     21  C   UNL     1      37.418   0.820  14.863  0.00  0.00    +0.000 A 
ATOM     22  C   UNL     1      37.495  -0.543  15.136  0.00  0.00    +0.000 A 
BRANCH  17  23
ATOM     23  O   UNL     1      36.723  -2.550  16.246  0.00  0.00    +0.000 OA
BRANCH  23  25
ATOM     24  C   UNL     1      38.222  -2.280  18.130  0.00  0.00    +0.000 C 
ATOM     25  C   UNL     1      37.089  -3.065  17.490  0.00  0.00    +0.000 C 
ENDBRANCH  23  25
ENDBRANCH  17  23
ENDBRANCH  16  20
ENDBRANCH   1  16
BRANCH   2  26
ATOM     26  S   UNL     1      37.196   4.976  12.917  0.00  0.00    +0.000 S 
BRANCH  26  27
ATOM     27  C   UNL     1      35.665   5.878  12.815  0.00  0.00    +0.000 A 
ATOM     28  C   UNL     1      34.878   6.074  13.933  0.00  0.00    +0.000 A 
ATOM     29  C   UNL     1      33.712   6.777  13.782  0.00  0.00    +0.000 A 
ATOM     30  C   UNL     1      33.299   7.287  12.575  0.00  0.00    +0.000 A 
ATOM     31  C   UNL     1      34.115   7.070  11.474  0.00  0.00    +0.000 A 
ATOM     32  C   UNL     1      35.290   6.372  11.580  0.00  0.00    +0.000 A 
ENDBRANCH  26  27
ENDBRANCH   2  26
TORSDOF 8
ENDMDL
MODEL 6
REMARK VINA RESULT:      -7.5      1.999      7.119
REMARK  Name = 
REMARK  8 active torsions:
REMARK  status: ('A' for Active; 'I' for Inactive)
REMARK    1  A    between atoms: C_2  and  O_3
REMARK    2  A    between atoms: O_3  and  C_4
REMARK    3  A    between atoms: C_7  and  N_8
REMARK    4  A    between atoms: N_8  and  C_9
REMARK    5  A    between atoms: C_10  and  S_11
REMARK    6  A    between atoms: S_11  and  C_12
REMARK    7  A    between atoms: N_20  and  C_21
REMARK    8  A    between atoms: C_24  and  C_25
REMARK                            x       y       z     vdW  Elec       q    Type
REMARK                         _______ _______ _______ _____ _____    ______ ____
ROOT
ATOM      1  C   UNL     1      37.589   4.682  15.914  0.00  0.00    +0.000 C 
ATOM      2  C   UNL     1      37.451   4.572  14.604  0.00  0.00    +0.000 C 
ATOM      3  C   UNL     1      37.108   3.174  14.288  0.00  0.00    +0.000 C 
ATOM      4  O   UNL     1      36.906   2.718  13.129  0.00  0.00    +0.000 OA
ATOM      5  N   UNL     1      37.048   2.449  15.492  0.00  0.00    +0.000 N 
ATOM      6  C   UNL     1      37.347   3.382  16.523  0.00  0.00    +0.000 C 
ATOM      7  O   UNL     1      37.407   3.181  17.756  0.00  0.00    +0.000 OA
ENDROOT
BRANCH   5   8
ATOM      8  C   UNL     1      36.749   1.044  15.660  0.00  0.00    +0.000 A 
ATOM      9  C   UNL     1      37.671   0.091  15.300  0.00  0.00    +0.000 A 
ATOM     10  C   UNL     1      37.338  -1.235  15.470  0.00  0.00    +0.000 A 
ATOM     11  C   UNL     1      36.138  -1.644  15.976  0.00  0.00    +0.000 A 
ATOM     12  C   UNL     1      35.198  -0.677  16.343  0.00  0.00    +0.000 A 
ATOM     13  C   UNL     1      35.533   0.650  16.173  0.00  0.00    +0.000 A 
BRANCH  11  14
ATOM     14  C   UNL     1      35.877  -3.096  16.117  0.00  0.00    +0.000 C 
ATOM     15  C   UNL     1      34.552  -3.468  15.470  0.00  0.00    +0.000 C 
ENDBRANCH  11  14
ENDBRANCH   5   8
BRANCH   1  16
ATOM     16  N   UNL     1      37.917   5.871  16.580  0.00  0.00    +0.000 NA
BRANCH  16  20
ATOM     17  C   UNL     1      41.440   6.348  18.895  0.00  0.00    +0.000 A 
ATOM     18  C   UNL     1      41.460   6.314  17.512  0.00  0.00    +0.000 A 
ATOM     19  C   UNL     1      40.283   6.155  16.783  0.00  0.00    +0.000 A 
ATOM     20  C   UNL     1      39.058   6.026  17.414  0.00  0.00    +0.000 A 
ATOM     21  C   UNL     1      39.036   6.060  18.782  0.00  0.00    +0.000 A 
ATOM     22  C   UNL     1      40.214   6.218  19.505  0.00  0.00    +0.000 A 
BRANCH  17  23
ATOM     23  O   UNL     1      42.612   6.509  19.654  0.00  0.00    +0.000 OA
BRANCH  23  25
ATOM     24  C   UNL     1      43.937   5.709  21.519  0.00  0.00    +0.000 C 
ATOM     25  C   UNL     1      42.644   6.348  21.040  0.00  0.00    +0.000 C 
ENDBRANCH  23  25
ENDBRANCH  17  23
ENDBRANCH  16  20
ENDBRANCH   1  16
BRANCH   2  26
ATOM     26  S   UNL     1      37.646   5.884  13.404  0.00  0.00    +0.000 S 
BRANCH  26  27
ATOM     27  C   UNL     1      36.067   6.378  12.746  0.00  0.00    +0.000 A 
ATOM     28  C   UNL     1      35.873   6.507  11.385  0.00  0.00    +0.000 A 
ATOM     29  C   UNL     1      34.632   6.892  10.947  0.00  0.00    +0.000 A 
ATOM     30  C   UNL     1      33.587   7.151  11.801  0.00  0.00    +0.000 A 
ATOM     31  C   UNL     1      33.820   7.010  13.162  0.00  0.00    +0.000 A 
ATOM     32  C   UNL     1      35.046   6.628  13.642  0.00  0.00    +0.000 A 
ENDBRANCH  26  27
ENDBRANCH   2  26
TORSDOF 8
ENDMDL
MODEL 7
REMARK VINA RESULT:      -7.4     26.157     29.319
REMARK  Name = 
REMARK  8 active torsions:
REMARK  status: ('A' for Active; 'I' for Inactive)
REMARK    1  A    between atoms: C_2  and  O_3
REMARK    2  A    between atoms: O_3  and  C_4
REMARK    3  A    between atoms: C_7  and  N_8
REMARK    4  A    between atoms: N_8  and  C_9
REMARK    5  A    between atoms: C_10  and  S_11
REMARK    6  A    between atoms: S_11  and  C_12
REMARK    7  A    between atoms: N_20  and  C_21
REMARK    8  A    between atoms: C_24  and  C_25
REMARK                            x       y       z     vdW  Elec       q    Type
REMARK                         _______ _______ _______ _____ _____    ______ ____
ROOT
ATOM      1  C   UNL     1      26.548  14.442  40.107  0.00  0.00    +0.000 C 
ATOM      2  C   UNL     1      27.778  14.850  39.846  0.00  0.00    +0.000 C 
ATOM      3  C   UNL     1      27.815  15.362  38.464  0.00  0.00    +0.000 C 
ATOM      4  O   UNL     1      28.834  15.831  37.889  0.00  0.00    +0.000 OA
ATOM      5  N   UNL     1      26.527  15.237  37.911  0.00  0.00    +0.000 N 
ATOM      6  C   UNL     1      25.720  14.662  38.930  0.00  0.00    +0.000 C 
ATOM      7  O   UNL     1      24.504  14.371  38.884  0.00  0.00    +0.000 OA
ENDROOT
BRANCH   5   8
ATOM      8  C   UNL     1      26.102  15.610  36.580  0.00  0.00    +0.000 A 
ATOM      9  C   UNL     1      25.481  16.816  36.362  0.00  0.00    +0.000 A 
ATOM     10  C   UNL     1      25.085  17.124  35.078  0.00  0.00    +0.000 A 
ATOM     11  C   UNL     1      25.281  16.288  34.018  0.00  0.00    +0.000 A 
ATOM     12  C   UNL     1      25.913  15.060  34.235  0.00  0.00    +0.000 A 
ATOM     13  C   UNL     1      26.308  14.754  35.521  0.00  0.00    +0.000 A 
BRANCH  11  14
ATOM     14  C   UNL     1      24.817  16.712  32.675  0.00  0.00    +0.000 C 
ATOM     15  C   UNL     1      24.278  18.134  32.720  0.00  0.00    +0.000 C 
ENDBRANCH  11  14
ENDBRANCH   5   8
BRANCH   1  16
ATOM     16  N   UNL     1      26.138  13.891  41.329  0.00  0.00    +0.000 NA
BRANCH  16  20
ATOM     17  C   UNL     1      26.463   9.728  42.078  0.00  0.00    +0.000 A 
ATOM     18  C   UNL     1      26.948  10.314  40.923  0.00  0.00    +0.000 A 
ATOM     19  C   UNL     1      26.823  11.685  40.709  0.00  0.00    +0.000 A 
ATOM     20  C   UNL     1      26.213  12.506  41.641  0.00  0.00    +0.000 A 
ATOM     21  C   UNL     1      25.732  11.928  42.785  0.00  0.00    +0.000 A 
ATOM     22  C   UNL     1      25.859  10.558  42.993  0.00  0.00    +0.000 A 
BRANCH  17  23
ATOM     23  O   UNL     1      26.576   8.348  42.319  0.00  0.00    +0.000 OA
BRANCH  23  25
ATOM     24  C   UNL     1      28.890   8.005  42.954  0.00  0.00    +0.000 C 
ATOM     25  C   UNL     1      27.421   7.817  43.295  0.00  0.00    +0.000 C 
ENDBRANCH  23  25
ENDBRANCH  17  23
ENDBRANCH  16  20
ENDBRANCH   1  16
BRANCH   2  26
ATOM     26  S   UNL     1      29.173  14.794  40.964  0.00  0.00    +0.000 S 
BRANCH  26  27
ATOM     27  C   UNL     1      29.888  13.164  41.001  0.00  0.00    +0.000 A 
ATOM     28  C   UNL     1      29.988  12.457  42.183  0.00  0.00    +0.000 A 
ATOM     29  C   UNL     1      30.550  11.208  42.139  0.00  0.00    +0.000 A 
ATOM     30  C   UNL     1      31.014  10.640  40.977  0.00  0.00    +0.000 A 
ATOM     31  C   UNL     1      30.897  11.380  39.809  0.00  0.00    +0.000 A 
ATOM     32  C   UNL     1      30.341  12.633  39.809  0.00  0.00    +0.000 A 
ENDBRANCH  26  27
ENDBRANCH   2  26
TORSDOF 8
ENDMDL
MODEL 8
REMARK VINA RESULT:      -7.3      2.554      8.152
REMARK  Name = 
REMARK  8 active torsions:
REMARK  status: ('A' for Active; 'I' for Inactive)
REMARK    1  A    between atoms: C_2  and  O_3
REMARK    2  A    between atoms: O_3  and  C_4
REMARK    3  A    between atoms: C_7  and  N_8
REMARK    4  A    between atoms: N_8  and  C_9
REMARK    5  A    between atoms: C_10  and  S_11
REMARK    6  A    between atoms: S_11  and  C_12
REMARK    7  A    between atoms: N_20  and  C_21
REMARK    8  A    between atoms: C_24  and  C_25
REMARK                            x       y       z     vdW  Elec       q    Type
REMARK                         _______ _______ _______ _____ _____    ______ ____
ROOT
ATOM      1  C   UNL     1      36.551   3.913  15.604  0.00  0.00    +0.000 C 
ATOM      2  C   UNL     1      36.811   4.881  14.742  0.00  0.00    +0.000 C 
ATOM      3  C   UNL     1      37.929   5.685  15.267  0.00  0.00    +0.000 C 
ATOM      4  O   UNL     1      38.433   6.690  14.695  0.00  0.00    +0.000 OA
ATOM      5  N   UNL     1      38.326   5.138  16.500  0.00  0.00    +0.000 N 
ATOM      6  C   UNL     1      37.472   4.025  16.726  0.00  0.00    +0.000 C 
ATOM      7  O   UNL     1      37.463   3.240  17.700  0.00  0.00    +0.000 OA
ENDROOT
BRANCH   5   8
ATOM      8  C   UNL     1      39.382   5.607  17.370  0.00  0.00    +0.000 A 
ATOM      9  C   UNL     1      39.165   5.729  18.721  0.00  0.00    +0.000 A 
ATOM     10  C   UNL     1      40.199   6.188  19.509  0.00  0.00    +0.000 A 
ATOM     11  C   UNL     1      41.423   6.526  19.010  0.00  0.00    +0.000 A 
ATOM     12  C   UNL     1      41.648   6.402  17.637  0.00  0.00    +0.000 A 
ATOM     13  C   UNL     1      40.612   5.943  16.850  0.00  0.00    +0.000 A 
BRANCH  11  14
ATOM     14  C   UNL     1      42.468   7.011  19.943  0.00  0.00    +0.000 C 
ATOM     15  C   UNL     1      42.716   5.993  21.047  0.00  0.00    +0.000 C 
ENDBRANCH  11  14
ENDBRANCH   5   8
BRANCH   1  16
ATOM     16  N   UNL     1      35.546   2.951  15.437  0.00  0.00    +0.000 NA
BRANCH  16  20
ATOM     17  C   UNL     1      36.125  -1.248  15.609  0.00  0.00    +0.000 A 
ATOM     18  C   UNL     1      35.370  -0.564  16.545  0.00  0.00    +0.000 A 
ATOM     19  C   UNL     1      35.202   0.816  16.458  0.00  0.00    +0.000 A 
ATOM     20  C   UNL     1      35.780   1.549  15.437  0.00  0.00    +0.000 A 
ATOM     21  C   UNL     1      36.527   0.874  14.510  0.00  0.00    +0.000 A 
ATOM     22  C   UNL     1      36.693  -0.504  14.602  0.00  0.00    +0.000 A 
BRANCH  17  23
ATOM     23  O   UNL     1      36.310  -2.640  15.673  0.00  0.00    +0.000 OA
BRANCH  23  25
ATOM     24  C   UNL     1      34.744  -4.158  14.616  0.00  0.00    +0.000 C 
ATOM     25  C   UNL     1      36.104  -3.482  14.579  0.00  0.00    +0.000 C 
ENDBRANCH  23  25
ENDBRANCH  17  23
ENDBRANCH  16  20
ENDBRANCH   1  16
BRANCH   2  26
ATOM     26  S   UNL     1      35.959   5.181  13.198  0.00  0.00    +0.000 S 
BRANCH  26  27
ATOM     27  C   UNL     1      36.905   4.560  11.823  0.00  0.00    +0.000 A 
ATOM     28  C   UNL     1      37.444   3.289  11.846  0.00  0.00    +0.000 A 
ATOM     29  C   UNL     1      38.162   2.876  10.755  0.00  0.00    +0.000 A 
ATOM     30  C   UNL     1      38.364   3.670   9.651  0.00  0.00    +0.000 A 
ATOM     31  C   UNL     1      37.807   4.940   9.663  0.00  0.00    +0.000 A 
ATOM     32  C   UNL     1      37.082   5.393  10.735  0.00  0.00    +0.000 A 
ENDBRANCH  26  27
ENDBRANCH   2  26
TORSDOF 8
ENDMDL
MODEL 9
REMARK VINA RESULT:      -7.2      3.547      8.415
REMARK  Name = 
REMARK  8 active torsions:
REMARK  status: ('A' for Active; 'I' for Inactive)
REMARK    1  A    between atoms: C_2  and  O_3
REMARK    2  A    between atoms: O_3  and  C_4
REMARK    3  A    between atoms: C_7  and  N_8
REMARK    4  A    between atoms: N_8  and  C_9
REMARK    5  A    between atoms: C_10  and  S_11
REMARK    6  A    between atoms: S_11  and  C_12
REMARK    7  A    between atoms: N_20  and  C_21
REMARK    8  A    between atoms: C_24  and  C_25
REMARK                            x       y       z     vdW  Elec       q    Type
REMARK                         _______ _______ _______ _____ _____    ______ ____
ROOT
ATOM      1  C   UNL     1      37.214   3.121  14.973  0.00  0.00    +0.000 C 
ATOM      2  C   UNL     1      37.700   4.016  14.130  0.00  0.00    +0.000 C 
ATOM      3  C   UNL     1      38.222   5.153  14.909  0.00  0.00    +0.000 C 
ATOM      4  O   UNL     1      38.757   6.185  14.420  0.00  0.00    +0.000 OA
ATOM      5  N   UNL     1      38.020   4.884  16.275  0.00  0.00    +0.000 N 
ATOM      6  C   UNL     1      37.389   3.612  16.332  0.00  0.00    +0.000 C 
ATOM      7  O   UNL     1      37.023   2.972  17.343  0.00  0.00    +0.000 OA
ENDROOT
BRANCH   5   8
ATOM      8  C   UNL     1      38.374   5.724  17.398  0.00  0.00    +0.000 A 
ATOM      9  C   UNL     1      39.296   5.295  18.321  0.00  0.00    +0.000 A 
ATOM     10  C   UNL     1      39.595   6.126  19.379  0.00  0.00    +0.000 A 
ATOM     11  C   UNL     1      39.017   7.351  19.552  0.00  0.00    +0.000 A 
ATOM     12  C   UNL     1      38.078   7.789  18.615  0.00  0.00    +0.000 A 
ATOM     13  C   UNL     1      37.780   6.957  17.556  0.00  0.00    +0.000 A 
BRANCH  11  14
ATOM     14  C   UNL     1      39.406   8.167  20.726  0.00  0.00    +0.000 C 
ATOM     15  C   UNL     1      38.503   9.385  20.855  0.00  0.00    +0.000 C 
ENDBRANCH  11  14
ENDBRANCH   5   8
BRANCH   1  16
ATOM     16  N   UNL     1      36.631   1.905  14.589  0.00  0.00    +0.000 NA
BRANCH  16  20
ATOM     17  C   UNL     1      38.932  -1.649  14.333  0.00  0.00    +0.000 A 
ATOM     18  C   UNL     1      39.444  -0.470  14.841  0.00  0.00    +0.000 A 
ATOM     19  C   UNL     1      38.660   0.680  14.910  0.00  0.00    +0.000 A 
ATOM     20  C   UNL     1      37.346   0.682  14.474  0.00  0.00    +0.000 A 
ATOM     21  C   UNL     1      36.838  -0.484  13.970  0.00  0.00    +0.000 A 
ATOM     22  C   UNL     1      37.626  -1.629  13.903  0.00  0.00    +0.000 A 
BRANCH  17  23
ATOM     23  O   UNL     1      39.701  -2.823  14.253  0.00  0.00    +0.000 OA
BRANCH  23  25
ATOM     24  C   UNL     1      41.294  -2.875  12.427  0.00  0.00    +0.000 C 
ATOM     25  C   UNL     1      41.059  -2.819  13.927  0.00  0.00    +0.000 C 
ENDBRANCH  23  25
ENDBRANCH  17  23
ENDBRANCH  16  20
ENDBRANCH   1  16
BRANCH   2  26
ATOM     26  S   UNL     1      37.725   3.888  12.346  0.00  0.00    +0.000 S 
BRANCH  26  27
ATOM     27  C   UNL     1      38.735   2.517  11.826  0.00  0.00    +0.000 A 
ATOM     28  C   UNL     1      38.199   1.475  11.094  0.00  0.00    +0.000 A 
ATOM     29  C   UNL     1      39.034   0.452  10.727  0.00  0.00    +0.000 A 
ATOM     30  C   UNL     1      40.368   0.423  11.056  0.00  0.00    +0.000 A 
ATOM     31  C   UNL     1      40.871   1.487  11.792  0.00  0.00    +0.000 A 
ATOM     32  C   UNL     1      40.070   2.530  12.179  0.00  0.00    +0.000 A 
ENDBRANCH  26  27
ENDBRANCH   2  26
TORSDOF 8
ENDMDL
MODEL 10
REMARK VINA RESULT:      -7.2     24.181     27.443
REMARK  Name = 
REMARK  8 active torsions:
REMARK  status: ('A' for Active; 'I' for Inactive)
REMARK    1  A    between atoms: C_2  and  O_3
REMARK    2  A    between atoms: O_3  and  C_4
REMARK    3  A    between atoms: C_7  and  N_8
REMARK    4  A    between atoms: N_8  and  C_9
REMARK    5  A    between atoms: C_10  and  S_11
REMARK    6  A    between atoms: S_11  and  C_12
REMARK    7  A    between atoms: N_20  and  C_21
REMARK    8  A    between atoms: C_24  and  C_25
REMARK                            x       y       z     vdW  Elec       q    Type
REMARK                         _______ _______ _______ _____ _____    ______ ____
ROOT
ATOM      1  C   UNL     1      28.786  16.345  37.292  0.00  0.00    +0.000 C 
ATOM      2  C   UNL     1      28.905  16.458  35.980  0.00  0.00    +0.000 C 
ATOM      3  C   UNL     1      30.029  15.611  35.541  0.00  0.00    +0.000 C 
ATOM      4  O   UNL     1      30.420  15.482  34.349  0.00  0.00    +0.000 OA
ATOM      5  N   UNL     1      30.577  14.981  36.673  0.00  0.00    +0.000 N 
ATOM      6  C   UNL     1      29.808  15.431  37.780  0.00  0.00    +0.000 C 
ATOM      7  O   UNL     1      29.938  15.130  38.988  0.00  0.00    +0.000 OA
ENDROOT
BRANCH   5   8
ATOM      8  C   UNL     1      31.696  14.065  36.714  0.00  0.00    +0.000 A 
ATOM      9  C   UNL     1      31.508  12.756  37.085  0.00  0.00    +0.000 A 
ATOM     10  C   UNL     1      32.606  11.923  37.118  0.00  0.00    +0.000 A 
ATOM     11  C   UNL     1      33.867  12.339  36.800  0.00  0.00    +0.000 A 
ATOM     12  C   UNL     1      34.061  13.670  36.422  0.00  0.00    +0.000 A 
ATOM     13  C   UNL     1      32.962  14.502  36.390  0.00  0.00    +0.000 A 
BRANCH  11  14
ATOM     14  C   UNL     1      34.981  11.364  36.869  0.00  0.00    +0.000 C 
ATOM     15  C   UNL     1      35.377  11.104  38.314  0.00  0.00    +0.000 C 
ENDBRANCH  11  14
ENDBRANCH   5   8
BRANCH   1  16
ATOM     16  N   UNL     1      27.822  17.012  38.060  0.00  0.00    +0.000 NA
BRANCH  16  20
ATOM     17  C   UNL     1      24.181  15.353  39.469  0.00  0.00    +0.000 A 
ATOM     18  C   UNL     1      25.048  16.046  40.294  0.00  0.00    +0.000 A 
ATOM     19  C   UNL     1      26.236  16.577  39.797  0.00  0.00    +0.000 A 
ATOM     20  C   UNL     1      26.590  16.431  38.467  0.00  0.00    +0.000 A 
ATOM     21  C   UNL     1      25.733  15.746  37.650  0.00  0.00    +0.000 A 
ATOM     22  C   UNL     1      24.547  15.217  38.151  0.00  0.00    +0.000 A 
BRANCH  17  23
ATOM     23  O   UNL     1      22.975  14.808  39.944  0.00  0.00    +0.000 OA
BRANCH  23  25
ATOM     24  C   UNL     1      21.191  14.568  41.567  0.00  0.00    +0.000 C 
ATOM     25  C   UNL     1      22.118  15.499  40.804  0.00  0.00    +0.000 C 
ENDBRANCH  23  25
ENDBRANCH  17  23
ENDBRANCH  16  20
ENDBRANCH   1  16
BRANCH   2  26
ATOM     26  S   UNL     1      27.888  17.463  34.906  0.00  0.00    +0.000 S 
BRANCH  26  27
ATOM     27  C   UNL     1      26.683  16.463  34.060  0.00  0.00    +0.000 A 
ATOM     28  C   UNL     1      26.787  15.085  34.040  0.00  0.00    +0.000 A 
ATOM     29  C   UNL     1      25.825  14.378  33.369  0.00  0.00    +0.000 A 
ATOM     30  C   UNL     1      24.772  14.979  32.722  0.00  0.00    +0.000 A 
ATOM     31  C   UNL     1      24.699  16.364  32.763  0.00  0.00    +0.000 A 
ATOM     32  C   UNL     1      25.641  17.110  33.423  0.00  0.00    +0.000 A 
ENDBRANCH  26  27
ENDBRANCH   2  26
TORSDOF 8
ENDMDL
