MODEL 1
REMARK VINA RESULT:      -7.9      0.000      0.000
REMARK  Name = 
REMARK  6 active torsions:
REMARK  status: ('A' for Active; 'I' for Inactive)
REMARK    1  A    between atoms: O_2  and  C_3
REMARK    2  A    between atoms: C_6  and  C_7
REMARK    3  A    between atoms: C_9  and  C_10
REMARK    4  A    between atoms: N_12  and  C_13
REMARK    5  A    between atoms: C_18  and  C_19
REMARK    6  A    between atoms: C_29  and  O_30
REMARK                            x       y       z     vdW  Elec       q    Type
REMARK                         _______ _______ _______ _____ _____    ______ ____
ROOT
ATOM      1  C   UNL     1      38.901   5.293  16.870  0.00  0.00    +0.000 A 
ATOM      2  C   UNL     1      37.970   4.292  16.818  0.00  0.00    +0.000 A 
ATOM      3  C   UNL     1      37.887   3.366  15.777  0.00  0.00    +0.000 A 
ATOM      4  C   UNL     1      38.809   3.487  14.752  0.00  0.00    +0.000 A 
ATOM      5  C   UNL     1      38.799   2.621  13.696  0.00  0.00    +0.000 A 
ATOM      6  C   UNL     1      39.735   2.773  12.695  0.00  0.00    +0.000 A 
ATOM      7  C   UNL     1      40.665   3.780  12.754  0.00  0.00    +0.000 A 
ATOM      8  C   UNL     1      40.679   4.646  13.803  0.00  0.00    +0.000 A 
ATOM      9  C   UNL     1      39.746   4.508  14.818  0.00  0.00    +0.000 A 
ATOM     10  N   UNL     1      39.775   5.373  15.851  0.00  0.00    +0.000 NA
ENDROOT
BRANCH   1  14
ATOM     11  C   UNL     1      38.902   8.091  19.987  0.00  0.00    +0.000 A 
ATOM     12  C   UNL     1      39.622   6.910  20.136  0.00  0.00    +0.000 A 
ATOM     13  C   UNL     1      39.640   5.974  19.128  0.00  0.00    +0.000 A 
ATOM     14  C   UNL     1      38.934   6.233  17.981  0.00  0.00    +0.000 A 
ATOM     15  C   UNL     1      38.215   7.414  17.830  0.00  0.00    +0.000 A 
ATOM     16  C   UNL     1      38.204   8.332  18.837  0.00  0.00    +0.000 A 
BRANCH  11  18
ATOM     17  C   UNL     1      38.272  10.291  20.759  0.00  0.00    +0.000 C 
ATOM     18  O   UNL     1      38.872   9.049  20.991  0.00  0.00    +0.000 OA
ENDBRANCH  11  18
BRANCH  15  19
ATOM     19  O   UNL     1      37.499   7.661  16.653  0.00  0.00    +0.000 OA
ATOM     20  C   UNL     1      37.207   8.996  16.322  0.00  0.00    +0.000 C 
ENDBRANCH  15  19
ENDBRANCH   1  14
BRANCH   3  21
ATOM     21  C   UNL     1      36.873   2.327  15.772  0.00  0.00    +0.000 C 
ATOM     22  O   UNL     1      35.770   2.510  15.209  0.00  0.00    +0.000 OA
ATOM     23  N   UNL     1      37.134   1.108  16.406  0.00  0.00    +0.000 NA
BRANCH  23  24
ATOM     24  C   UNL     1      36.270   0.018  16.491  0.00  0.00    +0.000 A 
ATOM     25  C   UNL     1      35.224   0.030  17.381  0.00  0.00    +0.000 A 
ATOM     26  C   UNL     1      34.351  -1.039  17.505  0.00  0.00    +0.000 A 
ATOM     27  C   UNL     1      34.534  -2.137  16.721  0.00  0.00    +0.000 A 
ATOM     28  C   UNL     1      35.557  -2.188  15.830  0.00  0.00    +0.000 A 
ATOM     29  C   UNL     1      36.437  -1.096  15.711  0.00  0.00    +0.000 A 
BRANCH  29  30
ATOM     30  C   UNL     1      37.531  -1.170  14.728  0.00  0.00    +0.000 C 
ATOM     31  C   UNL     1      37.942  -2.629  14.587  0.00  0.00    +0.000 C 
ATOM     32  C   UNL     1      37.099  -0.611  13.375  0.00  0.00    +0.000 C 
ENDBRANCH  29  30
ENDBRANCH  23  24
ENDBRANCH   3  21
TORSDOF 6
ENDMDL
MODEL 2
REMARK VINA RESULT:      -7.9      0.895      2.057
REMARK  Name = 
REMARK  6 active torsions:
REMARK  status: ('A' for Active; 'I' for Inactive)
REMARK    1  A    between atoms: O_2  and  C_3
REMARK    2  A    between atoms: C_6  and  C_7
REMARK    3  A    between atoms: C_9  and  C_10
REMARK    4  A    between atoms: N_12  and  C_13
REMARK    5  A    between atoms: C_18  and  C_19
REMARK    6  A    between atoms: C_29  and  O_30
REMARK                            x       y       z     vdW  Elec       q    Type
REMARK                         _______ _______ _______ _____ _____    ______ ____
ROOT
ATOM      1  C   UNL     1      39.402   5.344  16.471  0.00  0.00    +0.000 A 
ATOM      2  C   UNL     1      38.606   4.260  16.220  0.00  0.00    +0.000 A 
ATOM      3  C   UNL     1      38.728   3.457  15.085  0.00  0.00    +0.000 A 
ATOM      4  C   UNL     1      39.716   3.794  14.178  0.00  0.00    +0.000 A 
ATOM      5  C   UNL     1      39.905   3.061  13.042  0.00  0.00    +0.000 A 
ATOM      6  C   UNL     1      40.901   3.428  12.163  0.00  0.00    +0.000 A 
ATOM      7  C   UNL     1      41.695   4.517  12.422  0.00  0.00    +0.000 A 
ATOM      8  C   UNL     1      41.512   5.252  13.551  0.00  0.00    +0.000 A 
ATOM      9  C   UNL     1      40.515   4.897  14.446  0.00  0.00    +0.000 A 
ATOM     10  N   UNL     1      40.349   5.635  15.561  0.00  0.00    +0.000 NA
ENDROOT
BRANCH   1  14
ATOM     11  C   UNL     1      38.784   7.740  19.850  0.00  0.00    +0.000 A 
ATOM     12  C   UNL     1      39.683   6.682  19.926  0.00  0.00    +0.000 A 
ATOM     13  C   UNL     1      39.906   5.879  18.831  0.00  0.00    +0.000 A 
ATOM     14  C   UNL     1      39.224   6.147  17.672  0.00  0.00    +0.000 A 
ATOM     15  C   UNL     1      38.325   7.205  17.595  0.00  0.00    +0.000 A 
ATOM     16  C   UNL     1      38.112   7.992  18.687  0.00  0.00    +0.000 A 
BRANCH  11  18
ATOM     17  C   UNL     1      38.432   9.946  20.769  0.00  0.00    +0.000 C 
ATOM     18  O   UNL     1      38.545   8.563  20.942  0.00  0.00    +0.000 OA
ENDBRANCH  11  18
BRANCH  15  19
ATOM     19  O   UNL     1      37.636   7.464  16.404  0.00  0.00    +0.000 OA
ATOM     20  C   UNL     1      37.008   8.714  16.258  0.00  0.00    +0.000 C 
ENDBRANCH  15  19
ENDBRANCH   1  14
BRANCH   3  21
ATOM     21  C   UNL     1      37.849   2.321  14.869  0.00  0.00    +0.000 C 
ATOM     22  O   UNL     1      36.844   2.419  14.129  0.00  0.00    +0.000 OA
ATOM     23  N   UNL     1      38.132   1.104  15.495  0.00  0.00    +0.000 NA
BRANCH  23  24
ATOM     24  C   UNL     1      37.391  -0.072  15.392  0.00  0.00    +0.000 A 
ATOM     25  C   UNL     1      37.675  -0.988  14.409  0.00  0.00    +0.000 A 
ATOM     26  C   UNL     1      36.953  -2.162  14.265  0.00  0.00    +0.000 A 
ATOM     27  C   UNL     1      35.929  -2.418  15.125  0.00  0.00    +0.000 A 
ATOM     28  C   UNL     1      35.616  -1.538  16.110  0.00  0.00    +0.000 A 
ATOM     29  C   UNL     1      36.357  -0.348  16.247  0.00  0.00    +0.000 A 
BRANCH  29  30
ATOM     30  C   UNL     1      36.006   0.584  17.332  0.00  0.00    +0.000 C 
ATOM     31  C   UNL     1      34.803   1.402  16.882  0.00  0.00    +0.000 C 
ATOM     32  C   UNL     1      35.683  -0.163  18.622  0.00  0.00    +0.000 C 
ENDBRANCH  29  30
ENDBRANCH  23  24
ENDBRANCH   3  21
TORSDOF 6
ENDMDL
MODEL 3
REMARK VINA RESULT:      -7.4      2.334      8.433
REMARK  Name = 
REMARK  6 active torsions:
REMARK  status: ('A' for Active; 'I' for Inactive)
REMARK    1  A    between atoms: O_2  and  C_3
REMARK    2  A    between atoms: C_6  and  C_7
REMARK    3  A    between atoms: C_9  and  C_10
REMARK    4  A    between atoms: N_12  and  C_13
REMARK    5  A    between atoms: C_18  and  C_19
REMARK    6  A    between atoms: C_29  and  O_30
REMARK                            x       y       z     vdW  Elec       q    Type
REMARK                         _______ _______ _______ _____ _____    ______ ____
ROOT
ATOM      1  C   UNL     1      36.234   2.788  15.520  0.00  0.00    +0.000 A 
ATOM      2  C   UNL     1      37.221   3.438  16.210  0.00  0.00    +0.000 A 
ATOM      3  C   UNL     1      37.617   4.748  15.941  0.00  0.00    +0.000 A 
ATOM      4  C   UNL     1      36.962   5.407  14.916  0.00  0.00    +0.000 A 
ATOM      5  C   UNL     1      37.286   6.692  14.589  0.00  0.00    +0.000 A 
ATOM      6  C   UNL     1      36.609   7.316  13.562  0.00  0.00    +0.000 A 
ATOM      7  C   UNL     1      35.621   6.656  12.876  0.00  0.00    +0.000 A 
ATOM      8  C   UNL     1      35.292   5.376  13.197  0.00  0.00    +0.000 A 
ATOM      9  C   UNL     1      35.963   4.735  14.226  0.00  0.00    +0.000 A 
ATOM     10  N   UNL     1      35.625   3.466  14.532  0.00  0.00    +0.000 NA
ENDROOT
BRANCH   1  14
ATOM     11  C   UNL     1      35.274  -1.206  16.341  0.00  0.00    +0.000 A 
ATOM     12  C   UNL     1      34.691  -0.199  17.103  0.00  0.00    +0.000 A 
ATOM     13  C   UNL     1      34.987   1.122  16.855  0.00  0.00    +0.000 A 
ATOM     14  C   UNL     1      35.867   1.417  15.844  0.00  0.00    +0.000 A 
ATOM     15  C   UNL     1      36.451   0.411  15.082  0.00  0.00    +0.000 A 
ATOM     16  C   UNL     1      36.149  -0.893  15.339  0.00  0.00    +0.000 A 
BRANCH  11  18
ATOM     17  C   UNL     1      35.011  -3.462  15.520  0.00  0.00    +0.000 C 
ATOM     18  O   UNL     1      34.988  -2.544  16.575  0.00  0.00    +0.000 OA
ENDBRANCH  11  18
BRANCH  15  19
ATOM     19  O   UNL     1      37.347   0.730  14.056  0.00  0.00    +0.000 OA
ATOM     20  C   UNL     1      36.988   0.408  12.735  0.00  0.00    +0.000 C 
ENDBRANCH  15  19
ENDBRANCH   1  14
BRANCH   3  21
ATOM     21  C   UNL     1      38.676   5.386  16.702  0.00  0.00    +0.000 C 
ATOM     22  O   UNL     1      39.834   5.479  16.237  0.00  0.00    +0.000 OA
ATOM     23  N   UNL     1      38.397   5.901  17.972  0.00  0.00    +0.000 NA
BRANCH  23  24
ATOM     24  C   UNL     1      39.298   6.535  18.824  0.00  0.00    +0.000 A 
ATOM     25  C   UNL     1      40.374   5.850  19.332  0.00  0.00    +0.000 A 
ATOM     26  C   UNL     1      41.285   6.442  20.193  0.00  0.00    +0.000 A 
ATOM     27  C   UNL     1      41.109   7.745  20.548  0.00  0.00    +0.000 A 
ATOM     28  C   UNL     1      40.056   8.457  20.068  0.00  0.00    +0.000 A 
ATOM     29  C   UNL     1      39.138   7.845  19.194  0.00  0.00    +0.000 A 
BRANCH  29  30
ATOM     30  C   UNL     1      38.013   8.642  18.677  0.00  0.00    +0.000 C 
ATOM     31  C   UNL     1      37.002   8.819  19.802  0.00  0.00    +0.000 C 
ATOM     32  C   UNL     1      38.483  10.004  18.173  0.00  0.00    +0.000 C 
ENDBRANCH  29  30
ENDBRANCH  23  24
ENDBRANCH   3  21
TORSDOF 6
ENDMDL
MODEL 4
REMARK VINA RESULT:      -7.3      3.132      8.408
REMARK  Name = 
REMARK  6 active torsions:
REMARK  status: ('A' for Active; 'I' for Inactive)
REMARK    1  A    between atoms: O_2  and  C_3
REMARK    2  A    between atoms: C_6  and  C_7
REMARK    3  A    between atoms: C_9  and  C_10
REMARK    4  A    between atoms: N_12  and  C_13
REMARK    5  A    between atoms: C_18  and  C_19
REMARK    6  A    between atoms: C_29  and  O_30
REMARK                            x       y       z     vdW  Elec       q    Type
REMARK                         _______ _______ _______ _____ _____    ______ ____
ROOT
ATOM      1  C   UNL     1      36.771   2.741  16.379  0.00  0.00    +0.000 A 
ATOM      2  C   UNL     1      36.524   3.560  15.311  0.00  0.00    +0.000 A 
ATOM      3  C   UNL     1      37.015   4.861  15.204  0.00  0.00    +0.000 A 
ATOM      4  C   UNL     1      37.794   5.328  16.248  0.00  0.00    +0.000 A 
ATOM      5  C   UNL     1      38.316   6.589  16.224  0.00  0.00    +0.000 A 
ATOM      6  C   UNL     1      39.089   7.017  17.282  0.00  0.00    +0.000 A 
ATOM      7  C   UNL     1      39.331   6.190  18.350  0.00  0.00    +0.000 A 
ATOM      8  C   UNL     1      38.814   4.933  18.381  0.00  0.00    +0.000 A 
ATOM      9  C   UNL     1      38.035   4.486  17.325  0.00  0.00    +0.000 A 
ATOM     10  N   UNL     1      37.532   3.237  17.371  0.00  0.00    +0.000 NA
ENDROOT
BRANCH   1  14
ATOM     11  C   UNL     1      35.330  -1.191  16.470  0.00  0.00    +0.000 A 
ATOM     12  C   UNL     1      34.565  -0.176  17.034  0.00  0.00    +0.000 A 
ATOM     13  C   UNL     1      35.013   1.125  17.018  0.00  0.00    +0.000 A 
ATOM     14  C   UNL     1      36.226   1.392  16.435  0.00  0.00    +0.000 A 
ATOM     15  C   UNL     1      36.992   0.378  15.871  0.00  0.00    +0.000 A 
ATOM     16  C   UNL     1      36.537  -0.906  15.894  0.00  0.00    +0.000 A 
BRANCH  11  18
ATOM     17  C   UNL     1      34.957  -3.274  15.305  0.00  0.00    +0.000 C 
ATOM     18  O   UNL     1      34.896  -2.510  16.475  0.00  0.00    +0.000 OA
ENDBRANCH  11  18
BRANCH  15  19
ATOM     19  O   UNL     1      38.228   0.669  15.282  0.00  0.00    +0.000 OA
ATOM     20  C   UNL     1      38.427   0.302  13.939  0.00  0.00    +0.000 C 
ENDBRANCH  15  19
ENDBRANCH   1  14
BRANCH   3  21
ATOM     21  C   UNL     1      36.715   5.687  14.049  0.00  0.00    +0.000 C 
ATOM     22  O   UNL     1      37.531   5.794  13.106  0.00  0.00    +0.000 OA
ATOM     23  N   UNL     1      35.497   6.372  13.991  0.00  0.00    +0.000 NA
BRANCH  23  24
ATOM     24  C   UNL     1      35.062   7.201  12.960  0.00  0.00    +0.000 A 
ATOM     25  C   UNL     1      34.708   6.670  11.744  0.00  0.00    +0.000 A 
ATOM     26  C   UNL     1      34.283   7.463  10.690  0.00  0.00    +0.000 A 
ATOM     27  C   UNL     1      34.213   8.811  10.862  0.00  0.00    +0.000 A 
ATOM     28  C   UNL     1      34.554   9.376  12.049  0.00  0.00    +0.000 A 
ATOM     29  C   UNL     1      34.984   8.561  13.114  0.00  0.00    +0.000 A 
BRANCH  29  30
ATOM     30  C   UNL     1      35.337   9.195  14.395  0.00  0.00    +0.000 C 
ATOM     31  C   UNL     1      36.754   9.739  14.279  0.00  0.00    +0.000 C 
ATOM     32  C   UNL     1      34.367  10.321  14.741  0.00  0.00    +0.000 C 
ENDBRANCH  29  30
ENDBRANCH  23  24
ENDBRANCH   3  21
TORSDOF 6
ENDMDL
MODEL 5
REMARK VINA RESULT:      -7.2      2.293      2.971
REMARK  Name = 
REMARK  6 active torsions:
REMARK  status: ('A' for Active; 'I' for Inactive)
REMARK    1  A    between atoms: O_2  and  C_3
REMARK    2  A    between atoms: C_6  and  C_7
REMARK    3  A    between atoms: C_9  and  C_10
REMARK    4  A    between atoms: N_12  and  C_13
REMARK    5  A    between atoms: C_18  and  C_19
REMARK    6  A    between atoms: C_29  and  O_30
REMARK                            x       y       z     vdW  Elec       q    Type
REMARK                         _______ _______ _______ _____ _____    ______ ____
ROOT
ATOM      1  C   UNL     1      38.542   5.716  16.552  0.00  0.00    +0.000 A 
ATOM      2  C   UNL     1      37.886   4.517  16.487  0.00  0.00    +0.000 A 
ATOM      3  C   UNL     1      36.926   4.212  15.521  0.00  0.00    +0.000 A 
ATOM      4  C   UNL     1      36.638   5.192  14.588  0.00  0.00    +0.000 A 
ATOM      5  C   UNL     1      35.713   4.976  13.608  0.00  0.00    +0.000 A 
ATOM      6  C   UNL     1      35.455   5.976  12.694  0.00  0.00    +0.000 A 
ATOM      7  C   UNL     1      36.117   7.176  12.767  0.00  0.00    +0.000 A 
ATOM      8  C   UNL     1      37.040   7.397  13.741  0.00  0.00    +0.000 A 
ATOM      9  C   UNL     1      37.311   6.403  14.667  0.00  0.00    +0.000 A 
ATOM     10  N   UNL     1      38.230   6.639  15.625  0.00  0.00    +0.000 NA
ENDROOT
BRANCH   1  14
ATOM     11  C   UNL     1      41.499   6.477  19.420  0.00  0.00    +0.000 A 
ATOM     12  C   UNL     1      40.183   6.301  19.834  0.00  0.00    +0.000 A 
ATOM     13  C   UNL     1      39.191   6.049  18.914  0.00  0.00    +0.000 A 
ATOM     14  C   UNL     1      39.532   5.977  17.587  0.00  0.00    +0.000 A 
ATOM     15  C   UNL     1      40.847   6.153  17.172  0.00  0.00    +0.000 A 
ATOM     16  C   UNL     1      41.820   6.403  18.093  0.00  0.00    +0.000 A 
BRANCH  11  18
ATOM     17  C   UNL     1      43.849   6.728  19.916  0.00  0.00    +0.000 C 
ATOM     18  O   UNL     1      42.513   6.731  20.332  0.00  0.00    +0.000 OA
ENDBRANCH  11  18
BRANCH  15  19
ATOM     19  O   UNL     1      41.177   6.077  15.814  0.00  0.00    +0.000 OA
ATOM     20  C   UNL     1      42.448   6.526  15.412  0.00  0.00    +0.000 C 
ENDBRANCH  15  19
ENDBRANCH   1  14
BRANCH   3  21
ATOM     21  C   UNL     1      36.257   2.924  15.505  0.00  0.00    +0.000 C 
ATOM     22  O   UNL     1      35.247   2.734  14.790  0.00  0.00    +0.000 OA
ATOM     23  N   UNL     1      36.748   1.884  16.300  0.00  0.00    +0.000 NA
BRANCH  23  24
ATOM     24  C   UNL     1      36.222   0.597  16.398  0.00  0.00    +0.000 A 
ATOM     25  C   UNL     1      35.146   0.347  17.214  0.00  0.00    +0.000 A 
ATOM     26  C   UNL     1      34.602  -0.920  17.349  0.00  0.00    +0.000 A 
ATOM     27  C   UNL     1      35.150  -1.953  16.650  0.00  0.00    +0.000 A 
ATOM     28  C   UNL     1      36.214  -1.747  15.833  0.00  0.00    +0.000 A 
ATOM     29  C   UNL     1      36.759  -0.455  15.703  0.00  0.00    +0.000 A 
BRANCH  29  30
ATOM     30  C   UNL     1      37.905  -0.255  14.800  0.00  0.00    +0.000 C 
ATOM     31  C   UNL     1      39.089  -1.031  15.361  0.00  0.00    +0.000 C 
ATOM     32  C   UNL     1      37.586  -0.731  13.386  0.00  0.00    +0.000 C 
ENDBRANCH  29  30
ENDBRANCH  23  24
ENDBRANCH   3  21
TORSDOF 6
ENDMDL
MODEL 6
REMARK VINA RESULT:      -7.2      3.676      5.619
REMARK  Name = 
REMARK  6 active torsions:
REMARK  status: ('A' for Active; 'I' for Inactive)
REMARK    1  A    between atoms: O_2  and  C_3
REMARK    2  A    between atoms: C_6  and  C_7
REMARK    3  A    between atoms: C_9  and  C_10
REMARK    4  A    between atoms: N_12  and  C_13
REMARK    5  A    between atoms: C_18  and  C_19
REMARK    6  A    between atoms: C_29  and  O_30
REMARK                            x       y       z     vdW  Elec       q    Type
REMARK                         _______ _______ _______ _____ _____    ______ ____
ROOT
ATOM      1  C   UNL     1      36.160   5.522  13.761  0.00  0.00    +0.000 A 
ATOM      2  C   UNL     1      35.812   4.300  14.269  0.00  0.00    +0.000 A 
ATOM      3  C   UNL     1      36.355   3.766  15.438  0.00  0.00    +0.000 A 
ATOM      4  C   UNL     1      37.295   4.532  16.103  0.00  0.00    +0.000 A 
ATOM      5  C   UNL     1      37.875   4.085  17.256  0.00  0.00    +0.000 A 
ATOM      6  C   UNL     1      38.807   4.879  17.890  0.00  0.00    +0.000 A 
ATOM      7  C   UNL     1      39.151   6.102  17.373  0.00  0.00    +0.000 A 
ATOM      8  C   UNL     1      38.577   6.553  16.226  0.00  0.00    +0.000 A 
ATOM      9  C   UNL     1      37.638   5.768  15.575  0.00  0.00    +0.000 A 
ATOM     10  N   UNL     1      37.078   6.231  14.440  0.00  0.00    +0.000 NA
ENDROOT
BRANCH   1  14
ATOM     11  C   UNL     1      34.320   7.027  10.312  0.00  0.00    +0.000 A 
ATOM     12  C   UNL     1      35.527   6.345  10.194  0.00  0.00    +0.000 A 
ATOM     13  C   UNL     1      36.153   5.840  11.309  0.00  0.00    +0.000 A 
ATOM     14  C   UNL     1      35.561   6.024  12.533  0.00  0.00    +0.000 A 
ATOM     15  C   UNL     1      34.354   6.705  12.652  0.00  0.00    +0.000 A 
ATOM     16  C   UNL     1      33.745   7.202  11.539  0.00  0.00    +0.000 A 
BRANCH  11  18
ATOM     17  C   UNL     1      34.402   8.200   8.202  0.00  0.00    +0.000 C 
ATOM     18  O   UNL     1      33.672   7.544   9.199  0.00  0.00    +0.000 OA
ENDBRANCH  11  18
BRANCH  15  19
ATOM     19  O   UNL     1      33.764   6.885  13.909  0.00  0.00    +0.000 OA
ATOM     20  C   UNL     1      33.825   8.162  14.495  0.00  0.00    +0.000 C 
ENDBRANCH  15  19
ENDBRANCH   1  14
BRANCH   3  21
ATOM     21  C   UNL     1      35.952   2.460  15.927  0.00  0.00    +0.000 C 
ATOM     22  O   UNL     1      34.742   2.171  16.066  0.00  0.00    +0.000 OA
ATOM     23  N   UNL     1      36.930   1.513  16.246  0.00  0.00    +0.000 NA
BRANCH  23  24
ATOM     24  C   UNL     1      36.709   0.224  16.727  0.00  0.00    +0.000 A 
ATOM     25  C   UNL     1      35.940   0.022  17.846  0.00  0.00    +0.000 A 
ATOM     26  C   UNL     1      35.707  -1.243  18.362  0.00  0.00    +0.000 A 
ATOM     27  C   UNL     1      36.257  -2.322  17.741  0.00  0.00    +0.000 A 
ATOM     28  C   UNL     1      37.024  -2.165  16.631  0.00  0.00    +0.000 A 
ATOM     29  C   UNL     1      37.253  -0.875  16.115  0.00  0.00    +0.000 A 
BRANCH  29  30
ATOM     30  C   UNL     1      38.078  -0.732  14.903  0.00  0.00    +0.000 C 
ATOM     31  C   UNL     1      39.480  -1.232  15.224  0.00  0.00    +0.000 C 
ATOM     32  C   UNL     1      37.490  -1.523  13.738  0.00  0.00    +0.000 C 
ENDBRANCH  29  30
ENDBRANCH  23  24
ENDBRANCH   3  21
TORSDOF 6
ENDMDL
MODEL 7
REMARK VINA RESULT:      -7.1      4.689      8.742
REMARK  Name = 
REMARK  6 active torsions:
REMARK  status: ('A' for Active; 'I' for Inactive)
REMARK    1  A    between atoms: O_2  and  C_3
REMARK    2  A    between atoms: C_6  and  C_7
REMARK    3  A    between atoms: C_9  and  C_10
REMARK    4  A    between atoms: N_12  and  C_13
REMARK    5  A    between atoms: C_18  and  C_19
REMARK    6  A    between atoms: C_29  and  O_30
REMARK                            x       y       z     vdW  Elec       q    Type
REMARK                         _______ _______ _______ _____ _____    ______ ____
ROOT
ATOM      1  C   UNL     1      41.334  -1.106  12.746  0.00  0.00    +0.000 A 
ATOM      2  C   UNL     1      40.353  -1.376  13.661  0.00  0.00    +0.000 A 
ATOM      3  C   UNL     1      39.619  -0.390  14.321  0.00  0.00    +0.000 A 
ATOM      4  C   UNL     1      39.917   0.927  14.016  0.00  0.00    +0.000 A 
ATOM      5  C   UNL     1      39.245   1.954  14.615  0.00  0.00    +0.000 A 
ATOM      6  C   UNL     1      39.569   3.252  14.284  0.00  0.00    +0.000 A 
ATOM      7  C   UNL     1      40.555   3.514  13.366  0.00  0.00    +0.000 A 
ATOM      8  C   UNL     1      41.228   2.495  12.766  0.00  0.00    +0.000 A 
ATOM      9  C   UNL     1      40.914   1.184  13.087  0.00  0.00    +0.000 A 
ATOM     10  N   UNL     1      41.590   0.187  12.482  0.00  0.00    +0.000 NA
ENDROOT
BRANCH   1  14
ATOM     11  C   UNL     1      43.556  -4.186  10.979  0.00  0.00    +0.000 A 
ATOM     12  C   UNL     1      42.362  -3.787  10.388  0.00  0.00    +0.000 A 
ATOM     13  C   UNL     1      41.612  -2.778  10.946  0.00  0.00    +0.000 A 
ATOM     14  C   UNL     1      42.069  -2.179  12.093  0.00  0.00    +0.000 A 
ATOM     15  C   UNL     1      43.263  -2.577  12.685  0.00  0.00    +0.000 A 
ATOM     16  C   UNL     1      43.996  -3.579  12.122  0.00  0.00    +0.000 A 
BRANCH  11  18
ATOM     17  C   UNL     1      45.642  -5.399  10.869  0.00  0.00    +0.000 C 
ATOM     18  O   UNL     1      44.328  -5.201  10.432  0.00  0.00    +0.000 OA
ENDBRANCH  11  18
BRANCH  15  19
ATOM     19  O   UNL     1      43.714  -1.956  13.855  0.00  0.00    +0.000 OA
ATOM     20  C   UNL     1      44.944  -1.277  13.816  0.00  0.00    +0.000 C 
ENDBRANCH  15  19
ENDBRANCH   1  14
BRANCH   3  21
ATOM     21  C   UNL     1      38.593  -0.735  15.288  0.00  0.00    +0.000 C 
ATOM     22  O   UNL     1      38.896  -1.047  16.462  0.00  0.00    +0.000 OA
ATOM     23  N   UNL     1      37.249  -0.719  14.901  0.00  0.00    +0.000 NA
BRANCH  23  24
ATOM     24  C   UNL     1      36.152  -1.025  15.704  0.00  0.00    +0.000 A 
ATOM     25  C   UNL     1      35.570  -0.056  16.483  0.00  0.00    +0.000 A 
ATOM     26  C   UNL     1      34.487  -0.323  17.305  0.00  0.00    +0.000 A 
ATOM     27  C   UNL     1      33.982  -1.587  17.343  0.00  0.00    +0.000 A 
ATOM     28  C   UNL     1      34.529  -2.574  16.587  0.00  0.00    +0.000 A 
ATOM     29  C   UNL     1      35.629  -2.290  15.755  0.00  0.00    +0.000 A 
BRANCH  29  30
ATOM     30  C   UNL     1      36.197  -3.374  14.936  0.00  0.00    +0.000 C 
ATOM     31  C   UNL     1      37.191  -4.144  15.794  0.00  0.00    +0.000 C 
ATOM     32  C   UNL     1      35.106  -4.311  14.424  0.00  0.00    +0.000 C 
ENDBRANCH  29  30
ENDBRANCH  23  24
ENDBRANCH   3  21
TORSDOF 6
ENDMDL
MODEL 8
REMARK VINA RESULT:      -7.0      2.813      8.382
REMARK  Name = 
REMARK  6 active torsions:
REMARK  status: ('A' for Active; 'I' for Inactive)
REMARK    1  A    between atoms: O_2  and  C_3
REMARK    2  A    between atoms: C_6  and  C_7
REMARK    3  A    between atoms: C_9  and  C_10
REMARK    4  A    between atoms: N_12  and  C_13
REMARK    5  A    between atoms: C_18  and  C_19
REMARK    6  A    between atoms: C_29  and  O_30
REMARK                            x       y       z     vdW  Elec       q    Type
REMARK                         _______ _______ _______ _____ _____    ______ ____
ROOT
ATOM      1  C   UNL     1      38.109   4.108  15.960  0.00  0.00    +0.000 A 
ATOM      2  C   UNL     1      37.727   5.234  15.283  0.00  0.00    +0.000 A 
ATOM      3  C   UNL     1      37.841   6.524  15.801  0.00  0.00    +0.000 A 
ATOM      4  C   UNL     1      38.373   6.647  17.072  0.00  0.00    +0.000 A 
ATOM      5  C   UNL     1      38.522   7.873  17.654  0.00  0.00    +0.000 A 
ATOM      6  C   UNL     1      39.058   7.955  18.922  0.00  0.00    +0.000 A 
ATOM      7  C   UNL     1      39.438   6.821  19.594  0.00  0.00    +0.000 A 
ATOM      8  C   UNL     1      39.293   5.596  19.020  0.00  0.00    +0.000 A 
ATOM      9  C   UNL     1      38.755   5.496  17.747  0.00  0.00    +0.000 A 
ATOM     10  N   UNL     1      38.620   4.275  17.192  0.00  0.00    +0.000 NA
ENDROOT
BRANCH   1  14
ATOM     11  C   UNL     1      37.537   0.300  14.310  0.00  0.00    +0.000 A 
ATOM     12  C   UNL     1      38.750   0.950  14.109  0.00  0.00    +0.000 A 
ATOM     13  C   UNL     1      38.966   2.201  14.640  0.00  0.00    +0.000 A 
ATOM     14  C   UNL     1      37.960   2.786  15.367  0.00  0.00    +0.000 A 
ATOM     15  C   UNL     1      36.747   2.137  15.569  0.00  0.00    +0.000 A 
ATOM     16  C   UNL     1      36.546   0.899  15.037  0.00  0.00    +0.000 A 
BRANCH  11  18
ATOM     17  C   UNL     1      36.714  -1.955  14.577  0.00  0.00    +0.000 C 
ATOM     18  O   UNL     1      37.300  -0.963  13.785  0.00  0.00    +0.000 OA
ENDBRANCH  11  18
BRANCH  15  19
ATOM     19  O   UNL     1      35.732   2.749  16.312  0.00  0.00    +0.000 OA
ATOM     20  C   UNL     1      34.505   3.009  15.675  0.00  0.00    +0.000 C 
ENDBRANCH  15  19
ENDBRANCH   1  14
BRANCH   3  21
ATOM     21  C   UNL     1      37.413   7.682  15.039  0.00  0.00    +0.000 C 
ATOM     22  O   UNL     1      38.210   8.285  14.285  0.00  0.00    +0.000 OA
ATOM     23  N   UNL     1      36.092   8.129  15.149  0.00  0.00    +0.000 NA
BRANCH  23  24
ATOM     24  C   UNL     1      35.529   9.220  14.490  0.00  0.00    +0.000 A 
ATOM     25  C   UNL     1      35.654  10.485  15.010  0.00  0.00    +0.000 A 
ATOM     26  C   UNL     1      35.097  11.593  14.391  0.00  0.00    +0.000 A 
ATOM     27  C   UNL     1      34.405  11.425  13.231  0.00  0.00    +0.000 A 
ATOM     28  C   UNL     1      34.259  10.191  12.685  0.00  0.00    +0.000 A 
ATOM     29  C   UNL     1      34.829   9.072  13.321  0.00  0.00    +0.000 A 
BRANCH  29  30
ATOM     30  C   UNL     1      34.668   7.745  12.702  0.00  0.00    +0.000 C 
ATOM     31  C   UNL     1      33.462   7.070  13.339  0.00  0.00    +0.000 C 
ATOM     32  C   UNL     1      34.474   7.858  11.193  0.00  0.00    +0.000 C 
ENDBRANCH  29  30
ENDBRANCH  23  24
ENDBRANCH   3  21
TORSDOF 6
ENDMDL
MODEL 9
REMARK VINA RESULT:      -7.0     24.502     28.450
REMARK  Name = 
REMARK  6 active torsions:
REMARK  status: ('A' for Active; 'I' for Inactive)
REMARK    1  A    between atoms: O_2  and  C_3
REMARK    2  A    between atoms: C_6  and  C_7
REMARK    3  A    between atoms: C_9  and  C_10
REMARK    4  A    between atoms: N_12  and  C_13
REMARK    5  A    between atoms: C_18  and  C_19
REMARK    6  A    between atoms: C_29  and  O_30
REMARK                            x       y       z     vdW  Elec       q    Type
REMARK                         _______ _______ _______ _____ _____    ______ ____
ROOT
ATOM      1  C   UNL     1      26.853  13.753  40.628  0.00  0.00    +0.000 A 
ATOM      2  C   UNL     1      26.266  13.985  39.414  0.00  0.00    +0.000 A 
ATOM      3  C   UNL     1      26.210  15.241  38.809  0.00  0.00    +0.000 A 
ATOM      4  C   UNL     1      26.786  16.296  39.494  0.00  0.00    +0.000 A 
ATOM      5  C   UNL     1      26.777  17.558  38.973  0.00  0.00    +0.000 A 
ATOM      6  C   UNL     1      27.364  18.583  39.684  0.00  0.00    +0.000 A 
ATOM      7  C   UNL     1      27.949  18.342  40.901  0.00  0.00    +0.000 A 
ATOM      8  C   UNL     1      27.962  17.088  41.426  0.00  0.00    +0.000 A 
ATOM      9  C   UNL     1      27.377  16.046  40.724  0.00  0.00    +0.000 A 
ATOM     10  N   UNL     1      27.400  14.808  41.258  0.00  0.00    +0.000 NA
ENDROOT
BRANCH   1  14
ATOM     11  C   UNL     1      26.789   9.949  42.380  0.00  0.00    +0.000 A 
ATOM     12  C   UNL     1      27.816  10.272  41.500  0.00  0.00    +0.000 A 
ATOM     13  C   UNL     1      27.863  11.515  40.910  0.00  0.00    +0.000 A 
ATOM     14  C   UNL     1      26.876  12.420  41.211  0.00  0.00    +0.000 A 
ATOM     15  C   UNL     1      25.849  12.098  42.091  0.00  0.00    +0.000 A 
ATOM     16  C   UNL     1      25.814  10.863  42.667  0.00  0.00    +0.000 A 
BRANCH  11  18
ATOM     17  C   UNL     1      27.056   7.551  42.262  0.00  0.00    +0.000 C 
ATOM     18  O   UNL     1      26.724   8.702  42.985  0.00  0.00    +0.000 OA
ENDBRANCH  11  18
BRANCH  15  19
ATOM     19  O   UNL     1      24.850  13.033  42.385  0.00  0.00    +0.000 OA
ATOM     20  C   UNL     1      24.223  12.962  43.642  0.00  0.00    +0.000 C 
ENDBRANCH  15  19
ENDBRANCH   1  14
BRANCH   3  21
ATOM     21  C   UNL     1      25.567  15.428  37.521  0.00  0.00    +0.000 C 
ATOM     22  O   UNL     1      24.332  15.609  37.440  0.00  0.00    +0.000 OA
ATOM     23  N   UNL     1      26.342  15.406  36.357  0.00  0.00    +0.000 NA
BRANCH  23  24
ATOM     24  C   UNL     1      25.880  15.567  35.052  0.00  0.00    +0.000 A 
ATOM     25  C   UNL     1      25.711  14.476  34.236  0.00  0.00    +0.000 A 
ATOM     26  C   UNL     1      25.266  14.595  32.929  0.00  0.00    +0.000 A 
ATOM     27  C   UNL     1      24.986  15.833  32.436  0.00  0.00    +0.000 A 
ATOM     28  C   UNL     1      25.140  16.937  33.211  0.00  0.00    +0.000 A 
ATOM     29  C   UNL     1      25.592  16.804  34.538  0.00  0.00    +0.000 A 
BRANCH  29  30
ATOM     30  C   UNL     1      25.738  18.015  35.362  0.00  0.00    +0.000 C 
ATOM     31  C   UNL     1      27.065  18.672  35.007  0.00  0.00    +0.000 C 
ATOM     32  C   UNL     1      24.588  18.990  35.125  0.00  0.00    +0.000 C 
ENDBRANCH  29  30
ENDBRANCH  23  24
ENDBRANCH   3  21
TORSDOF 6
ENDMDL
MODEL 10
REMARK VINA RESULT:      -6.9      4.461      9.049
REMARK  Name = 
REMARK  6 active torsions:
REMARK  status: ('A' for Active; 'I' for Inactive)
REMARK    1  A    between atoms: O_2  and  C_3
REMARK    2  A    between atoms: C_6  and  C_7
REMARK    3  A    between atoms: C_9  and  C_10
REMARK    4  A    between atoms: N_12  and  C_13
REMARK    5  A    between atoms: C_18  and  C_19
REMARK    6  A    between atoms: C_29  and  O_30
REMARK                            x       y       z     vdW  Elec       q    Type
REMARK                         _______ _______ _______ _____ _____    ______ ____
ROOT
ATOM      1  C   UNL     1      40.947  -2.083  14.723  0.00  0.00    +0.000 A 
ATOM      2  C   UNL     1      40.049  -1.109  14.381  0.00  0.00    +0.000 A 
ATOM      3  C   UNL     1      38.751  -1.041  14.889  0.00  0.00    +0.000 A 
ATOM      4  C   UNL     1      38.374  -2.025  15.786  0.00  0.00    +0.000 A 
ATOM      5  C   UNL     1      37.122  -2.032  16.332  0.00  0.00    +0.000 A 
ATOM      6  C   UNL     1      36.785  -3.028  17.224  0.00  0.00    +0.000 A 
ATOM      7  C   UNL     1      37.691  -4.001  17.561  0.00  0.00    +0.000 A 
ATOM      8  C   UNL     1      38.939  -3.999  17.021  0.00  0.00    +0.000 A 
ATOM      9  C   UNL     1      39.295  -3.006  16.122  0.00  0.00    +0.000 A 
ATOM     10  N   UNL     1      40.537  -3.018  15.597  0.00  0.00    +0.000 NA
ENDROOT
BRANCH   1  14
ATOM     11  C   UNL     1      44.751  -2.229  12.975  0.00  0.00    +0.000 A 
ATOM     12  C   UNL     1      44.569  -1.493  14.141  0.00  0.00    +0.000 A 
ATOM     13  C   UNL     1      43.331  -1.428  14.737  0.00  0.00    +0.000 A 
ATOM     14  C   UNL     1      42.287  -2.103  14.156  0.00  0.00    +0.000 A 
ATOM     15  C   UNL     1      42.468  -2.839  12.990  0.00  0.00    +0.000 A 
ATOM     16  C   UNL     1      43.700  -2.895  12.409  0.00  0.00    +0.000 A 
BRANCH  11  18
ATOM     17  C   UNL     1      46.434  -3.523  11.824  0.00  0.00    +0.000 C 
ATOM     18  O   UNL     1      45.992  -2.308  12.358  0.00  0.00    +0.000 OA
ENDBRANCH  11  18
BRANCH  15  19
ATOM     19  O   UNL     1      41.392  -3.521  12.409  0.00  0.00    +0.000 OA
ATOM     20  C   UNL     1      40.916  -3.074  11.164  0.00  0.00    +0.000 C 
ENDBRANCH  15  19
ENDBRANCH   1  14
BRANCH   3  21
ATOM     21  C   UNL     1      37.838   0.013  14.485  0.00  0.00    +0.000 C 
ATOM     22  O   UNL     1      37.212  -0.060  13.404  0.00  0.00    +0.000 OA
ATOM     23  N   UNL     1      37.659   1.123  15.316  0.00  0.00    +0.000 NA
BRANCH  23  24
ATOM     24  C   UNL     1      36.826   2.213  15.073  0.00  0.00    +0.000 A 
ATOM     25  C   UNL     1      35.491   2.153  15.390  0.00  0.00    +0.000 A 
ATOM     26  C   UNL     1      34.629   3.210  15.152  0.00  0.00    +0.000 A 
ATOM     27  C   UNL     1      35.117   4.348  14.585  0.00  0.00    +0.000 A 
ATOM     28  C   UNL     1      36.431   4.447  14.255  0.00  0.00    +0.000 A 
ATOM     29  C   UNL     1      37.298   3.366  14.503  0.00  0.00    +0.000 A 
BRANCH  29  30
ATOM     30  C   UNL     1      38.721   3.504  14.149  0.00  0.00    +0.000 C 
ATOM     31  C   UNL     1      38.854   3.315  12.644  0.00  0.00    +0.000 C 
ATOM     32  C   UNL     1      39.265   4.869  14.559  0.00  0.00    +0.000 C 
ENDBRANCH  29  30
ENDBRANCH  23  24
ENDBRANCH   3  21
TORSDOF 6
ENDMDL
