MODEL 1
REMARK VINA RESULT:      -7.1      0.000      0.000
REMARK  Name = 
REMARK  4 active torsions:
REMARK  status: ('A' for Active; 'I' for Inactive)
REMARK    1  A    between atoms: C_2  and  N_3
REMARK    2  A    between atoms: C_2  and  C_9
REMARK    3  A    between atoms: N_3  and  O_4
REMARK    4  A    between atoms: O_4  and  C_5
REMARK                            x       y       z     vdW  Elec       q    Type
REMARK                         _______ _______ _______ _____ _____    ______ ____
ROOT
ATOM      1  C   UNL     1      15.691  12.176  35.152  0.00  0.00    +0.000 A 
ATOM      2  S   UNL     1      14.496  13.332  34.791  0.00  0.00    +0.000 S 
ATOM      3  C   UNL     1      14.394  13.109  33.096  0.00  0.00    +0.000 A 
ATOM      4  C   UNL     1      13.631  13.693  32.070  0.00  0.00    +0.000 A 
ATOM      5  C   UNL     1      13.765  13.302  30.757  0.00  0.00    +0.000 A 
ATOM      6  C   UNL     1      14.692  12.308  30.535  0.00  0.00    +0.000 A 
ATOM      7  C   UNL     1      15.443  11.727  31.520  0.00  0.00    +0.000 A 
ATOM      8  C   UNL     1      15.305  12.128  32.864  0.00  0.00    +0.000 A 
ATOM      9  C   UNL     1      15.982  11.639  33.930  0.00  0.00    +0.000 A 
ATOM     10  C   UNL     1      17.038  10.541  33.854  0.00  0.00    +0.000 C 
ENDROOT
BRANCH   1  12
ATOM     11  C   UNL     1      17.356  12.415  36.924  0.00  0.00    +0.000 C 
ATOM     12  C   UNL     1      16.287  11.818  36.464  0.00  0.00    +0.000 C 
BRANCH  12  13
ATOM     13  N   UNL     1      15.652  10.795  37.211  0.00  0.00    +0.000 NA
BRANCH  13  14
ATOM     14  O   UNL     1      14.884  11.076  38.315  0.00  0.00    +0.000 OA
BRANCH  14  15
ATOM     15  C   UNL     1      13.502  10.967  38.314  0.00  0.00    +0.000 C 
ATOM     16  O   UNL     1      12.959  10.574  39.388  0.00  0.00    +0.000 OA
ATOM     17  N   UNL     1      12.694  11.271  37.190  0.00  0.00    +0.000 NA
ATOM     18  C   UNL     1      11.239  11.119  37.306  0.00  0.00    +0.000 C 
ENDBRANCH  14  15
ENDBRANCH  13  14
ENDBRANCH  12  13
ENDBRANCH   1  12
TORSDOF 4
ENDMDL
MODEL 2
REMARK VINA RESULT:      -5.9      2.451      3.068
REMARK  Name = 
REMARK  4 active torsions:
REMARK  status: ('A' for Active; 'I' for Inactive)
REMARK    1  A    between atoms: C_2  and  N_3
REMARK    2  A    between atoms: C_2  and  C_9
REMARK    3  A    between atoms: N_3  and  O_4
REMARK    4  A    between atoms: O_4  and  C_5
REMARK                            x       y       z     vdW  Elec       q    Type
REMARK                         _______ _______ _______ _____ _____    ______ ____
ROOT
ATOM      1  C   UNL     1      16.555  11.507  35.734  0.00  0.00    +0.000 A 
ATOM      2  S   UNL     1      15.283  12.510  35.210  0.00  0.00    +0.000 S 
ATOM      3  C   UNL     1      15.227  12.051  33.561  0.00  0.00    +0.000 A 
ATOM      4  C   UNL     1      14.442  12.431  32.460  0.00  0.00    +0.000 A 
ATOM      5  C   UNL     1      14.626  11.877  31.213  0.00  0.00    +0.000 A 
ATOM      6  C   UNL     1      15.628  10.935  31.136  0.00  0.00    +0.000 A 
ATOM      7  C   UNL     1      16.403  10.552  32.196  0.00  0.00    +0.000 A 
ATOM      8  C   UNL     1      16.213  11.120  33.472  0.00  0.00    +0.000 A 
ATOM      9  C   UNL     1      16.906  10.833  34.598  0.00  0.00    +0.000 A 
ATOM     10  C   UNL     1      18.042   9.818  34.681  0.00  0.00    +0.000 C 
ENDROOT
BRANCH   1  12
ATOM     11  C   UNL     1      18.144  12.134  37.480  0.00  0.00    +0.000 C 
ATOM     12  C   UNL     1      17.153  11.377  37.086  0.00  0.00    +0.000 C 
BRANCH  12  13
ATOM     13  N   UNL     1      16.609  10.393  37.949  0.00  0.00    +0.000 NA
BRANCH  13  14
ATOM     14  O   UNL     1      17.408   9.585  38.720  0.00  0.00    +0.000 OA
BRANCH  14  15
ATOM     15  C   UNL     1      17.356   9.579  40.105  0.00  0.00    +0.000 C 
ATOM     16  O   UNL     1      18.457   9.703  40.719  0.00  0.00    +0.000 OA
ATOM     17  N   UNL     1      16.153   9.445  40.842  0.00  0.00    +0.000 NA
ATOM     18  C   UNL     1      16.220   9.453  42.308  0.00  0.00    +0.000 C 
ENDBRANCH  14  15
ENDBRANCH  13  14
ENDBRANCH  12  13
ENDBRANCH   1  12
TORSDOF 4
ENDMDL
MODEL 3
REMARK VINA RESULT:      -5.8     29.208     31.022
REMARK  Name = 
REMARK  4 active torsions:
REMARK  status: ('A' for Active; 'I' for Inactive)
REMARK    1  A    between atoms: C_2  and  N_3
REMARK    2  A    between atoms: C_2  and  C_9
REMARK    3  A    between atoms: N_3  and  O_4
REMARK    4  A    between atoms: O_4  and  C_5
REMARK                            x       y       z     vdW  Elec       q    Type
REMARK                         _______ _______ _______ _____ _____    ______ ____
ROOT
ATOM      1  C   UNL     1      30.787  22.013  11.849  0.00  0.00    +0.000 A 
ATOM      2  S   UNL     1      30.200  23.097  13.022  0.00  0.00    +0.000 S 
ATOM      3  C   UNL     1      28.536  23.074  12.616  0.00  0.00    +0.000 A 
ATOM      4  C   UNL     1      27.390  23.710  13.122  0.00  0.00    +0.000 A 
ATOM      5  C   UNL     1      26.143  23.495  12.579  0.00  0.00    +0.000 A 
ATOM      6  C   UNL     1      26.112  22.620  11.516  0.00  0.00    +0.000 A 
ATOM      7  C   UNL     1      27.216  21.991  11.010  0.00  0.00    +0.000 A 
ATOM      8  C   UNL     1      28.492  22.211  11.566  0.00  0.00    +0.000 A 
ATOM      9  C   UNL     1      29.659  21.657  11.164  0.00  0.00    +0.000 A 
ATOM     10  C   UNL     1      29.796  20.672  10.008  0.00  0.00    +0.000 C 
ENDROOT
BRANCH   1  12
ATOM     11  C   UNL     1      32.666  20.491  12.200  0.00  0.00    +0.000 C 
ATOM     12  C   UNL     1      32.177  21.551  11.608  0.00  0.00    +0.000 C 
BRANCH  12  13
ATOM     13  N   UNL     1      32.968  22.304  10.706  0.00  0.00    +0.000 NA
BRANCH  13  14
ATOM     14  O   UNL     1      33.317  21.817   9.470  0.00  0.00    +0.000 OA
BRANCH  14  15
ATOM     15  C   UNL     1      32.568  22.061   8.329  0.00  0.00    +0.000 C 
ATOM     16  O   UNL     1      31.984  23.183   8.258  0.00  0.00    +0.000 OA
ATOM     17  N   UNL     1      32.433  21.132   7.268  0.00  0.00    +0.000 NA
ATOM     18  C   UNL     1      31.614  21.501   6.107  0.00  0.00    +0.000 C 
ENDBRANCH  14  15
ENDBRANCH  13  14
ENDBRANCH  12  13
ENDBRANCH   1  12
TORSDOF 4
ENDMDL
MODEL 4
REMARK VINA RESULT:      -5.6      3.509      4.325
REMARK  Name = 
REMARK  4 active torsions:
REMARK  status: ('A' for Active; 'I' for Inactive)
REMARK    1  A    between atoms: C_2  and  N_3
REMARK    2  A    between atoms: C_2  and  C_9
REMARK    3  A    between atoms: N_3  and  O_4
REMARK    4  A    between atoms: O_4  and  C_5
REMARK                            x       y       z     vdW  Elec       q    Type
REMARK                         _______ _______ _______ _____ _____    ______ ____
ROOT
ATOM      1  C   UNL     1      17.338  10.895  37.040  0.00  0.00    +0.000 A 
ATOM      2  S   UNL     1      16.056  11.988  36.799  0.00  0.00    +0.000 S 
ATOM      3  C   UNL     1      15.843  11.800  35.109  0.00  0.00    +0.000 A 
ATOM      4  C   UNL     1      14.976  12.363  34.158  0.00  0.00    +0.000 A 
ATOM      5  C   UNL     1      15.034  12.013  32.828  0.00  0.00    +0.000 A 
ATOM      6  C   UNL     1      15.998  11.080  32.512  0.00  0.00    +0.000 A 
ATOM      7  C   UNL     1      16.850  10.521  33.423  0.00  0.00    +0.000 A 
ATOM      8  C   UNL     1      16.789  10.880  34.785  0.00  0.00    +0.000 A 
ATOM      9  C   UNL     1      17.569  10.406  35.785  0.00  0.00    +0.000 A 
ATOM     10  C   UNL     1      18.677   9.374  35.602  0.00  0.00    +0.000 C 
ENDROOT
BRANCH   1  12
ATOM     11  C   UNL     1      19.156  11.137  38.655  0.00  0.00    +0.000 C 
ATOM     12  C   UNL     1      18.048  10.541  38.294  0.00  0.00    +0.000 C 
BRANCH  12  13
ATOM     13  N   UNL     1      17.480   9.524  39.101  0.00  0.00    +0.000 NA
BRANCH  13  14
ATOM     14  O   UNL     1      18.243   8.516  39.639  0.00  0.00    +0.000 OA
BRANCH  14  15
ATOM     15  C   UNL     1      17.796   7.705  40.669  0.00  0.00    +0.000 C 
ATOM     16  O   UNL     1      17.265   8.283  41.663  0.00  0.00    +0.000 OA
ATOM     17  N   UNL     1      17.905   6.292  40.657  0.00  0.00    +0.000 NA
ATOM     18  C   UNL     1      17.394   5.535  41.806  0.00  0.00    +0.000 C 
ENDBRANCH  14  15
ENDBRANCH  13  14
ENDBRANCH  12  13
ENDBRANCH   1  12
TORSDOF 4
ENDMDL
MODEL 5
REMARK VINA RESULT:      -5.4     19.913     21.248
REMARK  Name = 
REMARK  4 active torsions:
REMARK  status: ('A' for Active; 'I' for Inactive)
REMARK    1  A    between atoms: C_2  and  N_3
REMARK    2  A    between atoms: C_2  and  C_9
REMARK    3  A    between atoms: N_3  and  O_4
REMARK    4  A    between atoms: O_4  and  C_5
REMARK                            x       y       z     vdW  Elec       q    Type
REMARK                         _______ _______ _______ _____ _____    ______ ____
ROOT
ATOM      1  C   UNL     1      28.832  23.662  25.823  0.00  0.00    +0.000 A 
ATOM      2  S   UNL     1      27.457  24.617  26.133  0.00  0.00    +0.000 S 
ATOM      3  C   UNL     1      27.069  24.047  27.701  0.00  0.00    +0.000 A 
ATOM      4  C   UNL     1      26.063  24.345  28.635  0.00  0.00    +0.000 A 
ATOM      5  C   UNL     1      25.996  23.709  29.855  0.00  0.00    +0.000 A 
ATOM      6  C   UNL     1      26.981  22.772  30.079  0.00  0.00    +0.000 A 
ATOM      7  C   UNL     1      27.968  22.469  29.183  0.00  0.00    +0.000 A 
ATOM      8  C   UNL     1      28.036  23.120  27.934  0.00  0.00    +0.000 A 
ATOM      9  C   UNL     1      28.955  22.916  26.962  0.00  0.00    +0.000 A 
ATOM     10  C   UNL     1      30.105  21.919  27.054  0.00  0.00    +0.000 C 
ENDROOT
BRANCH   1  12
ATOM     11  C   UNL     1      30.769  24.377  24.518  0.00  0.00    +0.000 C 
ATOM     12  C   UNL     1      29.701  23.628  24.621  0.00  0.00    +0.000 C 
BRANCH  12  13
ATOM     13  N   UNL     1      29.333  22.748  23.573  0.00  0.00    +0.000 NA
BRANCH  13  14
ATOM     14  O   UNL     1      28.399  23.097  22.629  0.00  0.00    +0.000 OA
BRANCH  14  15
ATOM     15  C   UNL     1      28.463  24.281  21.912  0.00  0.00    +0.000 C 
ATOM     16  O   UNL     1      27.509  25.099  22.071  0.00  0.00    +0.000 OA
ATOM     17  N   UNL     1      29.524  24.605  21.030  0.00  0.00    +0.000 NA
ATOM     18  C   UNL     1      29.485  25.890  20.322  0.00  0.00    +0.000 C 
ENDBRANCH  14  15
ENDBRANCH  13  14
ENDBRANCH  12  13
ENDBRANCH   1  12
TORSDOF 4
ENDMDL
MODEL 6
REMARK VINA RESULT:      -5.4     28.884     30.768
REMARK  Name = 
REMARK  4 active torsions:
REMARK  status: ('A' for Active; 'I' for Inactive)
REMARK    1  A    between atoms: C_2  and  N_3
REMARK    2  A    between atoms: C_2  and  C_9
REMARK    3  A    between atoms: N_3  and  O_4
REMARK    4  A    between atoms: O_4  and  C_5
REMARK                            x       y       z     vdW  Elec       q    Type
REMARK                         _______ _______ _______ _____ _____    ______ ____
ROOT
ATOM      1  C   UNL     1      31.177  21.589  11.117  0.00  0.00    +0.000 A 
ATOM      2  S   UNL     1      30.973  22.673  12.414  0.00  0.00    +0.000 S 
ATOM      3  C   UNL     1      29.268  22.838  12.374  0.00  0.00    +0.000 A 
ATOM      4  C   UNL     1      28.332  23.564  13.129  0.00  0.00    +0.000 A 
ATOM      5  C   UNL     1      26.983  23.502  12.863  0.00  0.00    +0.000 A 
ATOM      6  C   UNL     1      26.633  22.683  11.812  0.00  0.00    +0.000 A 
ATOM      7  C   UNL     1      27.529  21.969  11.066  0.00  0.00    +0.000 A 
ATOM      8  C   UNL     1      28.910  22.033  11.340  0.00  0.00    +0.000 A 
ATOM      9  C   UNL     1      29.898  21.381  10.683  0.00  0.00    +0.000 A 
ATOM     10  C   UNL     1      29.678  20.441   9.503  0.00  0.00    +0.000 C 
ENDROOT
BRANCH   1  12
ATOM     11  C   UNL     1      32.947  21.404   9.443  0.00  0.00    +0.000 C 
ATOM     12  C   UNL     1      32.425  20.999  10.573  0.00  0.00    +0.000 C 
BRANCH  12  13
ATOM     13  N   UNL     1      33.043  19.970  11.325  0.00  0.00    +0.000 NA
BRANCH  13  14
ATOM     14  O   UNL     1      33.985  20.243  12.287  0.00  0.00    +0.000 OA
BRANCH  14  15
ATOM     15  C   UNL     1      35.309  19.849  12.174  0.00  0.00    +0.000 C 
ATOM     16  O   UNL     1      35.657  18.819  12.824  0.00  0.00    +0.000 OA
ATOM     17  N   UNL     1      36.264  20.534  11.381  0.00  0.00    +0.000 NA
ATOM     18  C   UNL     1      37.640  20.024  11.337  0.00  0.00    +0.000 C 
ENDBRANCH  14  15
ENDBRANCH  13  14
ENDBRANCH  12  13
ENDBRANCH   1  12
TORSDOF 4
ENDMDL
MODEL 7
REMARK VINA RESULT:      -5.4     22.089     23.406
REMARK  Name = 
REMARK  4 active torsions:
REMARK  status: ('A' for Active; 'I' for Inactive)
REMARK    1  A    between atoms: C_2  and  N_3
REMARK    2  A    between atoms: C_2  and  C_9
REMARK    3  A    between atoms: N_3  and  O_4
REMARK    4  A    between atoms: O_4  and  C_5
REMARK                            x       y       z     vdW  Elec       q    Type
REMARK                         _______ _______ _______ _____ _____    ______ ____
ROOT
ATOM      1  C   UNL     1      29.625  23.704  24.848  0.00  0.00    +0.000 A 
ATOM      2  S   UNL     1      31.088  22.867  24.614  0.00  0.00    +0.000 S 
ATOM      3  C   UNL     1      32.188  24.164  24.818  0.00  0.00    +0.000 A 
ATOM      4  C   UNL     1      33.587  24.284  24.776  0.00  0.00    +0.000 A 
ATOM      5  C   UNL     1      34.217  25.491  24.985  0.00  0.00    +0.000 A 
ATOM      6  C   UNL     1      33.376  26.552  25.234  0.00  0.00    +0.000 A 
ATOM      7  C   UNL     1      32.012  26.456  25.280  0.00  0.00    +0.000 A 
ATOM      8  C   UNL     1      31.368  25.220  25.066  0.00  0.00    +0.000 A 
ATOM      9  C   UNL     1      30.035  24.987  25.083  0.00  0.00    +0.000 A 
ATOM     10  C   UNL     1      28.974  26.050  25.343  0.00  0.00    +0.000 C 
ENDROOT
BRANCH   1  12
ATOM     11  C   UNL     1      27.669  22.645  25.859  0.00  0.00    +0.000 C 
ATOM     12  C   UNL     1      28.232  23.192  24.812  0.00  0.00    +0.000 C 
BRANCH  12  13
ATOM     13  N   UNL     1      27.522  23.315  23.592  0.00  0.00    +0.000 NA
BRANCH  13  14
ATOM     14  O   UNL     1      28.157  23.248  22.376  0.00  0.00    +0.000 OA
BRANCH  14  15
ATOM     15  C   UNL     1      28.609  24.372  21.703  0.00  0.00    +0.000 C 
ATOM     16  O   UNL     1      29.694  24.255  21.059  0.00  0.00    +0.000 OA
ATOM     17  N   UNL     1      27.927  25.614  21.706  0.00  0.00    +0.000 NA
ATOM     18  C   UNL     1      28.502  26.737  20.956  0.00  0.00    +0.000 C 
ENDBRANCH  14  15
ENDBRANCH  13  14
ENDBRANCH  12  13
ENDBRANCH   1  12
TORSDOF 4
ENDMDL
MODEL 8
REMARK VINA RESULT:      -5.3     21.339     22.804
REMARK  Name = 
REMARK  4 active torsions:
REMARK  status: ('A' for Active; 'I' for Inactive)
REMARK    1  A    between atoms: C_2  and  N_3
REMARK    2  A    between atoms: C_2  and  C_9
REMARK    3  A    between atoms: N_3  and  O_4
REMARK    4  A    between atoms: O_4  and  C_5
REMARK                            x       y       z     vdW  Elec       q    Type
REMARK                         _______ _______ _______ _____ _____    ______ ____
ROOT
ATOM      1  C   UNL     1      19.382  -7.805  26.254  0.00  0.00    +0.000 A 
ATOM      2  S   UNL     1      20.379  -9.126  25.854  0.00  0.00    +0.000 S 
ATOM      3  C   UNL     1      21.696  -8.280  25.156  0.00  0.00    +0.000 A 
ATOM      4  C   UNL     1      22.919  -8.665  24.584  0.00  0.00    +0.000 A 
ATOM      5  C   UNL     1      23.810  -7.739  24.089  0.00  0.00    +0.000 A 
ATOM      6  C   UNL     1      23.408  -6.426  24.200  0.00  0.00    +0.000 A 
ATOM      7  C   UNL     1      22.222  -6.032  24.753  0.00  0.00    +0.000 A 
ATOM      8  C   UNL     1      21.311  -6.981  25.260  0.00  0.00    +0.000 A 
ATOM      9  C   UNL     1      20.110  -6.728  25.830  0.00  0.00    +0.000 A 
ATOM     10  C   UNL     1      19.522  -5.335  26.027  0.00  0.00    +0.000 C 
ENDROOT
BRANCH   1  12
ATOM     11  C   UNL     1      17.855  -8.314  28.092  0.00  0.00    +0.000 C 
ATOM     12  C   UNL     1      18.049  -7.797  26.905  0.00  0.00    +0.000 C 
BRANCH  12  13
ATOM     13  N   UNL     1      16.977  -7.205  26.191  0.00  0.00    +0.000 NA
BRANCH  13  14
ATOM     14  O   UNL     1      15.786  -7.861  25.999  0.00  0.00    +0.000 OA
BRANCH  14  15
ATOM     15  C   UNL     1      15.451  -8.473  24.802  0.00  0.00    +0.000 C 
ATOM     16  O   UNL     1      14.259  -8.328  24.399  0.00  0.00    +0.000 OA
ATOM     17  N   UNL     1      16.363  -9.234  24.030  0.00  0.00    +0.000 NA
ATOM     18  C   UNL     1      15.896  -9.836  22.775  0.00  0.00    +0.000 C 
ENDBRANCH  14  15
ENDBRANCH  13  14
ENDBRANCH  12  13
ENDBRANCH   1  12
TORSDOF 4
ENDMDL
MODEL 9
REMARK VINA RESULT:      -5.3     20.793     22.386
REMARK  Name = 
REMARK  4 active torsions:
REMARK  status: ('A' for Active; 'I' for Inactive)
REMARK    1  A    between atoms: C_2  and  N_3
REMARK    2  A    between atoms: C_2  and  C_9
REMARK    3  A    between atoms: N_3  and  O_4
REMARK    4  A    between atoms: O_4  and  C_5
REMARK                            x       y       z     vdW  Elec       q    Type
REMARK                         _______ _______ _______ _____ _____    ______ ____
ROOT
ATOM      1  C   UNL     1      34.193   3.827  35.259  0.00  0.00    +0.000 A 
ATOM      2  S   UNL     1      34.309   2.833  36.636  0.00  0.00    +0.000 S 
ATOM      3  C   UNL     1      33.783   1.351  35.956  0.00  0.00    +0.000 A 
ATOM      4  C   UNL     1      33.601   0.050  36.453  0.00  0.00    +0.000 A 
ATOM      5  C   UNL     1      33.152  -0.975  35.651  0.00  0.00    +0.000 A 
ATOM      6  C   UNL     1      32.900  -0.625  34.343  0.00  0.00    +0.000 A 
ATOM      7  C   UNL     1      33.072   0.635  33.840  0.00  0.00    +0.000 A 
ATOM      8  C   UNL     1      33.531   1.684  34.662  0.00  0.00    +0.000 A 
ATOM      9  C   UNL     1      33.743   2.969  34.295  0.00  0.00    +0.000 A 
ATOM     10  C   UNL     1      33.514   3.516  32.890  0.00  0.00    +0.000 C 
ENDROOT
BRANCH   1  12
ATOM     11  C   UNL     1      33.593   6.195  35.314  0.00  0.00    +0.000 C 
ATOM     12  C   UNL     1      34.499   5.272  35.115  0.00  0.00    +0.000 C 
BRANCH  12  13
ATOM     13  N   UNL     1      35.822   5.626  34.749  0.00  0.00    +0.000 NA
BRANCH  13  14
ATOM     14  O   UNL     1      36.916   5.048  35.345  0.00  0.00    +0.000 OA
BRANCH  14  15
ATOM     15  C   UNL     1      37.365   5.414  36.604  0.00  0.00    +0.000 C 
ATOM     16  O   UNL     1      37.926   4.513  37.295  0.00  0.00    +0.000 OA
ATOM     17  N   UNL     1      37.226   6.720  37.135  0.00  0.00    +0.000 NA
ATOM     18  C   UNL     1      37.742   6.992  38.482  0.00  0.00    +0.000 C 
ENDBRANCH  14  15
ENDBRANCH  13  14
ENDBRANCH  12  13
ENDBRANCH   1  12
TORSDOF 4
ENDMDL
MODEL 10
REMARK VINA RESULT:      -5.3     21.048     22.419
REMARK  Name = 
REMARK  4 active torsions:
REMARK  status: ('A' for Active; 'I' for Inactive)
REMARK    1  A    between atoms: C_2  and  N_3
REMARK    2  A    between atoms: C_2  and  C_9
REMARK    3  A    between atoms: N_3  and  O_4
REMARK    4  A    between atoms: O_4  and  C_5
REMARK                            x       y       z     vdW  Elec       q    Type
REMARK                         _______ _______ _______ _____ _____    ______ ____
ROOT
ATOM      1  C   UNL     1      19.320  -7.741  26.465  0.00  0.00    +0.000 A 
ATOM      2  S   UNL     1      20.325  -9.058  26.073  0.00  0.00    +0.000 S 
ATOM      3  C   UNL     1      21.570  -8.222  25.244  0.00  0.00    +0.000 A 
ATOM      4  C   UNL     1      22.764  -8.609  24.614  0.00  0.00    +0.000 A 
ATOM      5  C   UNL     1      23.595  -7.691  24.010  0.00  0.00    +0.000 A 
ATOM      6  C   UNL     1      23.165  -6.384  24.074  0.00  0.00    +0.000 A 
ATOM      7  C   UNL     1      22.006  -5.988  24.683  0.00  0.00    +0.000 A 
ATOM      8  C   UNL     1      21.156  -6.929  25.301  0.00  0.00    +0.000 A 
ATOM      9  C   UNL     1      19.988  -6.673  25.935  0.00  0.00    +0.000 A 
ATOM     10  C   UNL     1      19.375  -5.285  26.092  0.00  0.00    +0.000 C 
ENDROOT
BRANCH   1  12
ATOM     11  C   UNL     1      17.871  -8.379  28.325  0.00  0.00    +0.000 C 
ATOM     12  C   UNL     1      18.032  -7.729  27.201  0.00  0.00    +0.000 C 
BRANCH  12  13
ATOM     13  N   UNL     1      16.967  -6.981  26.641  0.00  0.00    +0.000 NA
BRANCH  13  14
ATOM     14  O   UNL     1      16.261  -7.431  25.552  0.00  0.00    +0.000 OA
BRANCH  14  15
ATOM     15  C   UNL     1      15.277  -8.403  25.646  0.00  0.00    +0.000 C 
ATOM     16  O   UNL     1      15.636  -9.601  25.441  0.00  0.00    +0.000 OA
ATOM     17  N   UNL     1      13.923  -8.120  25.953  0.00  0.00    +0.000 NA
ATOM     18  C   UNL     1      12.969  -9.233  26.026  0.00  0.00    +0.000 C 
ENDBRANCH  14  15
ENDBRANCH  13  14
ENDBRANCH  12  13
ENDBRANCH   1  12
TORSDOF 4
ENDMDL
