MODEL 1
REMARK VINA RESULT:      -7.5      0.000      0.000
REMARK  Name = 
REMARK  2 active torsions:
REMARK  status: ('A' for Active; 'I' for Inactive)
REMARK    1  A    between atoms: C_12  and  N_13
REMARK    2  A    between atoms: N_13  and  C_14
REMARK                            x       y       z     vdW  Elec       q    Type
REMARK                         _______ _______ _______ _____ _____    ______ ____
ROOT
ATOM      1  O   UNL     1      15.266  11.684  35.066  0.00  0.00    +0.000 OA
ATOM      2  C   UNL     1      15.298  12.687  36.257  0.00  0.00    +0.000 C 
ATOM      3  C   UNL     1      13.899  12.119  36.886  0.00  0.00    +0.000 A 
ATOM      4  C   UNL     1      12.666  12.573  36.462  0.00  0.00    +0.000 A 
ATOM      5  C   UNL     1      11.562  12.013  37.072  0.00  0.00    +0.000 A 
ATOM      6  C   UNL     1      11.741  11.047  38.055  0.00  0.00    +0.000 A 
ATOM      7  C   UNL     1      13.016  10.661  38.410  0.00  0.00    +0.000 A 
ATOM      8  C   UNL     1      14.159  11.227  37.791  0.00  0.00    +0.000 A 
ATOM      9  C   UNL     1      15.550  11.009  37.969  0.00  0.00    +0.000 A 
ATOM     10  C   UNL     1      16.262  10.143  38.833  0.00  0.00    +0.000 A 
ATOM     11  C   UNL     1      17.631  10.149  38.781  0.00  0.00    +0.000 A 
ATOM     12  C   UNL     1      18.329  10.954  37.933  0.00  0.00    +0.000 A 
ATOM     13  C   UNL     1      17.594  11.804  37.086  0.00  0.00    +0.000 A 
ATOM     14  C   UNL     1      16.226  11.767  37.171  0.00  0.00    +0.000 A 
ENDROOT
BRANCH  12  15
ATOM     15  N   UNL     1      19.730  10.967  37.873  0.00  0.00    +0.000 NA
BRANCH  15  16
ATOM     16  C   UNL     1      20.512   9.748  37.826  0.00  0.00    +0.000 C 
ATOM     17  C   UNL     1      21.595   9.981  36.770  0.00  0.00    +0.000 C 
ATOM     18  C   UNL     1      22.403  11.125  37.389  0.00  0.00    +0.000 C 
ATOM     19  C   UNL     1      22.174  11.028  38.877  0.00  0.00    +0.000 C 
ATOM     20  C   UNL     1      21.368   9.749  39.098  0.00  0.00    +0.000 C 
ENDBRANCH  15  16
ENDBRANCH  12  15
TORSDOF 2
ENDMDL
MODEL 2
REMARK VINA RESULT:      -6.7     22.033     23.774
REMARK  Name = 
REMARK  2 active torsions:
REMARK  status: ('A' for Active; 'I' for Inactive)
REMARK    1  A    between atoms: C_12  and  N_13
REMARK    2  A    between atoms: N_13  and  C_14
REMARK                            x       y       z     vdW  Elec       q    Type
REMARK                         _______ _______ _______ _____ _____    ______ ____
ROOT
ATOM      1  O   UNL     1      20.924  -9.190  27.214  0.00  0.00    +0.000 OA
ATOM      2  C   UNL     1      20.331  -9.062  25.779  0.00  0.00    +0.000 C 
ATOM      3  C   UNL     1      19.541  -7.674  26.135  0.00  0.00    +0.000 A 
ATOM      4  C   UNL     1      18.289  -7.672  26.715  0.00  0.00    +0.000 A 
ATOM      5  C   UNL     1      17.730  -6.436  26.965  0.00  0.00    +0.000 A 
ATOM      6  C   UNL     1      18.437  -5.286  26.630  0.00  0.00    +0.000 A 
ATOM      7  C   UNL     1      19.684  -5.394  26.053  0.00  0.00    +0.000 A 
ATOM      8  C   UNL     1      20.270  -6.658  25.791  0.00  0.00    +0.000 A 
ATOM      9  C   UNL     1      21.512  -7.038  25.218  0.00  0.00    +0.000 A 
ATOM     10  C   UNL     1      22.587  -6.267  24.715  0.00  0.00    +0.000 A 
ATOM     11  C   UNL     1      23.681  -6.922  24.212  0.00  0.00    +0.000 A 
ATOM     12  C   UNL     1      23.771  -8.281  24.180  0.00  0.00    +0.000 A 
ATOM     13  C   UNL     1      22.687  -9.019  24.688  0.00  0.00    +0.000 A 
ATOM     14  C   UNL     1      21.612  -8.324  25.180  0.00  0.00    +0.000 A 
ENDROOT
BRANCH  12  15
ATOM     15  N   UNL     1      24.886  -8.959  23.669  0.00  0.00    +0.000 NA
BRANCH  15  16
ATOM     16  C   UNL     1      25.461  -8.639  22.378  0.00  0.00    +0.000 C 
ATOM     17  C   UNL     1      26.819  -7.995  22.666  0.00  0.00    +0.000 C 
ATOM     18  C   UNL     1      27.580  -9.144  23.333  0.00  0.00    +0.000 C 
ATOM     19  C   UNL     1      26.931 -10.410  22.833  0.00  0.00    +0.000 C 
ATOM     20  C   UNL     1      25.915  -9.974  21.777  0.00  0.00    +0.000 C 
ENDBRANCH  15  16
ENDBRANCH  12  15
TORSDOF 2
ENDMDL
MODEL 3
REMARK VINA RESULT:      -6.5     19.525     21.031
REMARK  Name = 
REMARK  2 active torsions:
REMARK  status: ('A' for Active; 'I' for Inactive)
REMARK    1  A    between atoms: C_12  and  N_13
REMARK    2  A    between atoms: N_13  and  C_14
REMARK                            x       y       z     vdW  Elec       q    Type
REMARK                         _______ _______ _______ _____ _____    ______ ____
ROOT
ATOM      1  O   UNL     1      26.945  24.132  26.245  0.00  0.00    +0.000 OA
ATOM      2  C   UNL     1      27.155  22.688  25.700  0.00  0.00    +0.000 C 
ATOM      3  C   UNL     1      27.286  23.198  24.151  0.00  0.00    +0.000 A 
ATOM      4  C   UNL     1      26.181  23.402  23.350  0.00  0.00    +0.000 A 
ATOM      5  C   UNL     1      26.426  23.833  22.063  0.00  0.00    +0.000 A 
ATOM      6  C   UNL     1      27.738  24.036  21.648  0.00  0.00    +0.000 A 
ATOM      7  C   UNL     1      28.775  23.803  22.525  0.00  0.00    +0.000 A 
ATOM      8  C   UNL     1      28.538  23.360  23.851  0.00  0.00    +0.000 A 
ATOM      9  C   UNL     1      29.409  23.054  24.929  0.00  0.00    +0.000 A 
ATOM     10  C   UNL     1      30.819  23.091  25.035  0.00  0.00    +0.000 A 
ATOM     11  C   UNL     1      31.395  22.733  26.226  0.00  0.00    +0.000 A 
ATOM     12  C   UNL     1      30.662  22.345  27.306  0.00  0.00    +0.000 A 
ATOM     13  C   UNL     1      29.262  22.317  27.171  0.00  0.00    +0.000 A 
ATOM     14  C   UNL     1      28.728  22.683  25.961  0.00  0.00    +0.000 A 
ENDROOT
BRANCH  12  15
ATOM     15  N   UNL     1      31.242  21.977  28.528  0.00  0.00    +0.000 NA
BRANCH  15  16
ATOM     16  C   UNL     1      31.632  22.956  29.524  0.00  0.00    +0.000 C 
ATOM     17  C   UNL     1      31.430  22.281  30.883  0.00  0.00    +0.000 C 
ATOM     18  C   UNL     1      32.441  21.132  30.820  0.00  0.00    +0.000 C 
ATOM     19  C   UNL     1      33.500  21.572  29.841  0.00  0.00    +0.000 C 
ATOM     20  C   UNL     1      33.163  23.017  29.475  0.00  0.00    +0.000 C 
ENDBRANCH  15  16
ENDBRANCH  12  15
TORSDOF 2
ENDMDL
MODEL 4
REMARK VINA RESULT:      -6.4      2.914      4.104
REMARK  Name = 
REMARK  2 active torsions:
REMARK  status: ('A' for Active; 'I' for Inactive)
REMARK    1  A    between atoms: C_12  and  N_13
REMARK    2  A    between atoms: N_13  and  C_14
REMARK                            x       y       z     vdW  Elec       q    Type
REMARK                         _______ _______ _______ _____ _____    ______ ____
ROOT
ATOM      1  O   UNL     1      17.351   9.218  36.091  0.00  0.00    +0.000 OA
ATOM      2  C   UNL     1      17.802  10.525  36.810  0.00  0.00    +0.000 C 
ATOM      3  C   UNL     1      16.360  11.259  36.568  0.00  0.00    +0.000 A 
ATOM      4  C   UNL     1      16.068  11.934  35.400  0.00  0.00    +0.000 A 
ATOM      5  C   UNL     1      14.817  12.510  35.320  0.00  0.00    +0.000 A 
ATOM      6  C   UNL     1      13.937  12.385  36.389  0.00  0.00    +0.000 A 
ATOM      7  C   UNL     1      14.324  11.690  37.515  0.00  0.00    +0.000 A 
ATOM      8  C   UNL     1      15.606  11.093  37.611  0.00  0.00    +0.000 A 
ATOM      9  C   UNL     1      16.238  10.339  38.635  0.00  0.00    +0.000 A 
ATOM     10  C   UNL     1      15.788   9.932  39.913  0.00  0.00    +0.000 A 
ATOM     11  C   UNL     1      16.635   9.197  40.701  0.00  0.00    +0.000 A 
ATOM     12  C   UNL     1      17.888   8.846  40.299  0.00  0.00    +0.000 A 
ATOM     13  C   UNL     1      18.308   9.266  39.024  0.00  0.00    +0.000 A 
ATOM     14  C   UNL     1      17.429  10.000  38.269  0.00  0.00    +0.000 A 
ENDROOT
BRANCH  12  15
ATOM     15  N   UNL     1      18.762   8.094  41.098  0.00  0.00    +0.000 NA
BRANCH  15  16
ATOM     16  C   UNL     1      19.337   6.843  40.647  0.00  0.00    +0.000 C 
ATOM     17  C   UNL     1      20.136   6.294  41.831  0.00  0.00    +0.000 C 
ATOM     18  C   UNL     1      19.038   6.047  42.870  0.00  0.00    +0.000 C 
ATOM     19  C   UNL     1      17.767   5.852  42.081  0.00  0.00    +0.000 C 
ATOM     20  C   UNL     1      18.180   5.838  40.610  0.00  0.00    +0.000 C 
ENDBRANCH  15  16
ENDBRANCH  12  15
TORSDOF 2
ENDMDL
MODEL 5
REMARK VINA RESULT:      -6.4     18.500     20.265
REMARK  Name = 
REMARK  2 active torsions:
REMARK  status: ('A' for Active; 'I' for Inactive)
REMARK    1  A    between atoms: C_12  and  N_13
REMARK    2  A    between atoms: N_13  and  C_14
REMARK                            x       y       z     vdW  Elec       q    Type
REMARK                         _______ _______ _______ _____ _____    ______ ____
ROOT
ATOM      1  O   UNL     1      35.650   2.823  37.255  0.00  0.00    +0.000 OA
ATOM      2  C   UNL     1      34.095   2.894  37.319  0.00  0.00    +0.000 C 
ATOM      3  C   UNL     1      34.048   4.382  36.641  0.00  0.00    +0.000 A 
ATOM      4  C   UNL     1      34.188   5.533  37.389  0.00  0.00    +0.000 A 
ATOM      5  C   UNL     1      34.130   6.725  36.698  0.00  0.00    +0.000 A 
ATOM      6  C   UNL     1      33.939   6.709  35.321  0.00  0.00    +0.000 A 
ATOM      7  C   UNL     1      33.809   5.504  34.663  0.00  0.00    +0.000 A 
ATOM      8  C   UNL     1      33.867   4.271  35.361  0.00  0.00    +0.000 A 
ATOM      9  C   UNL     1      33.764   2.922  34.932  0.00  0.00    +0.000 A 
ATOM     10  C   UNL     1      33.568   2.358  33.649  0.00  0.00    +0.000 A 
ATOM     11  C   UNL     1      33.509   0.993  33.537  0.00  0.00    +0.000 A 
ATOM     12  C   UNL     1      33.632   0.165  34.610  0.00  0.00    +0.000 A 
ATOM     13  C   UNL     1      33.826   0.754  35.873  0.00  0.00    +0.000 A 
ATOM     14  C   UNL     1      33.878   2.123  35.940  0.00  0.00    +0.000 A 
ENDROOT
BRANCH  12  15
ATOM     15  N   UNL     1      33.573  -1.232  34.505  0.00  0.00    +0.000 NA
BRANCH  15  16
ATOM     16  C   UNL     1      33.095  -2.070  35.587  0.00  0.00    +0.000 C 
ATOM     17  C   UNL     1      32.010  -2.964  34.982  0.00  0.00    +0.000 C 
ATOM     18  C   UNL     1      32.807  -3.786  33.965  0.00  0.00    +0.000 C 
ATOM     19  C   UNL     1      34.229  -3.792  34.468  0.00  0.00    +0.000 C 
ATOM     20  C   UNL     1      34.197  -3.107  35.834  0.00  0.00    +0.000 C 
ENDBRANCH  15  16
ENDBRANCH  12  15
TORSDOF 2
ENDMDL
MODEL 6
REMARK VINA RESULT:      -6.4      3.693      4.901
REMARK  Name = 
REMARK  2 active torsions:
REMARK  status: ('A' for Active; 'I' for Inactive)
REMARK    1  A    between atoms: C_12  and  N_13
REMARK    2  A    between atoms: N_13  and  C_14
REMARK                            x       y       z     vdW  Elec       q    Type
REMARK                         _______ _______ _______ _____ _____    ______ ____
ROOT
ATOM      1  O   UNL     1      19.759   8.277  41.534  0.00  0.00    +0.000 OA
ATOM      2  C   UNL     1      19.200   7.717  40.193  0.00  0.00    +0.000 C 
ATOM      3  C   UNL     1      17.668   8.175  40.540  0.00  0.00    +0.000 A 
ATOM      4  C   UNL     1      16.819   7.386  41.290  0.00  0.00    +0.000 A 
ATOM      5  C   UNL     1      15.553   7.886  41.513  0.00  0.00    +0.000 A 
ATOM      6  C   UNL     1      15.204   9.125  40.987  0.00  0.00    +0.000 A 
ATOM      7  C   UNL     1      16.125   9.837  40.249  0.00  0.00    +0.000 A 
ATOM      8  C   UNL     1      17.430   9.336  40.012  0.00  0.00    +0.000 A 
ATOM      9  C   UNL     1      18.543   9.858  39.302  0.00  0.00    +0.000 A 
ATOM     10  C   UNL     1      18.716  11.068  38.589  0.00  0.00    +0.000 A 
ATOM     11  C   UNL     1      19.927  11.307  37.992  0.00  0.00    +0.000 A 
ATOM     12  C   UNL     1      20.963  10.428  38.061  0.00  0.00    +0.000 A 
ATOM     13  C   UNL     1      20.761   9.234  38.777  0.00  0.00    +0.000 A 
ATOM     14  C   UNL     1      19.535   9.034  39.358  0.00  0.00    +0.000 A 
ENDROOT
BRANCH  12  15
ATOM     15  N   UNL     1      22.205  10.664  37.455  0.00  0.00    +0.000 NA
BRANCH  15  16
ATOM     16  C   UNL     1      23.441  10.126  37.988  0.00  0.00    +0.000 C 
ATOM     17  C   UNL     1      23.916   9.078  36.979  0.00  0.00    +0.000 C 
ATOM     18  C   UNL     1      24.183   9.932  35.736  0.00  0.00    +0.000 C 
ATOM     19  C   UNL     1      24.462  11.323  36.247  0.00  0.00    +0.000 C 
ATOM     20  C   UNL     1      24.500  11.213  37.771  0.00  0.00    +0.000 C 
ENDBRANCH  15  16
ENDBRANCH  12  15
TORSDOF 2
ENDMDL
MODEL 7
REMARK VINA RESULT:      -6.2     22.280     23.344
REMARK  Name = 
REMARK  2 active torsions:
REMARK  status: ('A' for Active; 'I' for Inactive)
REMARK    1  A    between atoms: C_12  and  N_13
REMARK    2  A    between atoms: N_13  and  C_14
REMARK                            x       y       z     vdW  Elec       q    Type
REMARK                         _______ _______ _______ _____ _____    ______ ____
ROOT
ATOM      1  O   UNL     1      23.191   1.660  14.548  0.00  0.00    +0.000 OA
ATOM      2  C   UNL     1      22.578   3.061  14.845  0.00  0.00    +0.000 C 
ATOM      3  C   UNL     1      21.289   2.427  15.629  0.00  0.00    +0.000 A 
ATOM      4  C   UNL     1      20.157   2.009  14.959  0.00  0.00    +0.000 A 
ATOM      5  C   UNL     1      19.140   1.493  15.735  0.00  0.00    +0.000 A 
ATOM      6  C   UNL     1      19.302   1.419  17.114  0.00  0.00    +0.000 A 
ATOM      7  C   UNL     1      20.474   1.864  17.689  0.00  0.00    +0.000 A 
ATOM      8  C   UNL     1      21.527   2.397  16.904  0.00  0.00    +0.000 A 
ATOM      9  C   UNL     1      22.806   2.912  17.240  0.00  0.00    +0.000 A 
ATOM     10  C   UNL     1      23.458   3.063  18.486  0.00  0.00    +0.000 A 
ATOM     11  C   UNL     1      24.718   3.603  18.504  0.00  0.00    +0.000 A 
ATOM     12  C   UNL     1      25.362   3.996  17.370  0.00  0.00    +0.000 A 
ATOM     13  C   UNL     1      24.688   3.833  16.146  0.00  0.00    +0.000 A 
ATOM     14  C   UNL     1      23.429   3.290  16.174  0.00  0.00    +0.000 A 
ENDROOT
BRANCH  12  15
ATOM     15  N   UNL     1      26.650   4.548  17.378  0.00  0.00    +0.000 NA
BRANCH  15  16
ATOM     16  C   UNL     1      26.986   5.717  18.166  0.00  0.00    +0.000 C 
ATOM     17  C   UNL     1      28.427   6.077  17.799  0.00  0.00    +0.000 C 
ATOM     18  C   UNL     1      28.297   6.437  16.316  0.00  0.00    +0.000 C 
ATOM     19  C   UNL     1      26.863   6.865  16.124  0.00  0.00    +0.000 C 
ATOM     20  C   UNL     1      26.239   6.889  17.519  0.00  0.00    +0.000 C 
ENDBRANCH  15  16
ENDBRANCH  12  15
TORSDOF 2
ENDMDL
MODEL 8
REMARK VINA RESULT:      -6.2     18.046     20.153
REMARK  Name = 
REMARK  2 active torsions:
REMARK  status: ('A' for Active; 'I' for Inactive)
REMARK    1  A    between atoms: C_12  and  N_13
REMARK    2  A    between atoms: N_13  and  C_14
REMARK                            x       y       z     vdW  Elec       q    Type
REMARK                         _______ _______ _______ _____ _____    ______ ____
ROOT
ATOM      1  O   UNL     1      33.025   0.458  37.501  0.00  0.00    +0.000 OA
ATOM      2  C   UNL     1      34.468   0.494  36.916  0.00  0.00    +0.000 C 
ATOM      3  C   UNL     1      34.126  -0.628  35.775  0.00  0.00    +0.000 A 
ATOM      4  C   UNL     1      34.202  -1.982  36.032  0.00  0.00    +0.000 A 
ATOM      5  C   UNL     1      33.889  -2.825  34.986  0.00  0.00    +0.000 A 
ATOM      6  C   UNL     1      33.521  -2.284  33.759  0.00  0.00    +0.000 A 
ATOM      7  C   UNL     1      33.476  -0.915  33.602  0.00  0.00    +0.000 A 
ATOM      8  C   UNL     1      33.795  -0.037  34.669  0.00  0.00    +0.000 A 
ATOM      9  C   UNL     1      33.826   1.378  34.768  0.00  0.00    +0.000 A 
ATOM     10  C   UNL     1      33.544   2.391  33.821  0.00  0.00    +0.000 A 
ATOM     11  C   UNL     1      33.661   3.700  34.209  0.00  0.00    +0.000 A 
ATOM     12  C   UNL     1      34.038   4.060  35.467  0.00  0.00    +0.000 A 
ATOM     13  C   UNL     1      34.312   3.031  36.387  0.00  0.00    +0.000 A 
ATOM     14  C   UNL     1      34.182   1.735  35.956  0.00  0.00    +0.000 A 
ENDROOT
BRANCH  12  15
ATOM     15  N   UNL     1      34.160   5.396  35.874  0.00  0.00    +0.000 NA
BRANCH  15  16
ATOM     16  C   UNL     1      35.390   5.927  36.425  0.00  0.00    +0.000 C 
ATOM     17  C   UNL     1      35.650   7.244  35.690  0.00  0.00    +0.000 C 
ATOM     18  C   UNL     1      34.449   8.091  36.119  0.00  0.00    +0.000 C 
ATOM     19  C   UNL     1      33.996   7.519  37.440  0.00  0.00    +0.000 C 
ATOM     20  C   UNL     1      35.031   6.459  37.817  0.00  0.00    +0.000 C 
ENDBRANCH  15  16
ENDBRANCH  12  15
TORSDOF 2
ENDMDL
MODEL 9
REMARK VINA RESULT:      -6.1     20.840     24.295
REMARK  Name = 
REMARK  2 active torsions:
REMARK  status: ('A' for Active; 'I' for Inactive)
REMARK    1  A    between atoms: C_12  and  N_13
REMARK    2  A    between atoms: N_13  and  C_14
REMARK                            x       y       z     vdW  Elec       q    Type
REMARK                         _______ _______ _______ _____ _____    ______ ____
ROOT
ATOM      1  O   UNL     1      32.372  26.418  26.995  0.00  0.00    +0.000 OA
ATOM      2  C   UNL     1      32.152  26.662  25.472  0.00  0.00    +0.000 C 
ATOM      3  C   UNL     1      33.630  26.082  25.077  0.00  0.00    +0.000 A 
ATOM      4  C   UNL     1      34.759  26.877  25.099  0.00  0.00    +0.000 A 
ATOM      5  C   UNL     1      35.945  26.268  24.745  0.00  0.00    +0.000 A 
ATOM      6  C   UNL     1      35.945  24.923  24.393  0.00  0.00    +0.000 A 
ATOM      7  C   UNL     1      34.762  24.215  24.401  0.00  0.00    +0.000 A 
ATOM      8  C   UNL     1      33.536  24.827  24.764  0.00  0.00    +0.000 A 
ATOM      9  C   UNL     1      32.209  24.333  24.852  0.00  0.00    +0.000 A 
ATOM     10  C   UNL     1      31.666  23.050  24.605  0.00  0.00    +0.000 A 
ATOM     11  C   UNL     1      30.320  22.864  24.777  0.00  0.00    +0.000 A 
ATOM     12  C   UNL     1      29.488  23.866  25.177  0.00  0.00    +0.000 A 
ATOM     13  C   UNL     1      30.055  25.131  25.415  0.00  0.00    +0.000 A 
ATOM     14  C   UNL     1      31.407  25.273  25.230  0.00  0.00    +0.000 A 
ENDROOT
BRANCH  12  15
ATOM     15  N   UNL     1      28.109  23.685  25.357  0.00  0.00    +0.000 NA
BRANCH  15  16
ATOM     16  C   UNL     1      27.153  24.749  25.121  0.00  0.00    +0.000 C 
ATOM     17  C   UNL     1      26.865  24.734  23.618  0.00  0.00    +0.000 C 
ATOM     18  C   UNL     1      26.212  23.361  23.433  0.00  0.00    +0.000 C 
ATOM     19  C   UNL     1      25.623  23.004  24.775  0.00  0.00    +0.000 C 
ATOM     20  C   UNL     1      25.813  24.235  25.660  0.00  0.00    +0.000 C 
ENDBRANCH  15  16
ENDBRANCH  12  15
TORSDOF 2
ENDMDL
MODEL 10
REMARK VINA RESULT:      -5.9     19.871     21.876
REMARK  Name = 
REMARK  2 active torsions:
REMARK  status: ('A' for Active; 'I' for Inactive)
REMARK    1  A    between atoms: C_12  and  N_13
REMARK    2  A    between atoms: N_13  and  C_14
REMARK                            x       y       z     vdW  Elec       q    Type
REMARK                         _______ _______ _______ _____ _____    ______ ____
ROOT
ATOM      1  O   UNL     1      12.445  25.815  23.398  0.00  0.00    +0.000 OA
ATOM      2  C   UNL     1      12.447  26.163  21.879  0.00  0.00    +0.000 C 
ATOM      3  C   UNL     1      14.034  26.564  21.885  0.00  0.00    +0.000 A 
ATOM      4  C   UNL     1      14.469  27.827  22.233  0.00  0.00    +0.000 A 
ATOM      5  C   UNL     1      15.832  28.038  22.198  0.00  0.00    +0.000 A 
ATOM      6  C   UNL     1      16.675  26.998  21.824  0.00  0.00    +0.000 A 
ATOM      7  C   UNL     1      16.141  25.770  21.493  0.00  0.00    +0.000 A 
ATOM      8  C   UNL     1      14.743  25.539  21.526  0.00  0.00    +0.000 A 
ATOM      9  C   UNL     1      13.955  24.395  21.238  0.00  0.00    +0.000 A 
ATOM     10  C   UNL     1      14.311  23.091  20.820  0.00  0.00    +0.000 A 
ATOM     11  C   UNL     1      13.314  22.173  20.616  0.00  0.00    +0.000 A 
ATOM     12  C   UNL     1      11.998  22.470  20.801  0.00  0.00    +0.000 A 
ATOM     13  C   UNL     1      11.674  23.774  21.217  0.00  0.00    +0.000 A 
ATOM     14  C   UNL     1      12.703  24.661  21.408  0.00  0.00    +0.000 A 
ENDROOT
BRANCH  12  15
ATOM     15  N   UNL     1      10.970  21.538  20.596  0.00  0.00    +0.000 NA
BRANCH  15  16
ATOM     16  C   UNL     1      11.011  20.205  21.164  0.00  0.00    +0.000 C 
ATOM     17  C   UNL     1       9.693  20.028  21.921  0.00  0.00    +0.000 C 
ATOM     18  C   UNL     1       8.663  20.109  20.790  0.00  0.00    +0.000 C 
ATOM     19  C   UNL     1       9.396  19.697  19.538  0.00  0.00    +0.000 C 
ATOM     20  C   UNL     1      10.784  19.243  19.992  0.00  0.00    +0.000 C 
ENDBRANCH  15  16
ENDBRANCH  12  15
TORSDOF 2
ENDMDL
