MODEL 1
REMARK VINA RESULT:      -7.2      0.000      0.000
REMARK  Name = 
REMARK  2 active torsions:
REMARK  status: ('A' for Active; 'I' for Inactive)
REMARK    1  A    between atoms: C_5  and  C_6
REMARK    2  A    between atoms: N_10  and  C_11
REMARK                            x       y       z     vdW  Elec       q    Type
REMARK                         _______ _______ _______ _____ _____    ______ ____
ROOT
ATOM      1  C   UNL     1      33.745  -3.427  33.935  0.00  0.00    +0.000 A 
ATOM      2  C   UNL     1      34.475  -4.148  34.854  0.00  0.00    +0.000 A 
ATOM      3  S   UNL     1      34.897  -5.541  33.965  0.00  0.00    +0.000 S 
ATOM      4  C   UNL     1      34.134  -5.132  32.496  0.00  0.00    +0.000 A 
ATOM      5  N   UNL     1      34.086  -5.890  31.260  0.00  0.00    +0.000 NA
ATOM      6  N   UNL     1      33.596  -3.957  32.758  0.00  0.00    +0.000 NA
ENDROOT
BRANCH   1  11
ATOM      7  C   UNL     1      33.626   1.829  33.119  0.00  0.00    +0.000 A 
ATOM      8  C   UNL     1      34.378   0.903  32.432  0.00  0.00    +0.000 A 
ATOM      9  C   UNL     1      34.279  -0.437  32.787  0.00  0.00    +0.000 A 
ATOM     10  C   UNL     1      33.463  -0.875  33.793  0.00  0.00    +0.000 A 
ATOM     11  C   UNL     1      33.182  -2.109  34.336  0.00  0.00    +0.000 A 
ATOM     12  C   UNL     1      32.272  -1.889  35.330  0.00  0.00    +0.000 A 
ATOM     13  N   UNL     1      31.997  -0.549  35.400  0.00  0.00    +0.000 NA
ATOM     14  C   UNL     1      32.723   0.075  34.463  0.00  0.00    +0.000 A 
ATOM     15  C   UNL     1      32.781   1.411  34.154  0.00  0.00    +0.000 A 
ENDBRANCH   1  11
BRANCH   5  16
ATOM     16  C   UNL     1      33.403  -5.417  30.103  0.00  0.00    +0.000 C 
ATOM     17  C   UNL     1      32.080  -6.143  30.010  0.00  0.00    +0.000 C 
ATOM     18  C   UNL     1      32.486  -7.497  29.442  0.00  0.00    +0.000 C 
ATOM     19  C   UNL     1      33.666  -7.244  28.547  0.00  0.00    +0.000 C 
ATOM     20  C   UNL     1      34.089  -5.801  28.801  0.00  0.00    +0.000 C 
ENDBRANCH   5  16
TORSDOF 2
ENDMDL
MODEL 2
REMARK VINA RESULT:      -7.0     17.590     20.954
REMARK  Name = 
REMARK  2 active torsions:
REMARK  status: ('A' for Active; 'I' for Inactive)
REMARK    1  A    between atoms: C_5  and  C_6
REMARK    2  A    between atoms: N_10  and  C_11
REMARK                            x       y       z     vdW  Elec       q    Type
REMARK                         _______ _______ _______ _____ _____    ______ ____
ROOT
ATOM      1  C   UNL     1      17.890  10.383  37.665  0.00  0.00    +0.000 A 
ATOM      2  C   UNL     1      17.509   9.583  38.720  0.00  0.00    +0.000 A 
ATOM      3  S   UNL     1      19.012   9.137  39.393  0.00  0.00    +0.000 S 
ATOM      4  C   UNL     1      20.023   9.982  38.311  0.00  0.00    +0.000 A 
ATOM      5  N   UNL     1      21.472  10.050  38.293  0.00  0.00    +0.000 NA
ATOM      6  N   UNL     1      19.165  10.560  37.493  0.00  0.00    +0.000 NA
ENDROOT
BRANCH   1  11
ATOM      7  C   UNL     1      15.954  11.040  32.753  0.00  0.00    +0.000 A 
ATOM      8  C   UNL     1      17.071  10.320  33.111  0.00  0.00    +0.000 A 
ATOM      9  C   UNL     1      17.428  10.259  34.453  0.00  0.00    +0.000 A 
ATOM     10  C   UNL     1      16.712  10.887  35.435  0.00  0.00    +0.000 A 
ATOM     11  C   UNL     1      16.838  10.988  36.803  0.00  0.00    +0.000 A 
ATOM     12  C   UNL     1      15.796  11.764  37.225  0.00  0.00    +0.000 A 
ATOM     13  N   UNL     1      15.043  12.133  36.142  0.00  0.00    +0.000 NA
ATOM     14  C   UNL     1      15.599  11.600  35.045  0.00  0.00    +0.000 A 
ATOM     15  C   UNL     1      15.201  11.693  33.736  0.00  0.00    +0.000 A 
ENDBRANCH   1  11
BRANCH   5  16
ATOM     16  C   UNL     1      22.186  10.803  37.318  0.00  0.00    +0.000 C 
ATOM     17  C   UNL     1      22.378   9.931  36.098  0.00  0.00    +0.000 C 
ATOM     18  C   UNL     1      23.533   9.029  36.515  0.00  0.00    +0.000 C 
ATOM     19  C   UNL     1      24.401   9.849  37.427  0.00  0.00    +0.000 C 
ATOM     20  C   UNL     1      23.616  11.119  37.732  0.00  0.00    +0.000 C 
ENDBRANCH   5  16
TORSDOF 2
ENDMDL
MODEL 3
REMARK VINA RESULT:      -7.0     21.025     22.907
REMARK  Name = 
REMARK  2 active torsions:
REMARK  status: ('A' for Active; 'I' for Inactive)
REMARK    1  A    between atoms: C_5  and  C_6
REMARK    2  A    between atoms: N_10  and  C_11
REMARK                            x       y       z     vdW  Elec       q    Type
REMARK                         _______ _______ _______ _____ _____    ______ ____
ROOT
ATOM      1  C   UNL     1      17.148  10.631  37.190  0.00  0.00    +0.000 A 
ATOM      2  C   UNL     1      18.439  10.323  36.823  0.00  0.00    +0.000 A 
ATOM      3  S   UNL     1      19.034   9.547  38.220  0.00  0.00    +0.000 S 
ATOM      4  C   UNL     1      17.627   9.657  39.177  0.00  0.00    +0.000 A 
ATOM      5  N   UNL     1      17.415   9.184  40.532  0.00  0.00    +0.000 NA
ATOM      6  N   UNL     1      16.776  10.279  38.384  0.00  0.00    +0.000 NA
ENDROOT
BRANCH   1  11
ATOM      7  C   UNL     1      15.730  11.304  32.106  0.00  0.00    +0.000 A 
ATOM      8  C   UNL     1      16.696  10.450  32.588  0.00  0.00    +0.000 A 
ATOM      9  C   UNL     1      16.931  10.408  33.957  0.00  0.00    +0.000 A 
ATOM     10  C   UNL     1      16.240  11.182  34.848  0.00  0.00    +0.000 A 
ATOM     11  C   UNL     1      16.270  11.335  36.216  0.00  0.00    +0.000 A 
ATOM     12  C   UNL     1      15.323  12.274  36.514  0.00  0.00    +0.000 A 
ATOM     13  N   UNL     1      14.723  12.691  35.357  0.00  0.00    +0.000 NA
ATOM     14  C   UNL     1      15.279  12.027  34.335  0.00  0.00    +0.000 A 
ATOM     15  C   UNL     1      15.006  12.109  32.993  0.00  0.00    +0.000 A 
ENDBRANCH   1  11
BRANCH   5  16
ATOM     16  C   UNL     1      16.174   9.348  41.211  0.00  0.00    +0.000 C 
ATOM     17  C   UNL     1      16.467   9.805  42.622  0.00  0.00    +0.000 C 
ATOM     18  C   UNL     1      16.881   8.509  43.309  0.00  0.00    +0.000 C 
ATOM     19  C   UNL     1      16.094   7.412  42.650  0.00  0.00    +0.000 C 
ATOM     20  C   UNL     1      15.430   8.039  41.429  0.00  0.00    +0.000 C 
ENDBRANCH   5  16
TORSDOF 2
ENDMDL
MODEL 4
REMARK VINA RESULT:      -6.6     20.299     22.895
REMARK  Name = 
REMARK  2 active torsions:
REMARK  status: ('A' for Active; 'I' for Inactive)
REMARK    1  A    between atoms: C_5  and  C_6
REMARK    2  A    between atoms: N_10  and  C_11
REMARK                            x       y       z     vdW  Elec       q    Type
REMARK                         _______ _______ _______ _____ _____    ______ ____
ROOT
ATOM      1  C   UNL     1      18.003  10.699  36.957  0.00  0.00    +0.000 A 
ATOM      2  C   UNL     1      18.273  10.013  35.794  0.00  0.00    +0.000 A 
ATOM      3  S   UNL     1      16.795  10.138  34.951  0.00  0.00    +0.000 S 
ATOM      4  C   UNL     1      15.931  11.043  36.109  0.00  0.00    +0.000 A 
ATOM      5  N   UNL     1      14.562  11.521  36.047  0.00  0.00    +0.000 NA
ATOM      6  N   UNL     1      16.811  11.204  37.078  0.00  0.00    +0.000 NA
ENDROOT
BRANCH   1  11
ATOM      7  C   UNL     1      21.256  13.910  39.679  0.00  0.00    +0.000 A 
ATOM      8  C   UNL     1      20.337  14.282  38.724  0.00  0.00    +0.000 A 
ATOM      9  C   UNL     1      19.569  13.298  38.114  0.00  0.00    +0.000 A 
ATOM     10  C   UNL     1      19.688  11.972  38.424  0.00  0.00    +0.000 A 
ATOM     11  C   UNL     1      19.070  10.821  37.987  0.00  0.00    +0.000 A 
ATOM     12  C   UNL     1      19.635   9.795  38.689  0.00  0.00    +0.000 A 
ATOM     13  N   UNL     1      20.580  10.299  39.542  0.00  0.00    +0.000 NA
ATOM     14  C   UNL     1      20.617  11.630  39.384  0.00  0.00    +0.000 A 
ATOM     15  C   UNL     1      21.401  12.559  40.019  0.00  0.00    +0.000 A 
ENDBRANCH   1  11
BRANCH   5  16
ATOM     16  C   UNL     1      13.970  12.273  37.101  0.00  0.00    +0.000 C 
ATOM     17  C   UNL     1      13.705  11.333  38.256  0.00  0.00    +0.000 C 
ATOM     18  C   UNL     1      12.439  10.612  37.811  0.00  0.00    +0.000 C 
ATOM     19  C   UNL     1      11.654  11.600  36.996  0.00  0.00    +0.000 C 
ATOM     20  C   UNL     1      12.579  12.789  36.763  0.00  0.00    +0.000 C 
ENDBRANCH   5  16
TORSDOF 2
ENDMDL
MODEL 5
REMARK VINA RESULT:      -6.5     18.851     21.220
REMARK  Name = 
REMARK  2 active torsions:
REMARK  status: ('A' for Active; 'I' for Inactive)
REMARK    1  A    between atoms: C_5  and  C_6
REMARK    2  A    between atoms: N_10  and  C_11
REMARK                            x       y       z     vdW  Elec       q    Type
REMARK                         _______ _______ _______ _____ _____    ______ ____
ROOT
ATOM      1  C   UNL     1      18.689   9.802  37.714  0.00  0.00    +0.000 A 
ATOM      2  C   UNL     1      19.556  10.752  38.206  0.00  0.00    +0.000 A 
ATOM      3  S   UNL     1      20.181   9.983  39.594  0.00  0.00    +0.000 S 
ATOM      4  C   UNL     1      19.317   8.518  39.470  0.00  0.00    +0.000 A 
ATOM      5  N   UNL     1      19.361   7.364  40.349  0.00  0.00    +0.000 NA
ATOM      6  N   UNL     1      18.597   8.690  38.379  0.00  0.00    +0.000 NA
ENDROOT
BRANCH   1  11
ATOM      7  C   UNL     1      14.590  12.354  35.478  0.00  0.00    +0.000 A 
ATOM      8  C   UNL     1      14.952  12.377  36.806  0.00  0.00    +0.000 A 
ATOM      9  C   UNL     1      16.061  11.643  37.211  0.00  0.00    +0.000 A 
ATOM     10  C   UNL     1      16.809  10.898  36.343  0.00  0.00    +0.000 A 
ATOM     11  C   UNL     1      17.923  10.099  36.472  0.00  0.00    +0.000 A 
ATOM     12  C   UNL     1      18.197   9.622  35.222  0.00  0.00    +0.000 A 
ATOM     13  N   UNL     1      17.273  10.114  34.340  0.00  0.00    +0.000 NA
ATOM     14  C   UNL     1      16.421  10.895  35.020  0.00  0.00    +0.000 A 
ATOM     15  C   UNL     1      15.337  11.601  34.565  0.00  0.00    +0.000 A 
ENDBRANCH   1  11
BRANCH   5  16
ATOM     16  C   UNL     1      18.575   6.200  40.117  0.00  0.00    +0.000 C 
ATOM     17  C   UNL     1      17.331   6.297  40.970  0.00  0.00    +0.000 C 
ATOM     18  C   UNL     1      17.845   5.898  42.348  0.00  0.00    +0.000 C 
ATOM     19  C   UNL     1      18.945   4.901  42.117  0.00  0.00    +0.000 C 
ATOM     20  C   UNL     1      19.229   4.922  40.620  0.00  0.00    +0.000 C 
ENDBRANCH   5  16
TORSDOF 2
ENDMDL
MODEL 6
REMARK VINA RESULT:      -6.4     18.717     19.965
REMARK  Name = 
REMARK  2 active torsions:
REMARK  status: ('A' for Active; 'I' for Inactive)
REMARK    1  A    between atoms: C_5  and  C_6
REMARK    2  A    between atoms: N_10  and  C_11
REMARK                            x       y       z     vdW  Elec       q    Type
REMARK                         _______ _______ _______ _____ _____    ______ ____
ROOT
ATOM      1  C   UNL     1      23.670   2.693  17.385  0.00  0.00    +0.000 A 
ATOM      2  C   UNL     1      24.330   1.484  17.417  0.00  0.00    +0.000 A 
ATOM      3  S   UNL     1      25.915   1.928  16.969  0.00  0.00    +0.000 S 
ATOM      4  C   UNL     1      25.652   3.601  16.771  0.00  0.00    +0.000 A 
ATOM      5  N   UNL     1      26.602   4.627  16.383  0.00  0.00    +0.000 NA
ATOM      6  N   UNL     1      24.371   3.736  17.055  0.00  0.00    +0.000 NA
ENDROOT
BRANCH   1  11
ATOM      7  C   UNL     1      19.725   5.234  19.891  0.00  0.00    +0.000 A 
ATOM      8  C   UNL     1      21.049   5.607  19.845  0.00  0.00    +0.000 A 
ATOM      9  C   UNL     1      21.944   4.814  19.136  0.00  0.00    +0.000 A 
ATOM     10  C   UNL     1      21.562   3.677  18.481  0.00  0.00    +0.000 A 
ATOM     11  C   UNL     1      22.222   2.733  17.725  0.00  0.00    +0.000 A 
ATOM     12  C   UNL     1      21.277   1.825  17.341  0.00  0.00    +0.000 A 
ATOM     13  N   UNL     1      20.061   2.198  17.847  0.00  0.00    +0.000 NA
ATOM     14  C   UNL     1      20.229   3.329  18.546  0.00  0.00    +0.000 A 
ATOM     15  C   UNL     1      19.303   4.075  19.230  0.00  0.00    +0.000 A 
ENDBRANCH   1  11
BRANCH   5  16
ATOM     16  C   UNL     1      26.235   5.996  16.257  0.00  0.00    +0.000 C 
ATOM     17  C   UNL     1      27.390   6.735  15.620  0.00  0.00    +0.000 C 
ATOM     18  C   UNL     1      28.352   6.912  16.788  0.00  0.00    +0.000 C 
ATOM     19  C   UNL     1      27.503   7.052  18.019  0.00  0.00    +0.000 C 
ATOM     20  C   UNL     1      26.080   6.703  17.595  0.00  0.00    +0.000 C 
ENDBRANCH   5  16
TORSDOF 2
ENDMDL
MODEL 7
REMARK VINA RESULT:      -6.2      1.625      6.995
REMARK  Name = 
REMARK  2 active torsions:
REMARK  status: ('A' for Active; 'I' for Inactive)
REMARK    1  A    between atoms: C_5  and  C_6
REMARK    2  A    between atoms: N_10  and  C_11
REMARK                            x       y       z     vdW  Elec       q    Type
REMARK                         _______ _______ _______ _____ _____    ______ ____
ROOT
ATOM      1  C   UNL     1      33.403  -5.453  33.073  0.00  0.00    +0.000 A 
ATOM      2  C   UNL     1      32.300  -5.978  33.708  0.00  0.00    +0.000 A 
ATOM      3  S   UNL     1      31.829  -4.695  34.728  0.00  0.00    +0.000 S 
ATOM      4  C   UNL     1      33.043  -3.580  34.294  0.00  0.00    +0.000 A 
ATOM      5  N   UNL     1      33.255  -2.233  34.789  0.00  0.00    +0.000 NA
ATOM      6  N   UNL     1      33.746  -4.242  33.395  0.00  0.00    +0.000 NA
ENDROOT
BRANCH   1  11
ATOM      7  C   UNL     1      34.058  -6.746  27.953  0.00  0.00    +0.000 A 
ATOM      8  C   UNL     1      33.180  -5.818  28.465  0.00  0.00    +0.000 A 
ATOM      9  C   UNL     1      33.148  -5.612  29.839  0.00  0.00    +0.000 A 
ATOM     10  C   UNL     1      33.955  -6.295  30.706  0.00  0.00    +0.000 A 
ATOM     11  C   UNL     1      34.124  -6.287  32.073  0.00  0.00    +0.000 A 
ATOM     12  C   UNL     1      35.096  -7.209  32.341  0.00  0.00    +0.000 A 
ATOM     13  N   UNL     1      35.518  -7.773  31.167  0.00  0.00    +0.000 NA
ATOM     14  C   UNL     1      34.824  -7.218  30.164  0.00  0.00    +0.000 A 
ATOM     15  C   UNL     1      34.898  -7.461  28.816  0.00  0.00    +0.000 A 
ENDBRANCH   1  11
BRANCH   5  16
ATOM     16  C   UNL     1      34.323  -1.412  34.329  0.00  0.00    +0.000 C 
ATOM     17  C   UNL     1      34.660  -0.423  35.423  0.00  0.00    +0.000 C 
ATOM     18  C   UNL     1      33.555   0.616  35.280  0.00  0.00    +0.000 C 
ATOM     19  C   UNL     1      33.211   0.669  33.818  0.00  0.00    +0.000 C 
ATOM     20  C   UNL     1      33.930  -0.508  33.170  0.00  0.00    +0.000 C 
ENDBRANCH   5  16
TORSDOF 2
ENDMDL
MODEL 8
REMARK VINA RESULT:      -6.2     17.576     20.666
REMARK  Name = 
REMARK  2 active torsions:
REMARK  status: ('A' for Active; 'I' for Inactive)
REMARK    1  A    between atoms: C_5  and  C_6
REMARK    2  A    between atoms: N_10  and  C_11
REMARK                            x       y       z     vdW  Elec       q    Type
REMARK                         _______ _______ _______ _____ _____    ______ ____
ROOT
ATOM      1  C   UNL     1      19.520  10.867  38.074  0.00  0.00    +0.000 A 
ATOM      2  C   UNL     1      18.751  10.937  36.933  0.00  0.00    +0.000 A 
ATOM      3  S   UNL     1      17.268  10.277  37.458  0.00  0.00    +0.000 S 
ATOM      4  C   UNL     1      17.703   9.956  39.075  0.00  0.00    +0.000 A 
ATOM      5  N   UNL     1      16.896   9.374  40.131  0.00  0.00    +0.000 NA
ATOM      6  N   UNL     1      18.955  10.367  39.133  0.00  0.00    +0.000 NA
ENDROOT
BRANCH   1  11
ATOM      7  C   UNL     1      24.493  10.079  36.355  0.00  0.00    +0.000 A 
ATOM      8  C   UNL     1      23.402   9.271  36.127  0.00  0.00    +0.000 A 
ATOM      9  C   UNL     1      22.172   9.639  36.658  0.00  0.00    +0.000 A 
ATOM     10  C   UNL     1      22.000  10.774  37.401  0.00  0.00    +0.000 A 
ATOM     11  C   UNL     1      20.923  11.359  38.030  0.00  0.00    +0.000 A 
ATOM     12  C   UNL     1      21.398  12.499  38.616  0.00  0.00    +0.000 A 
ATOM     13  N   UNL     1      22.737  12.615  38.355  0.00  0.00    +0.000 NA
ATOM     14  C   UNL     1      23.111  11.563  37.614  0.00  0.00    +0.000 A 
ATOM     15  C   UNL     1      24.348  11.248  37.112  0.00  0.00    +0.000 A 
ENDBRANCH   1  11
BRANCH   5  16
ATOM     16  C   UNL     1      17.400   9.164  41.445  0.00  0.00    +0.000 C 
ATOM     17  C   UNL     1      17.991   7.774  41.505  0.00  0.00    +0.000 C 
ATOM     18  C   UNL     1      16.754   6.895  41.640  0.00  0.00    +0.000 C 
ATOM     19  C   UNL     1      15.749   7.696  42.418  0.00  0.00    +0.000 C 
ATOM     20  C   UNL     1      16.309   9.111  42.505  0.00  0.00    +0.000 C 
ENDBRANCH   5  16
TORSDOF 2
ENDMDL
MODEL 9
REMARK VINA RESULT:      -6.1     13.431     15.184
REMARK  Name = 
REMARK  2 active torsions:
REMARK  status: ('A' for Active; 'I' for Inactive)
REMARK    1  A    between atoms: C_5  and  C_6
REMARK    2  A    between atoms: N_10  and  C_11
REMARK                            x       y       z     vdW  Elec       q    Type
REMARK                         _______ _______ _______ _____ _____    ______ ____
ROOT
ATOM      1  C   UNL     1      21.476  -9.632  26.506  0.00  0.00    +0.000 A 
ATOM      2  C   UNL     1      22.048 -10.590  27.314  0.00  0.00    +0.000 A 
ATOM      3  S   UNL     1      23.502 -10.932  26.491  0.00  0.00    +0.000 S 
ATOM      4  C   UNL     1      23.304  -9.851  25.188  0.00  0.00    +0.000 A 
ATOM      5  N   UNL     1      24.195  -9.610  24.068  0.00  0.00    +0.000 NA
ATOM      6  N   UNL     1      22.140  -9.286  25.445  0.00  0.00    +0.000 NA
ENDROOT
BRANCH   1  11
ATOM      7  C   UNL     1      18.277  -5.381  26.541  0.00  0.00    +0.000 A 
ATOM      8  C   UNL     1      19.549  -5.453  26.019  0.00  0.00    +0.000 A 
ATOM      9  C   UNL     1      20.239  -6.657  26.101  0.00  0.00    +0.000 A 
ATOM     10  C   UNL     1      19.706  -7.774  26.681  0.00  0.00    +0.000 A 
ATOM     11  C   UNL     1      20.157  -9.059  26.891  0.00  0.00    +0.000 A 
ATOM     12  C   UNL     1      19.147  -9.717  27.531  0.00  0.00    +0.000 A 
ATOM     13  N   UNL     1      18.095  -8.860  27.712  0.00  0.00    +0.000 NA
ATOM     14  C   UNL     1      18.431  -7.670  27.195  0.00  0.00    +0.000 A 
ATOM     15  C   UNL     1      17.704  -6.509  27.140  0.00  0.00    +0.000 A 
ENDBRANCH   1  11
BRANCH   5  16
ATOM     16  C   UNL     1      23.894  -8.668  23.045  0.00  0.00    +0.000 C 
ATOM     17  C   UNL     1      25.095  -8.565  22.133  0.00  0.00    +0.000 C 
ATOM     18  C   UNL     1      26.039  -7.673  22.931  0.00  0.00    +0.000 C 
ATOM     19  C   UNL     1      25.169  -6.731  23.713  0.00  0.00    +0.000 C 
ATOM     20  C   UNL     1      23.742  -7.246  23.563  0.00  0.00    +0.000 C 
ENDBRANCH   5  16
TORSDOF 2
ENDMDL
MODEL 10
REMARK VINA RESULT:      -6.1     17.279     20.408
REMARK  Name = 
REMARK  2 active torsions:
REMARK  status: ('A' for Active; 'I' for Inactive)
REMARK    1  A    between atoms: C_5  and  C_6
REMARK    2  A    between atoms: N_10  and  C_11
REMARK                            x       y       z     vdW  Elec       q    Type
REMARK                         _______ _______ _______ _____ _____    ______ ____
ROOT
ATOM      1  C   UNL     1      18.755   9.122  38.937  0.00  0.00    +0.000 A 
ATOM      2  C   UNL     1      17.820   9.886  38.273  0.00  0.00    +0.000 A 
ATOM      3  S   UNL     1      18.798  10.851  37.262  0.00  0.00    +0.000 S 
ATOM      4  C   UNL     1      20.316  10.236  37.733  0.00  0.00    +0.000 A 
ATOM      5  N   UNL     1      21.634  10.617  37.259  0.00  0.00    +0.000 NA
ATOM      6  N   UNL     1      20.002   9.328  38.637  0.00  0.00    +0.000 NA
ENDROOT
BRANCH   1  11
ATOM      7  C   UNL     1      16.131   8.216  43.476  0.00  0.00    +0.000 A 
ATOM      8  C   UNL     1      16.327   9.433  42.864  0.00  0.00    +0.000 A 
ATOM      9  C   UNL     1      17.042   9.477  41.673  0.00  0.00    +0.000 A 
ATOM     10  C   UNL     1      17.562   8.359  41.083  0.00  0.00    +0.000 A 
ATOM     11  C   UNL     1      18.290   8.124  39.938  0.00  0.00    +0.000 A 
ATOM     12  C   UNL     1      18.510   6.777  39.897  0.00  0.00    +0.000 A 
ATOM     13  N   UNL     1      17.931   6.192  40.990  0.00  0.00    +0.000 NA
ATOM     14  C   UNL     1      17.350   7.154  41.720  0.00  0.00    +0.000 A 
ATOM     15  C   UNL     1      16.650   7.052  42.895  0.00  0.00    +0.000 A 
ENDBRANCH   1  11
BRANCH   5  16
ATOM     16  C   UNL     1      22.824  10.010  37.750  0.00  0.00    +0.000 C 
ATOM     17  C   UNL     1      23.887  11.080  37.858  0.00  0.00    +0.000 C 
ATOM     18  C   UNL     1      24.344  11.238  36.413  0.00  0.00    +0.000 C 
ATOM     19  C   UNL     1      24.209   9.884  35.777  0.00  0.00    +0.000 C 
ATOM     20  C   UNL     1      23.442   9.021  36.772  0.00  0.00    +0.000 C 
ENDBRANCH   5  16
TORSDOF 2
ENDMDL
