MODEL 1
REMARK VINA RESULT:      -7.6      0.000      0.000
REMARK  Name = 
REMARK  3 active torsions:
REMARK  status: ('A' for Active; 'I' for Inactive)
REMARK    1  A    between atoms: S_2  and  N_4
REMARK    2  A    between atoms: S_2  and  C_14
REMARK    3  A    between atoms: N_4  and  N_5
REMARK                            x       y       z     vdW  Elec       q    Type
REMARK                         _______ _______ _______ _____ _____    ______ ____
ROOT
ATOM      1  N   UNL     1      16.385  10.537  33.524  0.00  0.00    +0.000 NA
ENDROOT
BRANCH   1   2
ATOM      2  N   UNL     1      16.099  10.994  34.789  0.00  0.00    +0.000 NA
ATOM      3  C   UNL     1      16.756  10.606  35.851  0.00  0.00    +0.000 C 
ATOM      4  C   UNL     1      16.189  11.294  37.039  0.00  0.00    +0.000 C 
ATOM      5  C   UNL     1      16.791  12.679  37.115  0.00  0.00    +0.000 C 
ATOM      6  C   UNL     1      18.272  12.501  37.415  0.00  0.00    +0.000 C 
ATOM      7  C   UNL     1      18.523  11.173  38.124  0.00  0.00    +0.000 C 
ATOM      8  C   UNL     1      19.429  10.290  37.266  0.00  0.00    +0.000 C 
ATOM      9  C   UNL     1      18.597   9.187  36.670  0.00  0.00    +0.000 C 
ATOM     10  C   UNL     1      17.796   9.646  35.470  0.00  0.00    +0.000 C 
ENDBRANCH   1   2
BRANCH   1  12
ATOM     11  O   UNL     1      16.098  10.740  30.948  0.00  0.00    +0.000 OA
ATOM     12  S   UNL     1      15.300  10.825  32.239  0.00  0.00    +0.000 S 
ATOM     13  O   UNL     1      14.210   9.780  32.172  0.00  0.00    +0.000 OA
BRANCH  12  14
ATOM     14  C   UNL     1      14.609  12.405  32.416  0.00  0.00    +0.000 A 
ATOM     15  C   UNL     1      14.203  12.849  33.640  0.00  0.00    +0.000 A 
ATOM     16  C   UNL     1      13.644  14.123  33.788  0.00  0.00    +0.000 A 
ATOM     17  C   UNL     1      13.523  14.906  32.648  0.00  0.00    +0.000 A 
ATOM     18  C   UNL     1      13.929  14.470  31.404  0.00  0.00    +0.000 A 
ATOM     19  C   UNL     1      14.471  13.208  31.320  0.00  0.00    +0.000 A 
ENDBRANCH  12  14
ENDBRANCH   1  12
TORSDOF 3
ENDMDL
MODEL 2
REMARK VINA RESULT:      -7.0      2.620      3.320
REMARK  Name = 
REMARK  3 active torsions:
REMARK  status: ('A' for Active; 'I' for Inactive)
REMARK    1  A    between atoms: S_2  and  N_4
REMARK    2  A    between atoms: S_2  and  C_14
REMARK    3  A    between atoms: N_4  and  N_5
REMARK                            x       y       z     vdW  Elec       q    Type
REMARK                         _______ _______ _______ _____ _____    ______ ____
ROOT
ATOM      1  N   UNL     1      17.121   9.954  35.598  0.00  0.00    +0.000 NA
ENDROOT
BRANCH   1   2
ATOM      2  N   UNL     1      17.466   9.536  36.862  0.00  0.00    +0.000 NA
ATOM      3  C   UNL     1      18.705   9.420  37.260  0.00  0.00    +0.000 C 
ATOM      4  C   UNL     1      18.711   8.949  38.669  0.00  0.00    +0.000 C 
ATOM      5  C   UNL     1      18.486  10.146  39.567  0.00  0.00    +0.000 C 
ATOM      6  C   UNL     1      19.710  11.038  39.430  0.00  0.00    +0.000 C 
ATOM      7  C   UNL     1      20.927  10.222  39.002  0.00  0.00    +0.000 C 
ATOM      8  C   UNL     1      21.430  10.715  37.644  0.00  0.00    +0.000 C 
ATOM      9  C   UNL     1      21.064   9.696  36.600  0.00  0.00    +0.000 C 
ATOM     10  C   UNL     1      19.615   9.795  36.173  0.00  0.00    +0.000 C 
ENDBRANCH   1   2
BRANCH   1  12
ATOM     11  O   UNL     1      15.049  11.372  36.273  0.00  0.00    +0.000 OA
ATOM     12  S   UNL     1      16.276  11.419  35.375  0.00  0.00    +0.000 S 
ATOM     13  O   UNL     1      17.100  12.617  35.790  0.00  0.00    +0.000 OA
BRANCH  12  14
ATOM     14  C   UNL     1      15.802  11.561  33.714  0.00  0.00    +0.000 A 
ATOM     15  C   UNL     1      16.331  10.730  32.770  0.00  0.00    +0.000 A 
ATOM     16  C   UNL     1      15.953  10.840  31.429  0.00  0.00    +0.000 A 
ATOM     17  C   UNL     1      15.024  11.820  31.104  0.00  0.00    +0.000 A 
ATOM     18  C   UNL     1      14.481  12.667  32.047  0.00  0.00    +0.000 A 
ATOM     19  C   UNL     1      14.892  12.511  33.351  0.00  0.00    +0.000 A 
ENDBRANCH  12  14
ENDBRANCH   1  12
TORSDOF 3
ENDMDL
MODEL 3
REMARK VINA RESULT:      -6.9      4.794      7.515
REMARK  Name = 
REMARK  3 active torsions:
REMARK  status: ('A' for Active; 'I' for Inactive)
REMARK    1  A    between atoms: S_2  and  N_4
REMARK    2  A    between atoms: S_2  and  C_14
REMARK    3  A    between atoms: N_4  and  N_5
REMARK                            x       y       z     vdW  Elec       q    Type
REMARK                         _______ _______ _______ _____ _____    ______ ____
ROOT
ATOM      1  N   UNL     1      18.632  10.670  38.355  0.00  0.00    +0.000 NA
ENDROOT
BRANCH   1   2
ATOM      2  N   UNL     1      18.252  10.052  37.186  0.00  0.00    +0.000 NA
ATOM      3  C   UNL     1      17.105  10.278  36.602  0.00  0.00    +0.000 C 
ATOM      4  C   UNL     1      17.026   9.450  35.371  0.00  0.00    +0.000 C 
ATOM      5  C   UNL     1      17.781  10.164  34.272  0.00  0.00    +0.000 C 
ATOM      6  C   UNL     1      17.007  11.435  33.959  0.00  0.00    +0.000 C 
ATOM      7  C   UNL     1      15.535  11.277  34.332  0.00  0.00    +0.000 C 
ATOM      8  C   UNL     1      15.163  12.294  35.412  0.00  0.00    +0.000 C 
ATOM      9  C   UNL     1      15.007  11.566  36.720  0.00  0.00    +0.000 C 
ATOM     10  C   UNL     1      16.337  11.258  37.376  0.00  0.00    +0.000 C 
ENDBRANCH   1   2
BRANCH   1  12
ATOM     11  O   UNL     1      20.114   8.705  39.194  0.00  0.00    +0.000 OA
ATOM     12  S   UNL     1      19.122   9.741  39.700  0.00  0.00    +0.000 S 
ATOM     13  O   UNL     1      19.829  10.580  40.740  0.00  0.00    +0.000 OA
BRANCH  12  14
ATOM     14  C   UNL     1      17.738   8.962  40.394  0.00  0.00    +0.000 A 
ATOM     15  C   UNL     1      17.773   7.632  40.695  0.00  0.00    +0.000 A 
ATOM     16  C   UNL     1      16.659   6.998  41.255  0.00  0.00    +0.000 A 
ATOM     17  C   UNL     1      15.531   7.773  41.488  0.00  0.00    +0.000 A 
ATOM     18  C   UNL     1      15.481   9.118  41.188  0.00  0.00    +0.000 A 
ATOM     19  C   UNL     1      16.608   9.687  40.639  0.00  0.00    +0.000 A 
ENDBRANCH  12  14
ENDBRANCH   1  12
TORSDOF 3
ENDMDL
MODEL 4
REMARK VINA RESULT:      -6.8     19.463     20.849
REMARK  Name = 
REMARK  3 active torsions:
REMARK  status: ('A' for Active; 'I' for Inactive)
REMARK    1  A    between atoms: S_2  and  N_4
REMARK    2  A    between atoms: S_2  and  C_14
REMARK    3  A    between atoms: N_4  and  N_5
REMARK                            x       y       z     vdW  Elec       q    Type
REMARK                         _______ _______ _______ _____ _____    ______ ____
ROOT
ATOM      1  N   UNL     1      27.875  25.592  22.626  0.00  0.00    +0.000 NA
ENDROOT
BRANCH   1   2
ATOM      2  N   UNL     1      28.053  26.224  23.835  0.00  0.00    +0.000 NA
ATOM      3  C   UNL     1      27.212  26.108  24.829  0.00  0.00    +0.000 C 
ATOM      4  C   UNL     1      27.710  26.918  25.971  0.00  0.00    +0.000 C 
ATOM      5  C   UNL     1      28.758  26.108  26.702  0.00  0.00    +0.000 C 
ATOM      6  C   UNL     1      28.043  24.920  27.325  0.00  0.00    +0.000 C 
ATOM      7  C   UNL     1      26.568  25.239  27.557  0.00  0.00    +0.000 C 
ATOM      8  C   UNL     1      25.697  24.286  26.736  0.00  0.00    +0.000 C 
ATOM      9  C   UNL     1      25.116  25.051  25.577  0.00  0.00    +0.000 C 
ATOM     10  C   UNL     1      26.103  25.230  24.444  0.00  0.00    +0.000 C 
ENDBRANCH   1   2
BRANCH   1  12
ATOM     11  O   UNL     1      27.778  23.111  21.856  0.00  0.00    +0.000 OA
ATOM     12  S   UNL     1      28.773  24.192  22.246  0.00  0.00    +0.000 S 
ATOM     13  O   UNL     1      29.694  24.413  21.068  0.00  0.00    +0.000 OA
BRANCH  12  14
ATOM     14  C   UNL     1      29.683  23.699  23.637  0.00  0.00    +0.000 A 
ATOM     15  C   UNL     1      29.177  22.772  24.501  0.00  0.00    +0.000 A 
ATOM     16  C   UNL     1      29.907  22.371  25.625  0.00  0.00    +0.000 A 
ATOM     17  C   UNL     1      31.153  22.952  25.820  0.00  0.00    +0.000 A 
ATOM     18  C   UNL     1      31.677  23.890  24.955  0.00  0.00    +0.000 A 
ATOM     19  C   UNL     1      30.913  24.245  23.867  0.00  0.00    +0.000 A 
ENDBRANCH  12  14
ENDBRANCH   1  12
TORSDOF 3
ENDMDL
MODEL 5
REMARK VINA RESULT:      -6.8      4.496      7.551
REMARK  Name = 
REMARK  3 active torsions:
REMARK  status: ('A' for Active; 'I' for Inactive)
REMARK    1  A    between atoms: S_2  and  N_4
REMARK    2  A    between atoms: S_2  and  C_14
REMARK    3  A    between atoms: N_4  and  N_5
REMARK                            x       y       z     vdW  Elec       q    Type
REMARK                         _______ _______ _______ _____ _____    ______ ____
ROOT
ATOM      1  N   UNL     1      19.065  11.171  37.676  0.00  0.00    +0.000 NA
ENDROOT
BRANCH   1   2
ATOM      2  N   UNL     1      18.529  10.426  36.653  0.00  0.00    +0.000 NA
ATOM      3  C   UNL     1      17.289  10.547  36.258  0.00  0.00    +0.000 C 
ATOM      4  C   UNL     1      17.049   9.597  35.141  0.00  0.00    +0.000 C 
ATOM      5  C   UNL     1      17.565  10.228  33.867  0.00  0.00    +0.000 C 
ATOM      6  C   UNL     1      16.679  11.429  33.578  0.00  0.00    +0.000 C 
ATOM      7  C   UNL     1      15.304  11.251  34.215  0.00  0.00    +0.000 C 
ATOM      8  C   UNL     1      15.063  12.355  35.245  0.00  0.00    +0.000 C 
ATOM      9  C   UNL     1      15.172  11.756  36.621  0.00  0.00    +0.000 C 
ATOM     10  C   UNL     1      16.608  11.567  37.061  0.00  0.00    +0.000 C 
ENDBRANCH   1   2
BRANCH   1  12
ATOM     11  O   UNL     1      20.423  11.375  39.884  0.00  0.00    +0.000 OA
ATOM     12  S   UNL     1      20.357  10.555  38.605  0.00  0.00    +0.000 S 
ATOM     13  O   UNL     1      20.135   9.113  38.999  0.00  0.00    +0.000 OA
BRANCH  12  14
ATOM     14  C   UNL     1      21.833  10.714  37.711  0.00  0.00    +0.000 A 
ATOM     15  C   UNL     1      22.071   9.928  36.622  0.00  0.00    +0.000 A 
ATOM     16  C   UNL     1      23.260  10.052  35.897  0.00  0.00    +0.000 A 
ATOM     17  C   UNL     1      24.178  11.000  36.331  0.00  0.00    +0.000 A 
ATOM     18  C   UNL     1      23.952  11.801  37.430  0.00  0.00    +0.000 A 
ATOM     19  C   UNL     1      22.763  11.634  38.103  0.00  0.00    +0.000 A 
ENDBRANCH  12  14
ENDBRANCH   1  12
TORSDOF 3
ENDMDL
MODEL 6
REMARK VINA RESULT:      -6.7     28.385     30.168
REMARK  Name = 
REMARK  3 active torsions:
REMARK  status: ('A' for Active; 'I' for Inactive)
REMARK    1  A    between atoms: S_2  and  N_4
REMARK    2  A    between atoms: S_2  and  C_14
REMARK    3  A    between atoms: N_4  and  N_5
REMARK                            x       y       z     vdW  Elec       q    Type
REMARK                         _______ _______ _______ _____ _____    ______ ____
ROOT
ATOM      1  N   UNL     1      31.662  21.801  11.585  0.00  0.00    +0.000 NA
ENDROOT
BRANCH   1   2
ATOM      2  N   UNL     1      32.768  22.431  11.064  0.00  0.00    +0.000 NA
ATOM      3  C   UNL     1      33.940  21.857  10.980  0.00  0.00    +0.000 C 
ATOM      4  C   UNL     1      34.897  22.817  10.372  0.00  0.00    +0.000 C 
ATOM      5  C   UNL     1      34.717  22.777   8.871  0.00  0.00    +0.000 C 
ATOM      6  C   UNL     1      35.169  21.401   8.408  0.00  0.00    +0.000 C 
ATOM      7  C   UNL     1      36.171  20.803   9.391  0.00  0.00    +0.000 C 
ATOM      8  C   UNL     1      35.605  19.513   9.988  0.00  0.00    +0.000 C 
ATOM      9  C   UNL     1      35.199  19.783  11.411  0.00  0.00    +0.000 C 
ATOM     10  C   UNL     1      33.865  20.493  11.512  0.00  0.00    +0.000 C 
ENDBRANCH   1   2
BRANCH   1  12
ATOM     11  O   UNL     1      30.356  22.774   9.558  0.00  0.00    +0.000 OA
ATOM     12  S   UNL     1      30.166  21.873  10.768  0.00  0.00    +0.000 S 
ATOM     13  O   UNL     1      29.730  20.516  10.264  0.00  0.00    +0.000 OA
BRANCH  12  14
ATOM     14  C   UNL     1      28.965  22.535  11.829  0.00  0.00    +0.000 A 
ATOM     15  C   UNL     1      29.330  23.131  13.000  0.00  0.00    +0.000 A 
ATOM     16  C   UNL     1      28.365  23.666  13.860  0.00  0.00    +0.000 A 
ATOM     17  C   UNL     1      27.035  23.566  13.472  0.00  0.00    +0.000 A 
ATOM     18  C   UNL     1      26.652  22.966  12.291  0.00  0.00    +0.000 A 
ATOM     19  C   UNL     1      27.646  22.458  11.486  0.00  0.00    +0.000 A 
ENDBRANCH  12  14
ENDBRANCH   1  12
TORSDOF 3
ENDMDL
MODEL 7
REMARK VINA RESULT:      -6.7      3.571      4.668
REMARK  Name = 
REMARK  3 active torsions:
REMARK  status: ('A' for Active; 'I' for Inactive)
REMARK    1  A    between atoms: S_2  and  N_4
REMARK    2  A    between atoms: S_2  and  C_14
REMARK    3  A    between atoms: N_4  and  N_5
REMARK                            x       y       z     vdW  Elec       q    Type
REMARK                         _______ _______ _______ _____ _____    ______ ____
ROOT
ATOM      1  N   UNL     1      16.772  10.662  36.215  0.00  0.00    +0.000 NA
ENDROOT
BRANCH   1   2
ATOM      2  N   UNL     1      17.170   9.961  37.329  0.00  0.00    +0.000 NA
ATOM      3  C   UNL     1      18.409   9.601  37.540  0.00  0.00    +0.000 C 
ATOM      4  C   UNL     1      18.480   8.867  38.829  0.00  0.00    +0.000 C 
ATOM      5  C   UNL     1      18.536   9.882  39.948  0.00  0.00    +0.000 C 
ATOM      6  C   UNL     1      19.865  10.610  39.819  0.00  0.00    +0.000 C 
ATOM      7  C   UNL     1      20.890   9.737  39.101  0.00  0.00    +0.000 C 
ATOM      8  C   UNL     1      21.328  10.415  37.802  0.00  0.00    +0.000 C 
ATOM      9  C   UNL     1      20.705   9.680  36.646  0.00  0.00    +0.000 C 
ATOM     10  C   UNL     1      19.254  10.056  36.431  0.00  0.00    +0.000 C 
ENDBRANCH   1   2
BRANCH   1  12
ATOM     11  O   UNL     1      16.416  13.050  37.178  0.00  0.00    +0.000 OA
ATOM     12  S   UNL     1      15.702  11.982  36.364  0.00  0.00    +0.000 S 
ATOM     13  O   UNL     1      15.355  12.585  35.022  0.00  0.00    +0.000 OA
BRANCH  12  14
ATOM     14  C   UNL     1      14.264  11.464  37.181  0.00  0.00    +0.000 A 
ATOM     15  C   UNL     1      13.058  11.491  36.543  0.00  0.00    +0.000 A 
ATOM     16  C   UNL     1      11.894  11.075  37.197  0.00  0.00    +0.000 A 
ATOM     17  C   UNL     1      12.019  10.638  38.509  0.00  0.00    +0.000 A 
ATOM     18  C   UNL     1      13.230  10.605  39.167  0.00  0.00    +0.000 A 
ATOM     19  C   UNL     1      14.341  11.026  38.471  0.00  0.00    +0.000 A 
ENDBRANCH  12  14
ENDBRANCH   1  12
TORSDOF 3
ENDMDL
MODEL 8
REMARK VINA RESULT:      -6.6     17.444     18.838
REMARK  Name = 
REMARK  3 active torsions:
REMARK  status: ('A' for Active; 'I' for Inactive)
REMARK    1  A    between atoms: S_2  and  N_4
REMARK    2  A    between atoms: S_2  and  C_14
REMARK    3  A    between atoms: N_4  and  N_5
REMARK                            x       y       z     vdW  Elec       q    Type
REMARK                         _______ _______ _______ _____ _____    ______ ____
ROOT
ATOM      1  N   UNL     1      10.408  24.239  21.582  0.00  0.00    +0.000 NA
ENDROOT
BRANCH   1   2
ATOM      2  N   UNL     1      10.418  22.914  21.952  0.00  0.00    +0.000 NA
ATOM      3  C   UNL     1       9.653  22.013  21.392  0.00  0.00    +0.000 C 
ATOM      4  C   UNL     1       9.921  20.699  22.030  0.00  0.00    +0.000 C 
ATOM      5  C   UNL     1      11.160  20.109  21.394  0.00  0.00    +0.000 C 
ATOM      6  C   UNL     1      10.809  19.797  19.948  0.00  0.00    +0.000 C 
ATOM      7  C   UNL     1       9.307  19.577  19.793  0.00  0.00    +0.000 C 
ATOM      8  C   UNL     1       8.724  20.630  18.848  0.00  0.00    +0.000 C 
ATOM      9  C   UNL     1       7.941  21.622  19.664  0.00  0.00    +0.000 C 
ATOM     10  C   UNL     1       8.827  22.637  20.354  0.00  0.00    +0.000 C 
ENDBRANCH   1   2
BRANCH   1  12
ATOM     11  O   UNL     1      11.333  24.903  19.245  0.00  0.00    +0.000 OA
ATOM     12  S   UNL     1      11.720  24.901  20.715  0.00  0.00    +0.000 S 
ATOM     13  O   UNL     1      12.001  26.331  21.117  0.00  0.00    +0.000 OA
BRANCH  12  14
ATOM     14  C   UNL     1      13.126  23.918  20.966  0.00  0.00    +0.000 A 
ATOM     15  C   UNL     1      13.370  22.842  20.163  0.00  0.00    +0.000 A 
ATOM     16  C   UNL     1      14.503  22.047  20.361  0.00  0.00    +0.000 A 
ATOM     17  C   UNL     1      15.358  22.396  21.397  0.00  0.00    +0.000 A 
ATOM     18  C   UNL     1      15.125  23.480  22.216  0.00  0.00    +0.000 A 
ATOM     19  C   UNL     1      13.994  24.226  21.973  0.00  0.00    +0.000 A 
ENDBRANCH  12  14
ENDBRANCH   1  12
TORSDOF 3
ENDMDL
MODEL 9
REMARK VINA RESULT:      -6.5     19.349     21.145
REMARK  Name = 
REMARK  3 active torsions:
REMARK  status: ('A' for Active; 'I' for Inactive)
REMARK    1  A    between atoms: S_2  and  N_4
REMARK    2  A    between atoms: S_2  and  C_14
REMARK    3  A    between atoms: N_4  and  N_5
REMARK                            x       y       z     vdW  Elec       q    Type
REMARK                         _______ _______ _______ _____ _____    ______ ____
ROOT
ATOM      1  N   UNL     1      34.697   1.811  37.757  0.00  0.00    +0.000 NA
ENDROOT
BRANCH   1   2
ATOM      2  N   UNL     1      34.070   3.001  37.473  0.00  0.00    +0.000 NA
ATOM      3  C   UNL     1      34.721   4.099  37.192  0.00  0.00    +0.000 C 
ATOM      4  C   UNL     1      33.739   5.184  36.939  0.00  0.00    +0.000 C 
ATOM      5  C   UNL     1      33.249   5.055  35.514  0.00  0.00    +0.000 C 
ATOM      6  C   UNL     1      34.434   5.358  34.610  0.00  0.00    +0.000 C 
ATOM      7  C   UNL     1      35.446   6.247  35.328  0.00  0.00    +0.000 C 
ATOM      8  C   UNL     1      36.781   5.512  35.457  0.00  0.00    +0.000 C 
ATOM      9  C   UNL     1      36.957   5.090  36.890  0.00  0.00    +0.000 C 
ATOM     10  C   UNL     1      36.165   3.846  37.232  0.00  0.00    +0.000 C 
ENDBRANCH   1   2
BRANCH   1  12
ATOM     11  O   UNL     1      35.012  -0.765  37.601  0.00  0.00    +0.000 OA
ATOM     12  S   UNL     1      34.068   0.342  37.159  0.00  0.00    +0.000 S 
ATOM     13  O   UNL     1      32.704   0.035  37.732  0.00  0.00    +0.000 OA
BRANCH  12  14
ATOM     14  C   UNL     1      33.993   0.412  35.429  0.00  0.00    +0.000 A 
ATOM     15  C   UNL     1      34.295  -0.686  34.678  0.00  0.00    +0.000 A 
ATOM     16  C   UNL     1      34.237  -0.634  33.282  0.00  0.00    +0.000 A 
ATOM     17  C   UNL     1      33.861   0.570  32.700  0.00  0.00    +0.000 A 
ATOM     18  C   UNL     1      33.553   1.688  33.446  0.00  0.00    +0.000 A 
ATOM     19  C   UNL     1      33.628   1.576  34.816  0.00  0.00    +0.000 A 
ENDBRANCH  12  14
ENDBRANCH   1  12
TORSDOF 3
ENDMDL
MODEL 10
REMARK VINA RESULT:      -6.5      8.679      9.637
REMARK  Name = 
REMARK  3 active torsions:
REMARK  status: ('A' for Active; 'I' for Inactive)
REMARK    1  A    between atoms: S_2  and  N_4
REMARK    2  A    between atoms: S_2  and  C_14
REMARK    3  A    between atoms: N_4  and  N_5
REMARK                            x       y       z     vdW  Elec       q    Type
REMARK                         _______ _______ _______ _____ _____    ______ ____
ROOT
ATOM      1  N   UNL     1      19.424  20.822  37.264  0.00  0.00    +0.000 NA
ENDROOT
BRANCH   1   2
ATOM      2  N   UNL     1      20.460  20.134  37.851  0.00  0.00    +0.000 NA
ATOM      3  C   UNL     1      20.295  19.332  38.871  0.00  0.00    +0.000 C 
ATOM      4  C   UNL     1      21.613  18.760  39.245  0.00  0.00    +0.000 C 
ATOM      5  C   UNL     1      21.904  17.600  38.320  0.00  0.00    +0.000 C 
ATOM      6  C   UNL     1      20.885  16.517  38.636  0.00  0.00    +0.000 C 
ATOM      7  C   UNL     1      20.377  16.655  40.069  0.00  0.00    +0.000 C 
ATOM      8  C   UNL     1      18.871  16.923  40.061  0.00  0.00    +0.000 C 
ATOM      9  C   UNL     1      18.641  18.366  40.421  0.00  0.00    +0.000 C 
ATOM     10  C   UNL     1      18.880  19.301  39.256  0.00  0.00    +0.000 C 
ENDBRANCH   1   2
BRANCH   1  12
ATOM     11  O   UNL     1      19.996  23.061  36.072  0.00  0.00    +0.000 OA
ATOM     12  S   UNL     1      19.651  21.611  35.769  0.00  0.00    +0.000 S 
ATOM     13  O   UNL     1      20.803  21.022  34.987  0.00  0.00    +0.000 OA
BRANCH  12  14
ATOM     14  C   UNL     1      18.188  21.521  34.845  0.00  0.00    +0.000 A 
ATOM     15  C   UNL     1      17.099  22.263  35.199  0.00  0.00    +0.000 A 
ATOM     16  C   UNL     1      15.916  22.194  34.458  0.00  0.00    +0.000 A 
ATOM     17  C   UNL     1      15.898  21.347  33.357  0.00  0.00    +0.000 A 
ATOM     18  C   UNL     1      16.990  20.592  32.987  0.00  0.00    +0.000 A 
ATOM     19  C   UNL     1      18.127  20.702  33.755  0.00  0.00    +0.000 A 
ENDBRANCH  12  14
ENDBRANCH   1  12
TORSDOF 3
ENDMDL
