MODEL 1
REMARK VINA RESULT:      -7.7      0.000      0.000
REMARK  Name = 
REMARK  2 active torsions:
REMARK  status: ('A' for Active; 'I' for Inactive)
REMARK    1  A    between atoms: C_5  and  N_6
REMARK    2  A    between atoms: N_13  and  C_14
REMARK                            x       y       z     vdW  Elec       q    Type
REMARK                         _______ _______ _______ _____ _____    ______ ____
ROOT
ATOM      1  N   UNL     1      17.342  11.293  37.832  0.00  0.00    +0.000 NA
ATOM      2  C   UNL     1      16.400  11.601  36.803  0.00  0.00    +0.000 A 
ATOM      3  N   UNL     1      15.141  11.963  37.104  0.00  0.00    +0.000 NA
ATOM      4  C   UNL     1      14.246  12.255  36.142  0.00  0.00    +0.000 A 
ATOM      5 CL   UNL     1      12.598  12.729  36.504  0.00  0.00    +0.000 Cl
ATOM      6  N   UNL     1      14.583  12.195  34.825  0.00  0.00    +0.000 NA
ATOM      7  C   UNL     1      15.845  11.833  34.524  0.00  0.00    +0.000 A 
ATOM      8  N   UNL     1      16.194  11.772  33.142  0.00  0.00    +0.000 NA
ATOM      9  N   UNL     1      16.724  11.546  35.498  0.00  0.00    +0.000 NA
ENDROOT
BRANCH   1  14
ATOM     10  C   UNL     1      22.791   9.842  36.817  0.00  0.00    +0.000 C 
ATOM     11  C   UNL     1      21.368  10.220  37.081  0.00  0.00    +0.000 A 
ATOM     12  C   UNL     1      20.334   9.506  36.516  0.00  0.00    +0.000 A 
ATOM     13  C   UNL     1      19.019   9.847  36.754  0.00  0.00    +0.000 A 
ATOM     14  C   UNL     1      18.671  10.910  37.562  0.00  0.00    +0.000 A 
ATOM     15  C   UNL     1      19.705  11.627  38.129  0.00  0.00    +0.000 A 
ATOM     16  C   UNL     1      21.038  11.285  37.891  0.00  0.00    +0.000 A 
ENDBRANCH   1  14
BRANCH   8  17
ATOM     17  C   UNL     1      15.279  12.074  32.084  0.00  0.00    +0.000 C 
ATOM     18  C   UNL     1      14.306  13.163  32.396  0.00  0.00    +0.000 C 
ATOM     19  C   UNL     1      14.500  10.862  31.621  0.00  0.00    +0.000 C 
ATOM     20  C   UNL     1      16.111  12.543  30.885  0.00  0.00    +0.000 C 
ENDBRANCH   8  17
TORSDOF 2
ENDMDL
MODEL 2
REMARK VINA RESULT:      -6.8      3.278      7.219
REMARK  Name = 
REMARK  2 active torsions:
REMARK  status: ('A' for Active; 'I' for Inactive)
REMARK    1  A    between atoms: C_5  and  N_6
REMARK    2  A    between atoms: N_13  and  C_14
REMARK                            x       y       z     vdW  Elec       q    Type
REMARK                         _______ _______ _______ _____ _____    ______ ____
ROOT
ATOM      1  N   UNL     1      17.502   9.695  37.327  0.00  0.00    +0.000 NA
ATOM      2  C   UNL     1      18.847   9.628  37.807  0.00  0.00    +0.000 A 
ATOM      3  N   UNL     1      19.119   9.160  39.037  0.00  0.00    +0.000 NA
ATOM      4  C   UNL     1      20.381   9.091  39.499  0.00  0.00    +0.000 A 
ATOM      5 CL   UNL     1      20.766   8.487  41.098  0.00  0.00    +0.000 Cl
ATOM      6  N   UNL     1      21.433   9.496  38.735  0.00  0.00    +0.000 NA
ATOM      7  C   UNL     1      21.160   9.964  37.502  0.00  0.00    +0.000 A 
ATOM      8  N   UNL     1      22.265  10.386  36.705  0.00  0.00    +0.000 NA
ATOM      9  N   UNL     1      19.893  10.024  37.059  0.00  0.00    +0.000 NA
ENDROOT
BRANCH   1  14
ATOM     10  C   UNL     1      16.080  11.758  32.175  0.00  0.00    +0.000 C 
ATOM     11  C   UNL     1      16.452  11.218  33.519  0.00  0.00    +0.000 A 
ATOM     12  C   UNL     1      17.302  10.140  33.634  0.00  0.00    +0.000 A 
ATOM     13  C   UNL     1      17.650   9.636  34.870  0.00  0.00    +0.000 A 
ATOM     14  C   UNL     1      17.172  10.178  36.045  0.00  0.00    +0.000 A 
ATOM     15  C   UNL     1      16.321  11.258  35.932  0.00  0.00    +0.000 A 
ATOM     16  C   UNL     1      15.965  11.772  34.684  0.00  0.00    +0.000 A 
ENDBRANCH   1  14
BRANCH   8  17
ATOM     17  C   UNL     1      23.624  10.333  37.150  0.00  0.00    +0.000 C 
ATOM     18  C   UNL     1      24.057   8.999  37.664  0.00  0.00    +0.000 C 
ATOM     19  C   UNL     1      23.934  11.371  38.206  0.00  0.00    +0.000 C 
ATOM     20  C   UNL     1      24.510  10.659  35.943  0.00  0.00    +0.000 C 
ENDBRANCH   8  17
TORSDOF 2
ENDMDL
MODEL 3
REMARK VINA RESULT:      -6.6     20.137     22.758
REMARK  Name = 
REMARK  2 active torsions:
REMARK  status: ('A' for Active; 'I' for Inactive)
REMARK    1  A    between atoms: C_5  and  N_6
REMARK    2  A    between atoms: N_13  and  C_14
REMARK                            x       y       z     vdW  Elec       q    Type
REMARK                         _______ _______ _______ _____ _____    ______ ____
ROOT
ATOM      1  N   UNL     1      32.824  -2.786  34.830  0.00  0.00    +0.000 NA
ATOM      2  C   UNL     1      32.866  -3.998  34.074  0.00  0.00    +0.000 A 
ATOM      3  N   UNL     1      32.588  -5.181  34.649  0.00  0.00    +0.000 NA
ATOM      4  C   UNL     1      32.623  -6.328  33.947  0.00  0.00    +0.000 A 
ATOM      5 CL   UNL     1      32.266  -7.884  34.670  0.00  0.00    +0.000 Cl
ATOM      6  N   UNL     1      32.944  -6.334  32.624  0.00  0.00    +0.000 NA
ATOM      7  C   UNL     1      33.222  -5.148  32.048  0.00  0.00    +0.000 A 
ATOM      8  N   UNL     1      33.557  -5.160  30.661  0.00  0.00    +0.000 NA
ATOM      9  N   UNL     1      33.180  -4.014  32.766  0.00  0.00    +0.000 NA
ENDROOT
BRANCH   1  14
ATOM     10  C   UNL     1      33.871   2.396  32.618  0.00  0.00    +0.000 C 
ATOM     11  C   UNL     1      33.599   1.042  33.194  0.00  0.00    +0.000 A 
ATOM     12  C   UNL     1      34.374  -0.041  32.843  0.00  0.00    +0.000 A 
ATOM     13  C   UNL     1      34.130  -1.292  33.370  0.00  0.00    +0.000 A 
ATOM     14  C   UNL     1      33.108  -1.524  34.267  0.00  0.00    +0.000 A 
ATOM     15  C   UNL     1      32.330  -0.441  34.621  0.00  0.00    +0.000 A 
ATOM     16  C   UNL     1      32.573   0.828  34.090  0.00  0.00    +0.000 A 
ENDBRANCH   1  14
BRANCH   8  17
ATOM     17  C   UNL     1      33.608  -6.352  29.872  0.00  0.00    +0.000 C 
ATOM     18  C   UNL     1      32.369  -7.185  29.925  0.00  0.00    +0.000 C 
ATOM     19  C   UNL     1      34.786  -7.234  30.222  0.00  0.00    +0.000 C 
ATOM     20  C   UNL     1      33.800  -5.923  28.413  0.00  0.00    +0.000 C 
ENDBRANCH   8  17
TORSDOF 2
ENDMDL
MODEL 4
REMARK VINA RESULT:      -6.5      3.910      7.958
REMARK  Name = 
REMARK  2 active torsions:
REMARK  status: ('A' for Active; 'I' for Inactive)
REMARK    1  A    between atoms: C_5  and  N_6
REMARK    2  A    between atoms: N_13  and  C_14
REMARK                            x       y       z     vdW  Elec       q    Type
REMARK                         _______ _______ _______ _____ _____    ______ ____
ROOT
ATOM      1  N   UNL     1      17.079  11.575  37.277  0.00  0.00    +0.000 NA
ATOM      2  C   UNL     1      17.884  10.646  38.005  0.00  0.00    +0.000 A 
ATOM      3  N   UNL     1      19.227  10.698  37.943  0.00  0.00    +0.000 NA
ATOM      4  C   UNL     1      19.995   9.828  38.625  0.00  0.00    +0.000 A 
ATOM      5 CL   UNL     1      21.745   9.872  38.563  0.00  0.00    +0.000 Cl
ATOM      6  N   UNL     1      19.440   8.860  39.404  0.00  0.00    +0.000 NA
ATOM      7  C   UNL     1      18.095   8.809  39.466  0.00  0.00    +0.000 A 
ATOM      8  N   UNL     1      17.519   7.792  40.284  0.00  0.00    +0.000 NA
ATOM      9  N   UNL     1      17.346   9.686  38.779  0.00  0.00    +0.000 NA
ENDROOT
BRANCH   1  14
ATOM     10  C   UNL     1      11.349  11.561  37.296  0.00  0.00    +0.000 C 
ATOM     11  C   UNL     1      12.845  11.564  37.293  0.00  0.00    +0.000 A 
ATOM     12  C   UNL     1      13.553  11.046  38.355  0.00  0.00    +0.000 A 
ATOM     13  C   UNL     1      14.932  11.045  38.360  0.00  0.00    +0.000 A 
ATOM     14  C   UNL     1      15.670  11.557  37.313  0.00  0.00    +0.000 A 
ATOM     15  C   UNL     1      14.964  12.076  36.247  0.00  0.00    +0.000 A 
ATOM     16  C   UNL     1      13.567  12.080  36.237  0.00  0.00    +0.000 A 
ENDBRANCH   1  14
BRANCH   8  17
ATOM     17  C   UNL     1      18.292   6.846  41.028  0.00  0.00    +0.000 C 
ATOM     18  C   UNL     1      19.212   7.451  42.037  0.00  0.00    +0.000 C 
ATOM     19  C   UNL     1      19.103   5.927  40.140  0.00  0.00    +0.000 C 
ATOM     20  C   UNL     1      17.306   5.956  41.794  0.00  0.00    +0.000 C 
ENDBRANCH   8  17
TORSDOF 2
ENDMDL
MODEL 5
REMARK VINA RESULT:      -6.4     29.036     31.829
REMARK  Name = 
REMARK  2 active torsions:
REMARK  status: ('A' for Active; 'I' for Inactive)
REMARK    1  A    between atoms: C_5  and  N_6
REMARK    2  A    between atoms: N_13  and  C_14
REMARK                            x       y       z     vdW  Elec       q    Type
REMARK                         _______ _______ _______ _____ _____    ______ ____
ROOT
ATOM      1  N   UNL     1      31.913  20.209  11.506  0.00  0.00    +0.000 NA
ATOM      2  C   UNL     1      33.217  20.644  11.115  0.00  0.00    +0.000 A 
ATOM      3  N   UNL     1      34.207  19.758  10.903  0.00  0.00    +0.000 NA
ATOM      4  C   UNL     1      35.438  20.157  10.534  0.00  0.00    +0.000 A 
ATOM      5 CL   UNL     1      36.746  19.026  10.253  0.00  0.00    +0.000 Cl
ATOM      6  N   UNL     1      35.729  21.474  10.361  0.00  0.00    +0.000 NA
ATOM      7  C   UNL     1      34.737  22.362  10.572  0.00  0.00    +0.000 A 
ATOM      8  N   UNL     1      35.046  23.742  10.389  0.00  0.00    +0.000 NA
ATOM      9  N   UNL     1      33.514  21.944  10.940  0.00  0.00    +0.000 NA
ENDROOT
BRANCH   1  14
ATOM     10  C   UNL     1      27.521  23.796  12.325  0.00  0.00    +0.000 C 
ATOM     11  C   UNL     1      28.668  22.860  12.113  0.00  0.00    +0.000 A 
ATOM     12  C   UNL     1      29.694  22.784  13.030  0.00  0.00    +0.000 A 
ATOM     13  C   UNL     1      30.755  21.924  12.842  0.00  0.00    +0.000 A 
ATOM     14  C   UNL     1      30.847  21.102  11.737  0.00  0.00    +0.000 A 
ATOM     15  C   UNL     1      29.822  21.176  10.818  0.00  0.00    +0.000 A 
ATOM     16  C   UNL     1      28.745  22.046  11.003  0.00  0.00    +0.000 A 
ENDBRANCH   1  14
BRANCH   8  17
ATOM     17  C   UNL     1      36.339  24.215   9.998  0.00  0.00    +0.000 C 
ATOM     18  C   UNL     1      36.818  23.695   8.682  0.00  0.00    +0.000 C 
ATOM     19  C   UNL     1      37.403  23.932  11.035  0.00  0.00    +0.000 C 
ATOM     20  C   UNL     1      36.245  25.740   9.871  0.00  0.00    +0.000 C 
ENDBRANCH   8  17
TORSDOF 2
ENDMDL
MODEL 6
REMARK VINA RESULT:      -6.2     21.642     23.516
REMARK  Name = 
REMARK  2 active torsions:
REMARK  status: ('A' for Active; 'I' for Inactive)
REMARK    1  A    between atoms: C_5  and  N_6
REMARK    2  A    between atoms: N_13  and  C_14
REMARK                            x       y       z     vdW  Elec       q    Type
REMARK                         _______ _______ _______ _____ _____    ______ ____
ROOT
ATOM      1  N   UNL     1      29.363  23.947  21.640  0.00  0.00    +0.000 NA
ATOM      2  C   UNL     1      29.404  25.310  21.216  0.00  0.00    +0.000 A 
ATOM      3  N   UNL     1      29.773  25.635  19.965  0.00  0.00    +0.000 NA
ATOM      4  C   UNL     1      29.815  26.916  19.555  0.00  0.00    +0.000 A 
ATOM      5 CL   UNL     1      30.293  27.368  17.931  0.00  0.00    +0.000 Cl
ATOM      6  N   UNL     1      29.485  27.934  20.394  0.00  0.00    +0.000 NA
ATOM      7  C   UNL     1      29.114  27.609  21.648  0.00  0.00    +0.000 A 
ATOM      8  N   UNL     1      28.769  28.680  22.525  0.00  0.00    +0.000 NA
ATOM      9  N   UNL     1      29.078  26.325  22.039  0.00  0.00    +0.000 NA
ENDROOT
BRANCH   1  14
ATOM     10  C   UNL     1      27.950  22.371  26.965  0.00  0.00    +0.000 C 
ATOM     11  C   UNL     1      28.317  22.782  25.574  0.00  0.00    +0.000 A 
ATOM     12  C   UNL     1      27.342  23.094  24.651  0.00  0.00    +0.000 A 
ATOM     13  C   UNL     1      27.673  23.474  23.367  0.00  0.00    +0.000 A 
ATOM     14  C   UNL     1      28.982  23.562  22.942  0.00  0.00    +0.000 A 
ATOM     15  C   UNL     1      29.960  23.251  23.864  0.00  0.00    +0.000 A 
ATOM     16  C   UNL     1      29.631  22.866  25.165  0.00  0.00    +0.000 A 
ENDBRANCH   1  14
BRANCH   8  17
ATOM     17  C   UNL     1      28.797  30.057  22.137  0.00  0.00    +0.000 C 
ATOM     18  C   UNL     1      27.882  30.403  21.008  0.00  0.00    +0.000 C 
ATOM     19  C   UNL     1      30.188  30.536  21.782  0.00  0.00    +0.000 C 
ATOM     20  C   UNL     1      28.347  30.880  23.349  0.00  0.00    +0.000 C 
ENDBRANCH   8  17
TORSDOF 2
ENDMDL
MODEL 7
REMARK VINA RESULT:      -6.1      5.097      7.279
REMARK  Name = 
REMARK  2 active torsions:
REMARK  status: ('A' for Active; 'I' for Inactive)
REMARK    1  A    between atoms: C_5  and  N_6
REMARK    2  A    between atoms: N_13  and  C_14
REMARK                            x       y       z     vdW  Elec       q    Type
REMARK                         _______ _______ _______ _____ _____    ______ ____
ROOT
ATOM      1  N   UNL     1      19.508  10.901  38.284  0.00  0.00    +0.000 NA
ATOM      2  C   UNL     1      18.900   9.902  39.105  0.00  0.00    +0.000 A 
ATOM      3  N   UNL     1      17.651  10.061  39.576  0.00  0.00    +0.000 NA
ATOM      4  C   UNL     1      17.068   9.126  40.350  0.00  0.00    +0.000 A 
ATOM      5 CL   UNL     1      15.442   9.306  40.977  0.00  0.00    +0.000 Cl
ATOM      6  N   UNL     1      17.724   7.983  40.687  0.00  0.00    +0.000 NA
ATOM      7  C   UNL     1      18.976   7.824  40.214  0.00  0.00    +0.000 A 
ATOM      8  N   UNL     1      19.660   6.624  40.570  0.00  0.00    +0.000 NA
ATOM      9  N   UNL     1      19.540   8.768  39.443  0.00  0.00    +0.000 NA
ENDROOT
BRANCH   1  14
ATOM     10  C   UNL     1      24.772  10.291  36.103  0.00  0.00    +0.000 C 
ATOM     11  C   UNL     1      23.398  10.451  36.674  0.00  0.00    +0.000 A 
ATOM     12  C   UNL     1      23.152  11.372  37.669  0.00  0.00    +0.000 A 
ATOM     13  C   UNL     1      21.889  11.526  38.200  0.00  0.00    +0.000 A 
ATOM     14  C   UNL     1      20.815  10.776  37.769  0.00  0.00    +0.000 A 
ATOM     15  C   UNL     1      21.058   9.853  36.773  0.00  0.00    +0.000 A 
ATOM     16  C   UNL     1      22.335   9.693  36.231  0.00  0.00    +0.000 A 
ENDBRANCH   1  14
BRANCH   8  17
ATOM     17  C   UNL     1      19.084   5.601  41.389  0.00  0.00    +0.000 C 
ATOM     18  C   UNL     1      17.595   5.512  41.314  0.00  0.00    +0.000 C 
ATOM     19  C   UNL     1      19.479   5.727  42.844  0.00  0.00    +0.000 C 
ATOM     20  C   UNL     1      19.640   4.260  40.899  0.00  0.00    +0.000 C 
ENDBRANCH   8  17
TORSDOF 2
ENDMDL
MODEL 8
REMARK VINA RESULT:      -5.9     21.172     22.528
REMARK  Name = 
REMARK  2 active torsions:
REMARK  status: ('A' for Active; 'I' for Inactive)
REMARK    1  A    between atoms: C_5  and  N_6
REMARK    2  A    between atoms: N_13  and  C_14
REMARK                            x       y       z     vdW  Elec       q    Type
REMARK                         _______ _______ _______ _____ _____    ______ ____
ROOT
ATOM      1  N   UNL     1      16.567  -7.667  26.772  0.00  0.00    +0.000 NA
ATOM      2  C   UNL     1      15.511  -8.024  25.878  0.00  0.00    +0.000 A 
ATOM      3  N   UNL     1      14.255  -8.199  26.326  0.00  0.00    +0.000 NA
ATOM      4  C   UNL     1      13.253  -8.535  25.492  0.00  0.00    +0.000 A 
ATOM      5 CL   UNL     1      11.609  -8.771  26.048  0.00  0.00    +0.000 Cl
ATOM      6  N   UNL     1      13.474  -8.709  24.161  0.00  0.00    +0.000 NA
ATOM      7  C   UNL     1      14.732  -8.532  23.712  0.00  0.00    +0.000 A 
ATOM      8  N   UNL     1      14.958  -8.716  22.316  0.00  0.00    +0.000 NA
ATOM      9  N   UNL     1      15.719  -8.197  24.560  0.00  0.00    +0.000 NA
ENDROOT
BRANCH   1  14
ATOM     10  C   UNL     1      21.954  -6.737  25.057  0.00  0.00    +0.000 C 
ATOM     11  C   UNL     1      20.548  -6.982  25.504  0.00  0.00    +0.000 A 
ATOM     12  C   UNL     1      20.040  -8.261  25.561  0.00  0.00    +0.000 A 
ATOM     13  C   UNL     1      18.744  -8.495  25.972  0.00  0.00    +0.000 A 
ATOM     14  C   UNL     1      17.896  -7.473  26.345  0.00  0.00    +0.000 A 
ATOM     15  C   UNL     1      18.403  -6.191  26.290  0.00  0.00    +0.000 A 
ATOM     16  C   UNL     1      19.714  -5.948  25.874  0.00  0.00    +0.000 A 
ENDBRANCH   1  14
BRANCH   8  17
ATOM     17  C   UNL     1      13.927  -9.072  21.390  0.00  0.00    +0.000 C 
ATOM     18  C   UNL     1      12.838  -8.058  21.254  0.00  0.00    +0.000 C 
ATOM     19  C   UNL     1      13.292 -10.408  21.708  0.00  0.00    +0.000 C 
ATOM     20  C   UNL     1      14.583  -9.216  20.012  0.00  0.00    +0.000 C 
ENDBRANCH   8  17
TORSDOF 2
ENDMDL
MODEL 9
REMARK VINA RESULT:      -5.9     18.587     20.518
REMARK  Name = 
REMARK  2 active torsions:
REMARK  status: ('A' for Active; 'I' for Inactive)
REMARK    1  A    between atoms: C_5  and  N_6
REMARK    2  A    between atoms: N_13  and  C_14
REMARK                            x       y       z     vdW  Elec       q    Type
REMARK                         _______ _______ _______ _____ _____    ______ ____
ROOT
ATOM      1  N   UNL     1      31.026  23.523  24.947  0.00  0.00    +0.000 NA
ATOM      2  C   UNL     1      30.649  23.230  26.293  0.00  0.00    +0.000 A 
ATOM      3  N   UNL     1      31.493  22.595  27.125  0.00  0.00    +0.000 NA
ATOM      4  C   UNL     1      31.148  22.314  28.395  0.00  0.00    +0.000 A 
ATOM      5 CL   UNL     1      32.228  21.488  29.501  0.00  0.00    +0.000 Cl
ATOM      6  N   UNL     1      29.928  22.662  28.887  0.00  0.00    +0.000 NA
ATOM      7  C   UNL     1      29.082  23.298  28.053  0.00  0.00    +0.000 A 
ATOM      8  N   UNL     1      27.804  23.661  28.573  0.00  0.00    +0.000 NA
ATOM      9  N   UNL     1      29.445  23.571  26.789  0.00  0.00    +0.000 NA
ENDROOT
BRANCH   1  14
ATOM     10  C   UNL     1      27.500  26.096  21.235  0.00  0.00    +0.000 C 
ATOM     11  C   UNL     1      28.421  25.426  22.204  0.00  0.00    +0.000 A 
ATOM     12  C   UNL     1      29.326  26.161  22.939  0.00  0.00    +0.000 A 
ATOM     13  C   UNL     1      30.179  25.551  23.835  0.00  0.00    +0.000 A 
ATOM     14  C   UNL     1      30.173  24.187  24.042  0.00  0.00    +0.000 A 
ATOM     15  C   UNL     1      29.268  23.449  23.308  0.00  0.00    +0.000 A 
ATOM     16  C   UNL     1      28.402  24.061  22.399  0.00  0.00    +0.000 A 
ENDBRANCH   1  14
BRANCH   8  17
ATOM     17  C   UNL     1      27.392  23.385  29.915  0.00  0.00    +0.000 C 
ATOM     18  C   UNL     1      28.361  23.819  30.964  0.00  0.00    +0.000 C 
ATOM     19  C   UNL     1      27.074  21.923  30.139  0.00  0.00    +0.000 C 
ATOM     20  C   UNL     1      26.090  24.157  30.157  0.00  0.00    +0.000 C 
ENDBRANCH   8  17
TORSDOF 2
ENDMDL
MODEL 10
REMARK VINA RESULT:      -5.8     18.294     20.500
REMARK  Name = 
REMARK  2 active torsions:
REMARK  status: ('A' for Active; 'I' for Inactive)
REMARK    1  A    between atoms: C_5  and  N_6
REMARK    2  A    between atoms: N_13  and  C_14
REMARK                            x       y       z     vdW  Elec       q    Type
REMARK                         _______ _______ _______ _____ _____    ______ ____
ROOT
ATOM      1  N   UNL     1      26.986  23.736  25.309  0.00  0.00    +0.000 NA
ATOM      2  C   UNL     1      27.731  23.377  26.474  0.00  0.00    +0.000 A 
ATOM      3  N   UNL     1      27.113  22.906  27.572  0.00  0.00    +0.000 NA
ATOM      4  C   UNL     1      27.805  22.565  28.674  0.00  0.00    +0.000 A 
ATOM      5 CL   UNL     1      27.027  21.950  30.119  0.00  0.00    +0.000 Cl
ATOM      6  N   UNL     1      29.160  22.685  28.721  0.00  0.00    +0.000 NA
ATOM      7  C   UNL     1      29.779  23.156  27.620  0.00  0.00    +0.000 A 
ATOM      8  N   UNL     1      31.199  23.280  27.673  0.00  0.00    +0.000 NA
ATOM      9  N   UNL     1      29.071  23.491  26.529  0.00  0.00    +0.000 NA
ENDROOT
BRANCH   1  14
ATOM     10  C   UNL     1      29.430  25.887  20.594  0.00  0.00    +0.000 C 
ATOM     11  C   UNL     1      28.792  25.324  21.824  0.00  0.00    +0.000 A 
ATOM     12  C   UNL     1      28.689  23.961  22.003  0.00  0.00    +0.000 A 
ATOM     13  C   UNL     1      28.103  23.434  23.135  0.00  0.00    +0.000 A 
ATOM     14  C   UNL     1      27.592  24.233  24.137  0.00  0.00    +0.000 A 
ATOM     15  C   UNL     1      27.695  25.597  23.960  0.00  0.00    +0.000 A 
ATOM     16  C   UNL     1      28.287  26.137  22.817  0.00  0.00    +0.000 A 
ENDBRANCH   1  14
BRANCH   8  17
ATOM     17  C   UNL     1      31.978  22.930  28.821  0.00  0.00    +0.000 C 
ATOM     18  C   UNL     1      32.123  21.461  29.049  0.00  0.00    +0.000 C 
ATOM     19  C   UNL     1      31.457  23.558  30.095  0.00  0.00    +0.000 C 
ATOM     20  C   UNL     1      33.387  23.493  28.602  0.00  0.00    +0.000 C 
ENDBRANCH   8  17
TORSDOF 2
ENDMDL
