MODEL 1
REMARK VINA RESULT:      -5.5      0.000      0.000
REMARK  Name = 
REMARK  5 active torsions:
REMARK  status: ('A' for Active; 'I' for Inactive)
REMARK    1  A    between atoms: C_2  and  O_3
REMARK    2  A    between atoms: O_3  and  C_4
REMARK    3  A    between atoms: C_10  and  C_11
REMARK    4  A    between atoms: C_13  and  C_14
REMARK    5  A    between atoms: C_17  and  O_18
REMARK                            x       y       z     vdW  Elec       q    Type
REMARK                         _______ _______ _______ _____ _____    ______ ____
ROOT
ATOM      1  C   UNL     1      17.942   9.107  39.239  0.00  0.00    +0.000 C 
ATOM      2  C   UNL     1      16.913   9.707  39.679  0.00  0.00    +0.000 C 
ATOM      3  C   UNL     1      16.523   9.617  41.168  0.00  0.00    +0.000 C 
ATOM      4  O   UNL     1      16.075  10.469  38.904  0.00  0.00    +0.000 OA
ATOM      5  C   UNL     1      16.392  10.575  37.564  0.00  0.00    +0.000 C 
ATOM      6  N   UNL     1      15.531  11.364  36.740  0.00  0.00    +0.000 NA
ATOM      7  C   UNL     1      17.411  10.005  37.020  0.00  0.00    +0.000 C 
ATOM      8  C   UNL     1      18.427   9.123  37.791  0.00  0.00    +0.000 C 
ENDROOT
BRANCH   8   9
ATOM      9  C   UNL     1      19.595  10.229  37.950  0.00  0.00    +0.000 A 
ATOM     10  C   UNL     1      20.799   9.917  37.395  0.00  0.00    +0.000 A 
ATOM     11  C   UNL     1      21.807  10.878  37.535  0.00  0.00    +0.000 A 
ATOM     12  C   UNL     1      21.551  12.058  38.204  0.00  0.00    +0.000 A 
ATOM     13  C   UNL     1      20.308  12.312  38.743  0.00  0.00    +0.000 A 
ATOM     14  C   UNL     1      19.305  11.360  38.606  0.00  0.00    +0.000 A 
BRANCH  12  15
ATOM     15  O   UNL     1      22.546  13.016  38.346  0.00  0.00    +0.000 OA
ATOM     16  C   UNL     1      22.296  14.304  38.846  0.00  0.00    +0.000 C 
ENDBRANCH  12  15
ENDBRANCH   8   9
BRANCH   7  17
ATOM     17  C   UNL     1      17.681  10.155  35.629  0.00  0.00    +0.000 C 
ATOM     18  N   UNL     1      17.884  10.273  34.490  0.00  0.00    +0.000 NA
ENDBRANCH   7  17
BRANCH   1  19
ATOM     19  O   UNL     1      18.736   8.354  40.096  0.00  0.00    +0.000 OA
BRANCH  19  21
ATOM     20  C   UNL     1      17.842   6.217  40.838  0.00  0.00    +0.000 C 
ATOM     21  C   UNL     1      18.847   6.947  40.004  0.00  0.00    +0.000 C 
ENDBRANCH  19  21
ENDBRANCH   1  19
TORSDOF 5
ENDMDL
MODEL 2
REMARK VINA RESULT:      -5.4      2.653      5.492
REMARK  Name = 
REMARK  5 active torsions:
REMARK  status: ('A' for Active; 'I' for Inactive)
REMARK    1  A    between atoms: C_2  and  O_3
REMARK    2  A    between atoms: O_3  and  C_4
REMARK    3  A    between atoms: C_10  and  C_11
REMARK    4  A    between atoms: C_13  and  C_14
REMARK    5  A    between atoms: C_17  and  O_18
REMARK                            x       y       z     vdW  Elec       q    Type
REMARK                         _______ _______ _______ _____ _____    ______ ____
ROOT
ATOM      1  C   UNL     1      18.083  10.535  37.218  0.00  0.00    +0.000 C 
ATOM      2  C   UNL     1      18.023  11.794  37.372  0.00  0.00    +0.000 C 
ATOM      3  C   UNL     1      16.904  12.620  36.704  0.00  0.00    +0.000 C 
ATOM      4  O   UNL     1      18.913  12.522  38.120  0.00  0.00    +0.000 OA
ATOM      5  C   UNL     1      19.930  11.819  38.735  0.00  0.00    +0.000 C 
ATOM      6  N   UNL     1      20.868  12.559  39.519  0.00  0.00    +0.000 NA
ATOM      7  C   UNL     1      20.079  10.542  38.641  0.00  0.00    +0.000 C 
ATOM      8  C   UNL     1      19.139   9.616  37.827  0.00  0.00    +0.000 C 
ENDROOT
BRANCH   8   9
ATOM      9  C   UNL     1      18.267   9.052  39.067  0.00  0.00    +0.000 A 
ATOM     10  C   UNL     1      18.592   7.806  39.511  0.00  0.00    +0.000 A 
ATOM     11  C   UNL     1      17.835   7.322  40.585  0.00  0.00    +0.000 A 
ATOM     12  C   UNL     1      16.830   8.096  41.129  0.00  0.00    +0.000 A 
ATOM     13  C   UNL     1      16.553   9.351  40.630  0.00  0.00    +0.000 A 
ATOM     14  C   UNL     1      17.302   9.835  39.564  0.00  0.00    +0.000 A 
BRANCH  12  15
ATOM     15  O   UNL     1      16.076   7.622  42.194  0.00  0.00    +0.000 OA
ATOM     16  C   UNL     1      16.596   6.750  43.165  0.00  0.00    +0.000 C 
ENDBRANCH  12  15
ENDBRANCH   8   9
BRANCH   7  17
ATOM     17  C   UNL     1      21.152   9.878  39.302  0.00  0.00    +0.000 C 
ATOM     18  N   UNL     1      22.028   9.323  39.829  0.00  0.00    +0.000 NA
ENDBRANCH   7  17
BRANCH   1  19
ATOM     19  O   UNL     1      17.137   9.877  36.440  0.00  0.00    +0.000 OA
BRANCH  19  21
ATOM     20  C   UNL     1      17.590  10.041  34.055  0.00  0.00    +0.000 C 
ATOM     21  C   UNL     1      17.470   9.167  35.263  0.00  0.00    +0.000 C 
ENDBRANCH  19  21
ENDBRANCH   1  19
TORSDOF 5
ENDMDL
MODEL 3
REMARK VINA RESULT:      -5.2     20.251     22.630
REMARK  Name = 
REMARK  5 active torsions:
REMARK  status: ('A' for Active; 'I' for Inactive)
REMARK    1  A    between atoms: C_2  and  O_3
REMARK    2  A    between atoms: O_3  and  C_4
REMARK    3  A    between atoms: C_10  and  C_11
REMARK    4  A    between atoms: C_13  and  C_14
REMARK    5  A    between atoms: C_17  and  O_18
REMARK                            x       y       z     vdW  Elec       q    Type
REMARK                         _______ _______ _______ _____ _____    ______ ____
ROOT
ATOM      1  C   UNL     1      28.365  23.289  25.146  0.00  0.00    +0.000 C 
ATOM      2  C   UNL     1      27.401  24.076  25.397  0.00  0.00    +0.000 C 
ATOM      3  C   UNL     1      26.657  24.009  26.747  0.00  0.00    +0.000 C 
ATOM      4  O   UNL     1      26.939  25.030  24.527  0.00  0.00    +0.000 OA
ATOM      5  C   UNL     1      27.579  25.122  23.306  0.00  0.00    +0.000 C 
ATOM      6  N   UNL     1      27.113  26.110  22.386  0.00  0.00    +0.000 NA
ATOM      7  C   UNL     1      28.565  24.371  22.955  0.00  0.00    +0.000 C 
ATOM      8  C   UNL     1      29.173  23.261  23.851  0.00  0.00    +0.000 C 
ENDROOT
BRANCH   8   9
ATOM      9  C   UNL     1      30.465  24.085  24.367  0.00  0.00    +0.000 A 
ATOM     10  C   UNL     1      31.654  23.421  24.335  0.00  0.00    +0.000 A 
ATOM     11  C   UNL     1      32.770  24.139  24.783  0.00  0.00    +0.000 A 
ATOM     12  C   UNL     1      32.626  25.440  25.220  0.00  0.00    +0.000 A 
ATOM     13  C   UNL     1      31.393  26.054  25.226  0.00  0.00    +0.000 A 
ATOM     14  C   UNL     1      30.282  25.344  24.783  0.00  0.00    +0.000 A 
BRANCH  12  15
ATOM     15  O   UNL     1      33.729  26.157  25.665  0.00  0.00    +0.000 OA
ATOM     16  C   UNL     1      34.904  26.292  24.907  0.00  0.00    +0.000 C 
ENDBRANCH  12  15
ENDBRANCH   8   9
BRANCH   7  17
ATOM     17  C   UNL     1      29.182  24.519  21.679  0.00  0.00    +0.000 C 
ATOM     18  N   UNL     1      29.688  24.657  20.641  0.00  0.00    +0.000 NA
ENDBRANCH   7  17
BRANCH   1  19
ATOM     19  O   UNL     1      28.768  22.349  26.087  0.00  0.00    +0.000 OA
BRANCH  19  21
ATOM     20  C   UNL     1      30.771  22.040  27.433  0.00  0.00    +0.000 C 
ATOM     21  C   UNL     1      29.436  22.698  27.284  0.00  0.00    +0.000 C 
ENDBRANCH  19  21
ENDBRANCH   1  19
TORSDOF 5
ENDMDL
MODEL 4
REMARK VINA RESULT:      -5.2     20.684     22.415
REMARK  Name = 
REMARK  5 active torsions:
REMARK  status: ('A' for Active; 'I' for Inactive)
REMARK    1  A    between atoms: C_2  and  O_3
REMARK    2  A    between atoms: O_3  and  C_4
REMARK    3  A    between atoms: C_10  and  C_11
REMARK    4  A    between atoms: C_13  and  C_14
REMARK    5  A    between atoms: C_17  and  O_18
REMARK                            x       y       z     vdW  Elec       q    Type
REMARK                         _______ _______ _______ _____ _____    ______ ____
ROOT
ATOM      1  C   UNL     1      33.409  -6.017  31.560  0.00  0.00    +0.000 C 
ATOM      2  C   UNL     1      34.449  -5.856  30.850  0.00  0.00    +0.000 C 
ATOM      3  C   UNL     1      34.335  -5.550  29.342  0.00  0.00    +0.000 C 
ATOM      4  O   UNL     1      35.731  -5.935  31.330  0.00  0.00    +0.000 OA
ATOM      5  C   UNL     1      35.875  -6.207  32.677  0.00  0.00    +0.000 C 
ATOM      6  N   UNL     1      37.203  -6.294  33.197  0.00  0.00    +0.000 NA
ATOM      7  C   UNL     1      34.886  -6.388  33.482  0.00  0.00    +0.000 C 
ATOM      8  C   UNL     1      33.396  -6.323  33.056  0.00  0.00    +0.000 C 
ENDROOT
BRANCH   8   9
ATOM      9  C   UNL     1      33.084  -4.830  33.595  0.00  0.00    +0.000 A 
ATOM     10  C   UNL     1      32.164  -4.732  34.594  0.00  0.00    +0.000 A 
ATOM     11  C   UNL     1      31.897  -3.437  35.057  0.00  0.00    +0.000 A 
ATOM     12  C   UNL     1      32.552  -2.356  34.505  0.00  0.00    +0.000 A 
ATOM     13  C   UNL     1      33.474  -2.526  33.495  0.00  0.00    +0.000 A 
ATOM     14  C   UNL     1      33.741  -3.809  33.032  0.00  0.00    +0.000 A 
BRANCH  12  15
ATOM     15  O   UNL     1      32.292  -1.070  34.960  0.00  0.00    +0.000 OA
ATOM     16  C   UNL     1      32.644   0.079  34.233  0.00  0.00    +0.000 C 
ENDBRANCH  12  15
ENDBRANCH   8   9
BRANCH   7  17
ATOM     17  C   UNL     1      35.104  -6.666  34.862  0.00  0.00    +0.000 C 
ATOM     18  N   UNL     1      35.292  -6.877  35.991  0.00  0.00    +0.000 NA
ENDBRANCH   7  17
BRANCH   1  19
ATOM     19  O   UNL     1      32.146  -5.920  30.989  0.00  0.00    +0.000 OA
BRANCH  19  21
ATOM     20  C   UNL     1      29.864  -6.674  31.373  0.00  0.00    +0.000 C 
ATOM     21  C   UNL     1      31.249  -7.012  30.918  0.00  0.00    +0.000 C 
ENDBRANCH  19  21
ENDBRANCH   1  19
TORSDOF 5
ENDMDL
MODEL 5
REMARK VINA RESULT:      -5.2     21.255     23.245
REMARK  Name = 
REMARK  5 active torsions:
REMARK  status: ('A' for Active; 'I' for Inactive)
REMARK    1  A    between atoms: C_2  and  O_3
REMARK    2  A    between atoms: O_3  and  C_4
REMARK    3  A    between atoms: C_10  and  C_11
REMARK    4  A    between atoms: C_13  and  C_14
REMARK    5  A    between atoms: C_17  and  O_18
REMARK                            x       y       z     vdW  Elec       q    Type
REMARK                         _______ _______ _______ _____ _____    ______ ____
ROOT
ATOM      1  C   UNL     1      28.829  24.808  25.336  0.00  0.00    +0.000 C 
ATOM      2  C   UNL     1      28.124  25.506  26.129  0.00  0.00    +0.000 C 
ATOM      3  C   UNL     1      28.782  26.319  27.263  0.00  0.00    +0.000 C 
ATOM      4  O   UNL     1      26.757  25.605  26.062  0.00  0.00    +0.000 OA
ATOM      5  C   UNL     1      26.131  24.892  25.059  0.00  0.00    +0.000 C 
ATOM      6  N   UNL     1      24.707  24.981  24.972  0.00  0.00    +0.000 NA
ATOM      7  C   UNL     1      26.754  24.155  24.205  0.00  0.00    +0.000 C 
ATOM      8  C   UNL     1      28.292  23.965  24.181  0.00  0.00    +0.000 C 
ENDROOT
BRANCH   8   9
ATOM      9  C   UNL     1      28.616  24.993  22.976  0.00  0.00    +0.000 A 
ATOM     10  C   UNL     1      29.139  24.445  21.843  0.00  0.00    +0.000 A 
ATOM     11  C   UNL     1      29.417  25.339  20.802  0.00  0.00    +0.000 A 
ATOM     12  C   UNL     1      29.160  26.686  20.958  0.00  0.00    +0.000 A 
ATOM     13  C   UNL     1      28.629  27.175  22.131  0.00  0.00    +0.000 A 
ATOM     14  C   UNL     1      28.352  26.291  23.168  0.00  0.00    +0.000 A 
BRANCH  12  15
ATOM     15  O   UNL     1      29.433  27.577  19.928  0.00  0.00    +0.000 OA
ATOM     16  C   UNL     1      30.364  27.302  18.913  0.00  0.00    +0.000 C 
ENDBRANCH  12  15
ENDBRANCH   8   9
BRANCH   7  17
ATOM     17  C   UNL     1      26.045  23.444  23.194  0.00  0.00    +0.000 C 
ATOM     18  N   UNL     1      25.472  22.876  22.356  0.00  0.00    +0.000 NA
ENDBRANCH   7  17
BRANCH   1  19
ATOM     19  O   UNL     1      30.210  24.765  25.478  0.00  0.00    +0.000 OA
BRANCH  19  21
ATOM     20  C   UNL     1      32.036  23.493  24.493  0.00  0.00    +0.000 C 
ATOM     21  C   UNL     1      30.942  23.554  25.511  0.00  0.00    +0.000 C 
ENDBRANCH  19  21
ENDBRANCH   1  19
TORSDOF 5
ENDMDL
MODEL 6
REMARK VINA RESULT:      -5.1     16.861     19.549
REMARK  Name = 
REMARK  5 active torsions:
REMARK  status: ('A' for Active; 'I' for Inactive)
REMARK    1  A    between atoms: C_2  and  O_3
REMARK    2  A    between atoms: O_3  and  C_4
REMARK    3  A    between atoms: C_10  and  C_11
REMARK    4  A    between atoms: C_13  and  C_14
REMARK    5  A    between atoms: C_17  and  O_18
REMARK                            x       y       z     vdW  Elec       q    Type
REMARK                         _______ _______ _______ _____ _____    ______ ____
ROOT
ATOM      1  C   UNL     1      29.230  24.335  29.171  0.00  0.00    +0.000 C 
ATOM      2  C   UNL     1      28.938  25.434  29.737  0.00  0.00    +0.000 C 
ATOM      3  C   UNL     1      29.799  26.694  29.506  0.00  0.00    +0.000 C 
ATOM      4  O   UNL     1      27.870  25.608  30.579  0.00  0.00    +0.000 OA
ATOM      5  C   UNL     1      27.074  24.503  30.811  0.00  0.00    +0.000 C 
ATOM      6  N   UNL     1      25.956  24.663  31.685  0.00  0.00    +0.000 NA
ATOM      7  C   UNL     1      27.285  23.345  30.287  0.00  0.00    +0.000 C 
ATOM      8  C   UNL     1      28.457  23.028  29.323  0.00  0.00    +0.000 C 
ENDROOT
BRANCH   8   9
ATOM      9  C   UNL     1      27.621  23.092  27.940  0.00  0.00    +0.000 A 
ATOM     10  C   UNL     1      28.132  22.383  26.895  0.00  0.00    +0.000 A 
ATOM     11  C   UNL     1      27.404  22.442  25.700  0.00  0.00    +0.000 A 
ATOM     12  C   UNL     1      26.243  23.186  25.632  0.00  0.00    +0.000 A 
ATOM     13  C   UNL     1      25.781  23.880  26.729  0.00  0.00    +0.000 A 
ATOM     14  C   UNL     1      26.500  23.825  27.916  0.00  0.00    +0.000 A 
BRANCH  12  15
ATOM     15  O   UNL     1      25.517  23.247  24.450  0.00  0.00    +0.000 OA
ATOM     16  C   UNL     1      26.115  23.494  23.203  0.00  0.00    +0.000 C 
ENDBRANCH  12  15
ENDBRANCH   8   9
BRANCH   7  17
ATOM     17  C   UNL     1      26.424  22.245  30.568  0.00  0.00    +0.000 C 
ATOM     18  N   UNL     1      25.735  21.339  30.808  0.00  0.00    +0.000 NA
ENDBRANCH   7  17
BRANCH   1  19
ATOM     19  O   UNL     1      30.334  24.249  28.332  0.00  0.00    +0.000 OA
BRANCH  19  21
ATOM     20  C   UNL     1      31.638  22.197  28.222  0.00  0.00    +0.000 C 
ATOM     21  C   UNL     1      31.538  23.608  28.709  0.00  0.00    +0.000 C 
ENDBRANCH  19  21
ENDBRANCH   1  19
TORSDOF 5
ENDMDL
MODEL 7
REMARK VINA RESULT:      -5.0      2.688      5.335
REMARK  Name = 
REMARK  5 active torsions:
REMARK  status: ('A' for Active; 'I' for Inactive)
REMARK    1  A    between atoms: C_2  and  O_3
REMARK    2  A    between atoms: O_3  and  C_4
REMARK    3  A    between atoms: C_10  and  C_11
REMARK    4  A    between atoms: C_13  and  C_14
REMARK    5  A    between atoms: C_17  and  O_18
REMARK                            x       y       z     vdW  Elec       q    Type
REMARK                         _______ _______ _______ _____ _____    ______ ____
ROOT
ATOM      1  C   UNL     1      21.315  10.767  38.117  0.00  0.00    +0.000 C 
ATOM      2  C   UNL     1      21.370  11.583  39.088  0.00  0.00    +0.000 C 
ATOM      3  C   UNL     1      22.177  12.893  38.975  0.00  0.00    +0.000 C 
ATOM      4  O   UNL     1      20.741  11.392  40.292  0.00  0.00    +0.000 OA
ATOM      5  C   UNL     1      20.007  10.230  40.433  0.00  0.00    +0.000 C 
ATOM      6  N   UNL     1      19.344  10.012  41.680  0.00  0.00    +0.000 NA
ATOM      7  C   UNL     1      19.889   9.339  39.510  0.00  0.00    +0.000 C 
ATOM      8  C   UNL     1      20.552   9.444  38.112  0.00  0.00    +0.000 C 
ENDROOT
BRANCH   8   9
ATOM      9  C   UNL     1      19.247   9.934  37.292  0.00  0.00    +0.000 A 
ATOM     10  C   UNL     1      18.943   9.227  36.168  0.00  0.00    +0.000 A 
ATOM     11  C   UNL     1      17.811   9.655  35.462  0.00  0.00    +0.000 A 
ATOM     12  C   UNL     1      17.079  10.733  35.915  0.00  0.00    +0.000 A 
ATOM     13  C   UNL     1      17.442  11.405  37.062  0.00  0.00    +0.000 A 
ATOM     14  C   UNL     1      18.564  10.984  37.766  0.00  0.00    +0.000 A 
BRANCH  12  15
ATOM     15  O   UNL     1      15.956  11.161  35.220  0.00  0.00    +0.000 OA
ATOM     16  C   UNL     1      15.999  11.542  33.868  0.00  0.00    +0.000 C 
ENDBRANCH  12  15
ENDBRANCH   8   9
BRANCH   7  17
ATOM     17  C   UNL     1      19.116   8.161  39.721  0.00  0.00    +0.000 C 
ATOM     18  N   UNL     1      18.499   7.189  39.890  0.00  0.00    +0.000 NA
ENDBRANCH   7  17
BRANCH   1  19
ATOM     19  O   UNL     1      21.986  11.041  36.931  0.00  0.00    +0.000 OA
BRANCH  19  21
ATOM     20  C   UNL     1      24.214  10.495  36.120  0.00  0.00    +0.000 C 
ATOM     21  C   UNL     1      22.783  10.083  36.260  0.00  0.00    +0.000 C 
ENDBRANCH  19  21
ENDBRANCH   1  19
TORSDOF 5
ENDMDL
MODEL 8
REMARK VINA RESULT:      -4.9     17.084     20.270
REMARK  Name = 
REMARK  5 active torsions:
REMARK  status: ('A' for Active; 'I' for Inactive)
REMARK    1  A    between atoms: C_2  and  O_3
REMARK    2  A    between atoms: O_3  and  C_4
REMARK    3  A    between atoms: C_10  and  C_11
REMARK    4  A    between atoms: C_13  and  C_14
REMARK    5  A    between atoms: C_17  and  O_18
REMARK                            x       y       z     vdW  Elec       q    Type
REMARK                         _______ _______ _______ _____ _____    ______ ____
ROOT
ATOM      1  C   UNL     1      26.712  23.737  27.829  0.00  0.00    +0.000 C 
ATOM      2  C   UNL     1      26.061  24.799  28.075  0.00  0.00    +0.000 C 
ATOM      3  C   UNL     1      26.069  25.421  29.487  0.00  0.00    +0.000 C 
ATOM      4  O   UNL     1      25.311  25.475  27.147  0.00  0.00    +0.000 OA
ATOM      5  C   UNL     1      25.279  24.949  25.870  0.00  0.00    +0.000 C 
ATOM      6  N   UNL     1      24.503  25.639  24.888  0.00  0.00    +0.000 NA
ATOM      7  C   UNL     1      25.903  23.878  25.519  0.00  0.00    +0.000 C 
ATOM      8  C   UNL     1      26.779  23.031  26.477  0.00  0.00    +0.000 C 
ENDROOT
BRANCH   8   9
ATOM      9  C   UNL     1      28.221  23.586  25.998  0.00  0.00    +0.000 A 
ATOM     10  C   UNL     1      29.127  22.647  25.608  0.00  0.00    +0.000 A 
ATOM     11  C   UNL     1      30.374  23.133  25.194  0.00  0.00    +0.000 A 
ATOM     12  C   UNL     1      30.623  24.490  25.196  0.00  0.00    +0.000 A 
ATOM     13  C   UNL     1      29.660  25.387  25.603  0.00  0.00    +0.000 A 
ATOM     14  C   UNL     1      28.422  24.909  26.015  0.00  0.00    +0.000 A 
BRANCH  12  15
ATOM     15  O   UNL     1      31.857  24.978  24.786  0.00  0.00    +0.000 OA
ATOM     16  C   UNL     1      33.026  24.199  24.803  0.00  0.00    +0.000 C 
ENDBRANCH  12  15
ENDBRANCH   8   9
BRANCH   7  17
ATOM     17  C   UNL     1      25.828  23.389  24.183  0.00  0.00    +0.000 C 
ATOM     18  N   UNL     1      25.748  22.990  23.093  0.00  0.00    +0.000 NA
ENDBRANCH   7  17
BRANCH   1  19
ATOM     19  O   UNL     1      27.446  23.115  28.832  0.00  0.00    +0.000 OA
BRANCH  19  21
ATOM     20  C   UNL     1      26.344  21.685  30.464  0.00  0.00    +0.000 C 
ATOM     21  C   UNL     1      27.208  21.783  29.246  0.00  0.00    +0.000 C 
ENDBRANCH  19  21
ENDBRANCH   1  19
TORSDOF 5
ENDMDL
MODEL 9
REMARK VINA RESULT:      -4.9     20.900     22.843
REMARK  Name = 
REMARK  5 active torsions:
REMARK  status: ('A' for Active; 'I' for Inactive)
REMARK    1  A    between atoms: C_2  and  O_3
REMARK    2  A    between atoms: O_3  and  C_4
REMARK    3  A    between atoms: C_10  and  C_11
REMARK    4  A    between atoms: C_13  and  C_14
REMARK    5  A    between atoms: C_17  and  O_18
REMARK                            x       y       z     vdW  Elec       q    Type
REMARK                         _______ _______ _______ _____ _____    ______ ____
ROOT
ATOM      1  C   UNL     1      19.642  -9.225  27.172  0.00  0.00    +0.000 C 
ATOM      2  C   UNL     1      20.667  -9.371  26.437  0.00  0.00    +0.000 C 
ATOM      3  C   UNL     1      21.410 -10.722  26.377  0.00  0.00    +0.000 C 
ATOM      4  O   UNL     1      21.199  -8.381  25.650  0.00  0.00    +0.000 OA
ATOM      5  C   UNL     1      20.560  -7.156  25.676  0.00  0.00    +0.000 C 
ATOM      6  N   UNL     1      21.099  -6.111  24.863  0.00  0.00    +0.000 NA
ATOM      7  C   UNL     1      19.516  -6.906  26.387  0.00  0.00    +0.000 C 
ATOM      8  C   UNL     1      18.827  -7.942  27.313  0.00  0.00    +0.000 C 
ENDROOT
BRANCH   8   9
ATOM      9  C   UNL     1      17.607  -8.333  26.326  0.00  0.00    +0.000 A 
ATOM     10  C   UNL     1      16.373  -7.888  26.690  0.00  0.00    +0.000 A 
ATOM     11  C   UNL     1      15.320  -8.230  25.832  0.00  0.00    +0.000 A 
ATOM     12  C   UNL     1      15.566  -8.973  24.696  0.00  0.00    +0.000 A 
ATOM     13  C   UNL     1      16.841  -9.392  24.385  0.00  0.00    +0.000 A 
ATOM     14  C   UNL     1      17.889  -9.055  25.234  0.00  0.00    +0.000 A 
BRANCH  12  15
ATOM     15  O   UNL     1      14.526  -9.314  23.841  0.00  0.00    +0.000 OA
ATOM     16  C   UNL     1      13.177  -9.070  24.149  0.00  0.00    +0.000 C 
ENDBRANCH  12  15
ENDBRANCH   8   9
BRANCH   7  17
ATOM     17  C   UNL     1      18.906  -5.618  26.367  0.00  0.00    +0.000 C 
ATOM     18  N   UNL     1      18.425  -4.560  26.353  0.00  0.00    +0.000 NA
ENDBRANCH   7  17
BRANCH   1  19
ATOM     19  O   UNL     1      19.171 -10.284  27.939  0.00  0.00    +0.000 OA
BRANCH  19  21
ATOM     20  C   UNL     1      20.114  -9.952  30.158  0.00  0.00    +0.000 C 
ATOM     21  C   UNL     1      18.893 -10.168  29.321  0.00  0.00    +0.000 C 
ENDBRANCH  19  21
ENDBRANCH   1  19
TORSDOF 5
ENDMDL
MODEL 10
REMARK VINA RESULT:      -4.9     20.875     22.828
REMARK  Name = 
REMARK  5 active torsions:
REMARK  status: ('A' for Active; 'I' for Inactive)
REMARK    1  A    between atoms: C_2  and  O_3
REMARK    2  A    between atoms: O_3  and  C_4
REMARK    3  A    between atoms: C_10  and  C_11
REMARK    4  A    between atoms: C_13  and  C_14
REMARK    5  A    between atoms: C_17  and  O_18
REMARK                            x       y       z     vdW  Elec       q    Type
REMARK                         _______ _______ _______ _____ _____    ______ ____
ROOT
ATOM      1  C   UNL     1      18.432  -7.386  25.986  0.00  0.00    +0.000 C 
ATOM      2  C   UNL     1      19.163  -6.367  26.189  0.00  0.00    +0.000 C 
ATOM      3  C   UNL     1      18.558  -5.057  26.733  0.00  0.00    +0.000 C 
ATOM      4  O   UNL     1      20.513  -6.329  25.953  0.00  0.00    +0.000 OA
ATOM      5  C   UNL     1      21.093  -7.484  25.465  0.00  0.00    +0.000 C 
ATOM      6  N   UNL     1      22.499  -7.464  25.212  0.00  0.00    +0.000 NA
ATOM      7  C   UNL     1      20.440  -8.569  25.225  0.00  0.00    +0.000 C 
ATOM      8  C   UNL     1      18.915  -8.732  25.452  0.00  0.00    +0.000 C 
ENDROOT
BRANCH   8   9
ATOM      9  C   UNL     1      18.991  -9.525  26.859  0.00  0.00    +0.000 A 
ATOM     10  C   UNL     1      18.503 -10.797  26.859  0.00  0.00    +0.000 A 
ATOM     11  C   UNL     1      18.571 -11.480  28.080  0.00  0.00    +0.000 A 
ATOM     12  C   UNL     1      19.110 -10.862  29.190  0.00  0.00    +0.000 A 
ATOM     13  C   UNL     1      19.587  -9.571  29.121  0.00  0.00    +0.000 A 
ATOM     14  C   UNL     1      19.521  -8.889  27.911  0.00  0.00    +0.000 A 
BRANCH  12  15
ATOM     15  O   UNL     1      19.181 -11.534  30.403  0.00  0.00    +0.000 OA
ATOM     16  C   UNL     1      18.926 -10.908  31.635  0.00  0.00    +0.000 C 
ENDBRANCH  12  15
ENDBRANCH   8   9
BRANCH   7  17
ATOM     17  C   UNL     1      21.100  -9.726  24.721  0.00  0.00    +0.000 C 
ATOM     18  N   UNL     1      21.624 -10.681  24.313  0.00  0.00    +0.000 NA
ENDBRANCH   7  17
BRANCH   1  19
ATOM     19  O   UNL     1      17.069  -7.336  26.253  0.00  0.00    +0.000 OA
BRANCH  19  21
ATOM     20  C   UNL     1      15.294  -8.998  26.351  0.00  0.00    +0.000 C 
ATOM     21  C   UNL     1      16.113  -8.070  25.511  0.00  0.00    +0.000 C 
ENDBRANCH  19  21
ENDBRANCH   1  19
TORSDOF 5
ENDMDL
