MODEL 1
REMARK VINA RESULT:      -5.7      0.000      0.000
REMARK  Name = 
REMARK  5 active torsions:
REMARK  status: ('A' for Active; 'I' for Inactive)
REMARK    1  A    between atoms: C_3  and  N_4
REMARK    2  A    between atoms: N_4  and  C_5
REMARK    3  A    between atoms: C_5  and  N_7
REMARK    4  A    between atoms: C_8  and  C_10
REMARK    5  A    between atoms: C_17  and  N_18
REMARK                            x       y       z     vdW  Elec       q    Type
REMARK                         _______ _______ _______ _____ _____    ______ ____
ROOT
ATOM      1  C   UNL     1      26.052  23.246  25.754  0.00  0.00    +0.000 C 
ATOM      2  C   UNL     1      27.463  23.041  25.344  0.00  0.00    +0.000 A 
ATOM      3  C   UNL     1      28.367  22.571  26.279  0.00  0.00    +0.000 A 
ATOM      4  C   UNL     1      29.681  22.373  25.925  0.00  0.00    +0.000 A 
ATOM      5  C   UNL     1      30.084  22.646  24.638  0.00  0.00    +0.000 A 
ATOM      6  C   UNL     1      29.189  23.117  23.697  0.00  0.00    +0.000 A 
ATOM      7  C   UNL     1      27.882  23.310  24.064  0.00  0.00    +0.000 A 
ENDROOT
BRANCH   7   8
ATOM      8  N   UNL     1      26.974  23.797  23.076  0.00  0.00    +0.000 N 
ATOM      9  O   UNL     1      26.984  25.018  22.836  0.00  0.00    +0.000 OA
ATOM     10  O   UNL     1      26.119  22.997  22.402  0.00  0.00    +0.000 OA
ENDBRANCH   7   8
BRANCH   3  11
ATOM     11  N   UNL     1      27.977  22.280  27.610  0.00  0.00    +0.000 NA
BRANCH  11  12
ATOM     12  C   UNL     1      28.203  23.190  28.645  0.00  0.00    +0.000 C 
ATOM     13  S   UNL     1      29.376  22.885  29.739  0.00  0.00    +0.000 S 
BRANCH  12  14
ATOM     14  N   UNL     1      27.474  24.396  28.829  0.00  0.00    +0.000 NA
ATOM     15  C   UNL     1      26.285  24.525  29.564  0.00  0.00    +0.000 C 
ATOM     16  O   UNL     1      25.818  23.491  30.111  0.00  0.00    +0.000 OA
BRANCH  15  17
ATOM     17  C   UNL     1      25.542  25.794  29.742  0.00  0.00    +0.000 C 
ATOM     18  C   UNL     1      24.492  25.966  28.665  0.00  0.00    +0.000 C 
ATOM     19  C   UNL     1      26.514  26.966  29.640  0.00  0.00    +0.000 C 
ATOM     20  C   UNL     1      24.862  25.906  31.071  0.00  0.00    +0.000 C 
ENDBRANCH  15  17
ENDBRANCH  12  14
ENDBRANCH  11  12
ENDBRANCH   3  11
TORSDOF 5
ENDMDL
MODEL 2
REMARK VINA RESULT:      -5.5      2.063      2.862
REMARK  Name = 
REMARK  5 active torsions:
REMARK  status: ('A' for Active; 'I' for Inactive)
REMARK    1  A    between atoms: C_3  and  N_4
REMARK    2  A    between atoms: N_4  and  C_5
REMARK    3  A    between atoms: C_5  and  N_7
REMARK    4  A    between atoms: C_8  and  C_10
REMARK    5  A    between atoms: C_17  and  N_18
REMARK                            x       y       z     vdW  Elec       q    Type
REMARK                         _______ _______ _______ _____ _____    ______ ____
ROOT
ATOM      1  C   UNL     1      31.139  23.520  24.258  0.00  0.00    +0.000 C 
ATOM      2  C   UNL     1      29.658  23.434  24.308  0.00  0.00    +0.000 A 
ATOM      3  C   UNL     1      29.066  22.729  25.339  0.00  0.00    +0.000 A 
ATOM      4  C   UNL     1      27.695  22.634  25.408  0.00  0.00    +0.000 A 
ATOM      5  C   UNL     1      26.925  23.245  24.446  0.00  0.00    +0.000 A 
ATOM      6  C   UNL     1      27.508  23.952  23.411  0.00  0.00    +0.000 A 
ATOM      7  C   UNL     1      28.874  24.038  23.355  0.00  0.00    +0.000 A 
ENDROOT
BRANCH   7   8
ATOM      8  N   UNL     1      29.455  24.773  22.278  0.00  0.00    +0.000 N 
ATOM      9  O   UNL     1      29.743  25.966  22.482  0.00  0.00    +0.000 OA
ATOM     10  O   UNL     1      29.702  24.231  21.064  0.00  0.00    +0.000 OA
ENDBRANCH   7   8
BRANCH   3  11
ATOM     11  N   UNL     1      29.836  22.092  26.344  0.00  0.00    +0.000 NA
BRANCH  11  12
ATOM     12  C   UNL     1      29.908  22.611  27.638  0.00  0.00    +0.000 C 
ATOM     13  S   UNL     1      31.319  23.230  28.178  0.00  0.00    +0.000 S 
BRANCH  12  14
ATOM     14  N   UNL     1      28.819  22.647  28.552  0.00  0.00    +0.000 NA
ATOM     15  C   UNL     1      27.991  23.755  28.788  0.00  0.00    +0.000 C 
ATOM     16  O   UNL     1      28.223  24.810  28.141  0.00  0.00    +0.000 OA
BRANCH  15  17
ATOM     17  C   UNL     1      26.861  23.769  29.747  0.00  0.00    +0.000 C 
ATOM     18  C   UNL     1      26.439  22.362  30.112  0.00  0.00    +0.000 C 
ATOM     19  C   UNL     1      25.665  24.467  29.106  0.00  0.00    +0.000 C 
ATOM     20  C   UNL     1      27.165  24.504  31.016  0.00  0.00    +0.000 C 
ENDBRANCH  15  17
ENDBRANCH  12  14
ENDBRANCH  11  12
ENDBRANCH   3  11
TORSDOF 5
ENDMDL
MODEL 3
REMARK VINA RESULT:      -5.5      2.613      3.879
REMARK  Name = 
REMARK  5 active torsions:
REMARK  status: ('A' for Active; 'I' for Inactive)
REMARK    1  A    between atoms: C_3  and  N_4
REMARK    2  A    between atoms: N_4  and  C_5
REMARK    3  A    between atoms: C_5  and  N_7
REMARK    4  A    between atoms: C_8  and  C_10
REMARK    5  A    between atoms: C_17  and  N_18
REMARK                            x       y       z     vdW  Elec       q    Type
REMARK                         _______ _______ _______ _____ _____    ______ ____
ROOT
ATOM      1  C   UNL     1      26.126  23.310  25.734  0.00  0.00    +0.000 C 
ATOM      2  C   UNL     1      27.534  23.063  25.334  0.00  0.00    +0.000 A 
ATOM      3  C   UNL     1      28.424  22.596  26.284  0.00  0.00    +0.000 A 
ATOM      4  C   UNL     1      29.734  22.360  25.939  0.00  0.00    +0.000 A 
ATOM      5  C   UNL     1      30.148  22.591  24.648  0.00  0.00    +0.000 A 
ATOM      6  C   UNL     1      29.266  23.059  23.692  0.00  0.00    +0.000 A 
ATOM      7  C   UNL     1      27.963  23.290  24.049  0.00  0.00    +0.000 A 
ENDROOT
BRANCH   7   8
ATOM      8  N   UNL     1      27.069  23.773  23.046  0.00  0.00    +0.000 N 
ATOM      9  O   UNL     1      27.125  24.982  22.758  0.00  0.00    +0.000 OA
ATOM     10  O   UNL     1      26.180  22.981  22.407  0.00  0.00    +0.000 OA
ENDBRANCH   7   8
BRANCH   3  11
ATOM     11  N   UNL     1      28.023  22.347  27.620  0.00  0.00    +0.000 NA
BRANCH  11  12
ATOM     12  C   UNL     1      28.428  23.182  28.664  0.00  0.00    +0.000 C 
ATOM     13  S   UNL     1      28.089  24.777  28.593  0.00  0.00    +0.000 S 
BRANCH  12  14
ATOM     14  N   UNL     1      29.133  22.743  29.818  0.00  0.00    +0.000 NA
ATOM     15  C   UNL     1      30.529  22.699  29.952  0.00  0.00    +0.000 C 
ATOM     16  O   UNL     1      31.225  23.081  28.974  0.00  0.00    +0.000 OA
BRANCH  15  17
ATOM     17  C   UNL     1      31.242  22.236  31.166  0.00  0.00    +0.000 C 
ATOM     18  C   UNL     1      30.268  21.738  32.212  0.00  0.00    +0.000 C 
ATOM     19  C   UNL     1      32.021  23.402  31.768  0.00  0.00    +0.000 C 
ATOM     20  C   UNL     1      32.230  21.144  30.897  0.00  0.00    +0.000 C 
ENDBRANCH  15  17
ENDBRANCH  12  14
ENDBRANCH  11  12
ENDBRANCH   3  11
TORSDOF 5
ENDMDL
MODEL 4
REMARK VINA RESULT:      -5.4      2.422      2.787
REMARK  Name = 
REMARK  5 active torsions:
REMARK  status: ('A' for Active; 'I' for Inactive)
REMARK    1  A    between atoms: C_3  and  N_4
REMARK    2  A    between atoms: N_4  and  C_5
REMARK    3  A    between atoms: C_5  and  N_7
REMARK    4  A    between atoms: C_8  and  C_10
REMARK    5  A    between atoms: C_17  and  N_18
REMARK                            x       y       z     vdW  Elec       q    Type
REMARK                         _______ _______ _______ _____ _____    ______ ____
ROOT
ATOM      1  C   UNL     1      27.273  23.740  23.613  0.00  0.00    +0.000 C 
ATOM      2  C   UNL     1      28.632  23.504  24.162  0.00  0.00    +0.000 A 
ATOM      3  C   UNL     1      28.760  22.788  25.337  0.00  0.00    +0.000 A 
ATOM      4  C   UNL     1      30.008  22.557  25.868  0.00  0.00    +0.000 A 
ATOM      5  C   UNL     1      31.120  23.042  25.219  0.00  0.00    +0.000 A 
ATOM      6  C   UNL     1      31.002  23.759  24.044  0.00  0.00    +0.000 A 
ATOM      7  C   UNL     1      29.752  23.983  23.527  0.00  0.00    +0.000 A 
ENDROOT
BRANCH   7   8
ATOM      8  N   UNL     1      29.653  24.726  22.313  0.00  0.00    +0.000 N 
ATOM      9  O   UNL     1      29.543  25.962  22.401  0.00  0.00    +0.000 OA
ATOM     10  O   UNL     1      29.673  24.149  21.091  0.00  0.00    +0.000 OA
ENDBRANCH   7   8
BRANCH   3  11
ATOM     11  N   UNL     1      27.631  22.276  26.024  0.00  0.00    +0.000 NA
BRANCH  11  12
ATOM     12  C   UNL     1      27.057  22.970  27.091  0.00  0.00    +0.000 C 
ATOM     13  S   UNL     1      27.626  22.733  28.602  0.00  0.00    +0.000 S 
BRANCH  12  14
ATOM     14  N   UNL     1      25.985  23.896  26.964  0.00  0.00    +0.000 NA
ATOM     15  C   UNL     1      26.122  25.272  26.725  0.00  0.00    +0.000 C 
ATOM     16  O   UNL     1      27.287  25.735  26.610  0.00  0.00    +0.000 OA
BRANCH  15  17
ATOM     17  C   UNL     1      24.988  26.218  26.597  0.00  0.00    +0.000 C 
ATOM     18  C   UNL     1      23.888  25.886  27.581  0.00  0.00    +0.000 C 
ATOM     19  C   UNL     1      24.405  26.118  25.190  0.00  0.00    +0.000 C 
ATOM     20  C   UNL     1      25.380  27.648  26.806  0.00  0.00    +0.000 C 
ENDBRANCH  15  17
ENDBRANCH  12  14
ENDBRANCH  11  12
ENDBRANCH   3  11
TORSDOF 5
ENDMDL
MODEL 5
REMARK VINA RESULT:      -5.4     29.168     30.571
REMARK  Name = 
REMARK  5 active torsions:
REMARK  status: ('A' for Active; 'I' for Inactive)
REMARK    1  A    between atoms: C_3  and  N_4
REMARK    2  A    between atoms: N_4  and  C_5
REMARK    3  A    between atoms: C_5  and  N_7
REMARK    4  A    between atoms: C_8  and  C_10
REMARK    5  A    between atoms: C_17  and  N_18
REMARK                            x       y       z     vdW  Elec       q    Type
REMARK                         _______ _______ _______ _____ _____    ______ ____
ROOT
ATOM      1  C   UNL     1      35.386  -8.174  31.617  0.00  0.00    +0.000 C 
ATOM      2  C   UNL     1      34.816  -7.386  30.496  0.00  0.00    +0.000 A 
ATOM      3  C   UNL     1      34.464  -6.068  30.720  0.00  0.00    +0.000 A 
ATOM      4  C   UNL     1      33.933  -5.316  29.697  0.00  0.00    +0.000 A 
ATOM      5  C   UNL     1      33.758  -5.886  28.457  0.00  0.00    +0.000 A 
ATOM      6  C   UNL     1      34.107  -7.203  28.224  0.00  0.00    +0.000 A 
ATOM      7  C   UNL     1      34.635  -7.940  29.252  0.00  0.00    +0.000 A 
ENDROOT
BRANCH   7   8
ATOM      8  N   UNL     1      34.988  -9.298  28.990  0.00  0.00    +0.000 N 
ATOM      9  O   UNL     1      34.092 -10.156  29.089  0.00  0.00    +0.000 OA
ATOM     10  O   UNL     1      36.237  -9.681  28.642  0.00  0.00    +0.000 OA
ENDBRANCH   7   8
BRANCH   3  11
ATOM     11  N   UNL     1      34.636  -5.456  31.986  0.00  0.00    +0.000 NA
BRANCH  11  12
ATOM     12  C   UNL     1      33.564  -4.853  32.649  0.00  0.00    +0.000 C 
ATOM     13  S   UNL     1      32.313  -5.772  33.153  0.00  0.00    +0.000 S 
BRANCH  12  14
ATOM     14  N   UNL     1      33.473  -3.462  32.930  0.00  0.00    +0.000 NA
ATOM     15  C   UNL     1      33.852  -2.848  34.133  0.00  0.00    +0.000 C 
ATOM     16  O   UNL     1      34.315  -3.581  35.046  0.00  0.00    +0.000 OA
BRANCH  15  17
ATOM     17  C   UNL     1      33.746  -1.394  34.403  0.00  0.00    +0.000 C 
ATOM     18  C   UNL     1      34.066  -0.586  33.165  0.00  0.00    +0.000 C 
ATOM     19  C   UNL     1      34.749  -1.009  35.487  0.00  0.00    +0.000 C 
ATOM     20  C   UNL     1      32.394  -0.976  34.892  0.00  0.00    +0.000 C 
ENDBRANCH  15  17
ENDBRANCH  12  14
ENDBRANCH  11  12
ENDBRANCH   3  11
TORSDOF 5
ENDMDL
MODEL 6
REMARK VINA RESULT:      -5.3      2.729      6.215
REMARK  Name = 
REMARK  5 active torsions:
REMARK  status: ('A' for Active; 'I' for Inactive)
REMARK    1  A    between atoms: C_3  and  N_4
REMARK    2  A    between atoms: N_4  and  C_5
REMARK    3  A    between atoms: C_5  and  N_7
REMARK    4  A    between atoms: C_8  and  C_10
REMARK    5  A    between atoms: C_17  and  N_18
REMARK                            x       y       z     vdW  Elec       q    Type
REMARK                         _______ _______ _______ _____ _____    ______ ____
ROOT
ATOM      1  C   UNL     1      27.783  22.326  27.796  0.00  0.00    +0.000 C 
ATOM      2  C   UNL     1      26.716  23.334  27.584  0.00  0.00    +0.000 A 
ATOM      3  C   UNL     1      26.322  23.625  26.291  0.00  0.00    +0.000 A 
ATOM      4  C   UNL     1      25.335  24.557  26.067  0.00  0.00    +0.000 A 
ATOM      5  C   UNL     1      24.746  25.191  27.136  0.00  0.00    +0.000 A 
ATOM      6  C   UNL     1      25.133  24.907  28.432  0.00  0.00    +0.000 A 
ATOM      7  C   UNL     1      26.118  23.977  28.641  0.00  0.00    +0.000 A 
ENDROOT
BRANCH   7   8
ATOM      8  N   UNL     1      26.503  23.699  29.987  0.00  0.00    +0.000 N 
ATOM      9  O   UNL     1      27.352  24.444  30.510  0.00  0.00    +0.000 OA
ATOM     10  O   UNL     1      25.988  22.676  30.705  0.00  0.00    +0.000 OA
ENDBRANCH   7   8
BRANCH   3  11
ATOM     11  N   UNL     1      26.910  22.985  25.172  0.00  0.00    +0.000 NA
BRANCH  11  12
ATOM     12  C   UNL     1      27.802  23.663  24.337  0.00  0.00    +0.000 C 
ATOM     13  S   UNL     1      27.458  23.810  22.748  0.00  0.00    +0.000 S 
BRANCH  12  14
ATOM     14  N   UNL     1      29.020  24.253  24.771  0.00  0.00    +0.000 NA
ATOM     15  C   UNL     1      30.209  23.558  25.042  0.00  0.00    +0.000 C 
ATOM     16  O   UNL     1      30.207  22.308  24.890  0.00  0.00    +0.000 OA
BRANCH  15  17
ATOM     17  C   UNL     1      31.469  24.196  25.494  0.00  0.00    +0.000 C 
ATOM     18  C   UNL     1      32.628  23.804  24.604  0.00  0.00    +0.000 C 
ATOM     19  C   UNL     1      31.788  23.729  26.912  0.00  0.00    +0.000 C 
ATOM     20  C   UNL     1      31.399  25.691  25.533  0.00  0.00    +0.000 C 
ENDBRANCH  15  17
ENDBRANCH  12  14
ENDBRANCH  11  12
ENDBRANCH   3  11
TORSDOF 5
ENDMDL
MODEL 7
REMARK VINA RESULT:      -5.3      3.064      4.668
REMARK  Name = 
REMARK  5 active torsions:
REMARK  status: ('A' for Active; 'I' for Inactive)
REMARK    1  A    between atoms: C_3  and  N_4
REMARK    2  A    between atoms: N_4  and  C_5
REMARK    3  A    between atoms: C_5  and  N_7
REMARK    4  A    between atoms: C_8  and  C_10
REMARK    5  A    between atoms: C_17  and  N_18
REMARK                            x       y       z     vdW  Elec       q    Type
REMARK                         _______ _______ _______ _____ _____    ______ ____
ROOT
ATOM      1  C   UNL     1      28.527  26.044  24.080  0.00  0.00    +0.000 C 
ATOM      2  C   UNL     1      27.559  25.043  23.567  0.00  0.00    +0.000 A 
ATOM      3  C   UNL     1      26.627  24.509  24.437  0.00  0.00    +0.000 A 
ATOM      4  C   UNL     1      25.719  23.579  23.986  0.00  0.00    +0.000 A 
ATOM      5  C   UNL     1      25.747  23.190  22.667  0.00  0.00    +0.000 A 
ATOM      6  C   UNL     1      26.675  23.718  21.789  0.00  0.00    +0.000 A 
ATOM      7  C   UNL     1      27.574  24.643  22.252  0.00  0.00    +0.000 A 
ENDROOT
BRANCH   7   8
ATOM      8  N   UNL     1      28.523  25.175  21.329  0.00  0.00    +0.000 N 
ATOM      9  O   UNL     1      28.305  26.309  20.867  0.00  0.00    +0.000 OA
ATOM     10  O   UNL     1      29.632  24.505  20.944  0.00  0.00    +0.000 OA
ENDBRANCH   7   8
BRANCH   3  11
ATOM     11  N   UNL     1      26.575  24.895  25.800  0.00  0.00    +0.000 NA
BRANCH  11  12
ATOM     12  C   UNL     1      27.131  24.094  26.800  0.00  0.00    +0.000 C 
ATOM     13  S   UNL     1      26.341  23.916  28.218  0.00  0.00    +0.000 S 
BRANCH  12  14
ATOM     14  N   UNL     1      28.366  23.399  26.680  0.00  0.00    +0.000 NA
ATOM     15  C   UNL     1      29.636  23.952  26.906  0.00  0.00    +0.000 C 
ATOM     16  O   UNL     1      29.697  25.164  27.244  0.00  0.00    +0.000 OA
BRANCH  15  17
ATOM     17  C   UNL     1      30.911  23.208  26.774  0.00  0.00    +0.000 C 
ATOM     18  C   UNL     1      32.092  24.083  27.135  0.00  0.00    +0.000 C 
ATOM     19  C   UNL     1      31.085  22.760  25.325  0.00  0.00    +0.000 C 
ATOM     20  C   UNL     1      30.972  21.975  27.622  0.00  0.00    +0.000 C 
ENDBRANCH  15  17
ENDBRANCH  12  14
ENDBRANCH  11  12
ENDBRANCH   3  11
TORSDOF 5
ENDMDL
MODEL 8
REMARK VINA RESULT:      -5.1      2.859      6.376
REMARK  Name = 
REMARK  5 active torsions:
REMARK  status: ('A' for Active; 'I' for Inactive)
REMARK    1  A    between atoms: C_3  and  N_4
REMARK    2  A    between atoms: N_4  and  C_5
REMARK    3  A    between atoms: C_5  and  N_7
REMARK    4  A    between atoms: C_8  and  C_10
REMARK    5  A    between atoms: C_17  and  N_18
REMARK                            x       y       z     vdW  Elec       q    Type
REMARK                         _______ _______ _______ _____ _____    ______ ____
ROOT
ATOM      1  C   UNL     1      29.091  23.305  27.404  0.00  0.00    +0.000 C 
ATOM      2  C   UNL     1      27.898  23.366  26.524  0.00  0.00    +0.000 A 
ATOM      3  C   UNL     1      28.053  23.116  25.173  0.00  0.00    +0.000 A 
ATOM      4  C   UNL     1      26.963  23.167  24.335  0.00  0.00    +0.000 A 
ATOM      5  C   UNL     1      25.724  23.467  24.853  0.00  0.00    +0.000 A 
ATOM      6  C   UNL     1      25.559  23.718  26.203  0.00  0.00    +0.000 A 
ATOM      7  C   UNL     1      26.654  23.664  27.025  0.00  0.00    +0.000 A 
ENDROOT
BRANCH   7   8
ATOM      8  N   UNL     1      26.462  23.928  28.415  0.00  0.00    +0.000 N 
ATOM      9  O   UNL     1      26.122  22.976  29.140  0.00  0.00    +0.000 OA
ATOM     10  O   UNL     1      26.631  25.151  28.964  0.00  0.00    +0.000 OA
ENDBRANCH   7   8
BRANCH   3  11
ATOM     11  N   UNL     1      29.317  22.803  24.614  0.00  0.00    +0.000 NA
BRANCH  11  12
ATOM     12  C   UNL     1      30.189  23.808  24.189  0.00  0.00    +0.000 C 
ATOM     13  S   UNL     1      31.792  23.646  24.453  0.00  0.00    +0.000 S 
BRANCH  12  14
ATOM     14  N   UNL     1      29.782  24.997  23.523  0.00  0.00    +0.000 NA
ATOM     15  C   UNL     1      29.420  25.089  22.171  0.00  0.00    +0.000 C 
ATOM     16  O   UNL     1      29.453  24.036  21.481  0.00  0.00    +0.000 OA
BRANCH  15  17
ATOM     17  C   UNL     1      28.999  26.341  21.498  0.00  0.00    +0.000 C 
ATOM     18  C   UNL     1      29.303  27.550  22.357  0.00  0.00    +0.000 C 
ATOM     19  C   UNL     1      27.493  26.303  21.259  0.00  0.00    +0.000 C 
ATOM     20  C   UNL     1      29.647  26.548  20.164  0.00  0.00    +0.000 C 
ENDBRANCH  15  17
ENDBRANCH  12  14
ENDBRANCH  11  12
ENDBRANCH   3  11
TORSDOF 5
ENDMDL
MODEL 9
REMARK VINA RESULT:      -5.0      3.190      4.540
REMARK  Name = 
REMARK  5 active torsions:
REMARK  status: ('A' for Active; 'I' for Inactive)
REMARK    1  A    between atoms: C_3  and  N_4
REMARK    2  A    between atoms: N_4  and  C_5
REMARK    3  A    between atoms: C_5  and  N_7
REMARK    4  A    between atoms: C_8  and  C_10
REMARK    5  A    between atoms: C_17  and  N_18
REMARK                            x       y       z     vdW  Elec       q    Type
REMARK                         _______ _______ _______ _____ _____    ______ ____
ROOT
ATOM      1  C   UNL     1      30.195  23.030  24.549  0.00  0.00    +0.000 C 
ATOM      2  C   UNL     1      28.758  23.396  24.481  0.00  0.00    +0.000 A 
ATOM      3  C   UNL     1      27.906  22.933  25.466  0.00  0.00    +0.000 A 
ATOM      4  C   UNL     1      26.569  23.258  25.426  0.00  0.00    +0.000 A 
ATOM      5  C   UNL     1      26.093  24.043  24.402  0.00  0.00    +0.000 A 
ATOM      6  C   UNL     1      26.938  24.510  23.412  0.00  0.00    +0.000 A 
ATOM      7  C   UNL     1      28.267  24.179  23.465  0.00  0.00    +0.000 A 
ENDROOT
BRANCH   7   8
ATOM      8  N   UNL     1      29.121  24.671  22.433  0.00  0.00    +0.000 N 
ATOM      9  O   UNL     1      29.640  25.790  22.598  0.00  0.00    +0.000 OA
ATOM     10  O   UNL     1      29.383  23.981  21.301  0.00  0.00    +0.000 OA
ENDBRANCH   7   8
BRANCH   3  11
ATOM     11  N   UNL     1      28.370  22.125  26.533  0.00  0.00    +0.000 NA
BRANCH  11  12
ATOM     12  C   UNL     1      28.649  22.672  27.787  0.00  0.00    +0.000 C 
ATOM     13  S   UNL     1      27.594  22.449  29.013  0.00  0.00    +0.000 S 
BRANCH  12  14
ATOM     14  N   UNL     1      29.812  23.430  28.094  0.00  0.00    +0.000 NA
ATOM     15  C   UNL     1      31.122  22.928  28.142  0.00  0.00    +0.000 C 
ATOM     16  O   UNL     1      31.291  21.705  27.894  0.00  0.00    +0.000 OA
BRANCH  15  17
ATOM     17  C   UNL     1      32.320  23.738  28.465  0.00  0.00    +0.000 C 
ATOM     18  C   UNL     1      32.915  24.352  27.216  0.00  0.00    +0.000 C 
ATOM     19  C   UNL     1      33.380  22.841  29.098  0.00  0.00    +0.000 C 
ATOM     20  C   UNL     1      32.047  24.843  29.438  0.00  0.00    +0.000 C 
ENDBRANCH  15  17
ENDBRANCH  12  14
ENDBRANCH  11  12
ENDBRANCH   3  11
TORSDOF 5
ENDMDL
MODEL 10
REMARK VINA RESULT:      -5.0      3.303      5.096
REMARK  Name = 
REMARK  5 active torsions:
REMARK  status: ('A' for Active; 'I' for Inactive)
REMARK    1  A    between atoms: C_3  and  N_4
REMARK    2  A    between atoms: N_4  and  C_5
REMARK    3  A    between atoms: C_5  and  N_7
REMARK    4  A    between atoms: C_8  and  C_10
REMARK    5  A    between atoms: C_17  and  N_18
REMARK                            x       y       z     vdW  Elec       q    Type
REMARK                         _______ _______ _______ _____ _____    ______ ____
ROOT
ATOM      1  C   UNL     1      29.174  22.087  26.720  0.00  0.00    +0.000 C 
ATOM      2  C   UNL     1      30.348  22.832  26.203  0.00  0.00    +0.000 A 
ATOM      3  C   UNL     1      30.396  23.149  24.858  0.00  0.00    +0.000 A 
ATOM      4  C   UNL     1      31.474  23.839  24.353  0.00  0.00    +0.000 A 
ATOM      5  C   UNL     1      32.496  24.210  25.196  0.00  0.00    +0.000 A 
ATOM      6  C   UNL     1      32.457  23.898  26.542  0.00  0.00    +0.000 A 
ATOM      7  C   UNL     1      31.377  23.209  27.031  0.00  0.00    +0.000 A 
ENDROOT
BRANCH   7   8
ATOM      8  N   UNL     1      31.357  22.898  28.424  0.00  0.00    +0.000 N 
ATOM      9  O   UNL     1      31.948  21.866  28.792  0.00  0.00    +0.000 OA
ATOM     10  O   UNL     1      30.732  23.667  29.343  0.00  0.00    +0.000 OA
ENDBRANCH   7   8
BRANCH   3  11
ATOM     11  N   UNL     1      29.356  22.780  23.969  0.00  0.00    +0.000 NA
BRANCH  11  12
ATOM     12  C   UNL     1      28.425  23.719  23.517  0.00  0.00    +0.000 C 
ATOM     13  S   UNL     1      28.127  23.846  21.917  0.00  0.00    +0.000 S 
BRANCH  12  14
ATOM     14  N   UNL     1      27.693  24.597  24.362  0.00  0.00    +0.000 NA
ATOM     15  C   UNL     1      26.515  24.271  25.051  0.00  0.00    +0.000 C 
ATOM     16  O   UNL     1      26.061  23.104  24.916  0.00  0.00    +0.000 OA
BRANCH  15  17
ATOM     17  C   UNL     1      25.769  25.205  25.926  0.00  0.00    +0.000 C 
ATOM     18  C   UNL     1      26.665  26.317  26.426  0.00  0.00    +0.000 C 
ATOM     19  C   UNL     1      25.243  24.445  27.141  0.00  0.00    +0.000 C 
ATOM     20  C   UNL     1      24.584  25.831  25.257  0.00  0.00    +0.000 C 
ENDBRANCH  15  17
ENDBRANCH  12  14
ENDBRANCH  11  12
ENDBRANCH   3  11
TORSDOF 5
ENDMDL
