MODEL 1
REMARK VINA RESULT:      -7.1      0.000      0.000
REMARK  Name = 
REMARK  8 active torsions:
REMARK  status: ('A' for Active; 'I' for Inactive)
REMARK    1  A    between atoms: C_2  and  O_3
REMARK    2  A    between atoms: O_3  and  C_4
REMARK    3  A    between atoms: C_6  and  C_7
REMARK    4  A    between atoms: C_8  and  C_9
REMARK    5  A    between atoms: C_8  and  C_11
REMARK    6  A    between atoms: C_22  and  O_23
REMARK    7  A    between atoms: O_23  and  C_24
REMARK    8  A    between atoms: C_24  and  C_25
REMARK                            x       y       z     vdW  Elec       q    Type
REMARK                         _______ _______ _______ _____ _____    ______ ____
ROOT
ATOM      1  C   UNL     1      37.927   1.939  14.730  0.00  0.00    +0.000 A 
ATOM      2  C   UNL     1      38.720   1.189  13.890  0.00  0.00    +0.000 A 
ATOM      3  C   UNL     1      38.252   0.485  12.805  0.00  0.00    +0.000 A 
ATOM      4  C   UNL     1      36.865   0.579  12.594  0.00  0.00    +0.000 A 
ATOM      5  C   UNL     1      36.053   1.330  13.433  0.00  0.00    +0.000 A 
ATOM      6  C   UNL     1      36.553   2.017  14.503  0.00  0.00    +0.000 A 
ENDROOT
BRANCH   3   7
ATOM      7  C   UNL     1      39.038  -0.299  11.906  0.00  0.00    +0.000 C 
ATOM      8  C   UNL     1      39.288  -1.551  12.039  0.00  0.00    +0.000 C 
BRANCH   8   9
ATOM      9  C   UNL     1      38.833  -2.319  13.182  0.00  0.00    +0.000 A 
ATOM     10  N   UNL     1      39.536  -2.420  14.355  0.00  0.00    +0.000 NA
ATOM     11  C   UNL     1      38.871  -3.164  15.245  0.00  0.00    +0.000 A 
ATOM     12  C   UNL     1      39.154  -3.557  16.564  0.00  0.00    +0.000 A 
ATOM     13  C   UNL     1      38.273  -4.342  17.271  0.00  0.00    +0.000 A 
ATOM     14  C   UNL     1      37.107  -4.730  16.651  0.00  0.00    +0.000 A 
ATOM     15  C   UNL     1      36.826  -4.346  15.357  0.00  0.00    +0.000 A 
ATOM     16  C   UNL     1      37.702  -3.561  14.643  0.00  0.00    +0.000 A 
ATOM     17  N   UNL     1      37.740  -3.023  13.415  0.00  0.00    +0.000 NA
ENDBRANCH   8   9
BRANCH   8  18
ATOM     18  C   UNL     1      40.107  -2.206  11.022  0.00  0.00    +0.000 C 
ATOM     19  N   UNL     1      40.759  -2.730  10.226  0.00  0.00    +0.000 NA
ENDBRANCH   8  18
ENDBRANCH   3   7
BRANCH   1  20
ATOM     20  O   UNL     1      38.423   2.640  15.819  0.00  0.00    +0.000 OA
BRANCH  20  22
ATOM     21  C   UNL     1      38.544   4.679  17.115  0.00  0.00    +0.000 C 
ATOM     22  C   UNL     1      38.729   4.024  15.771  0.00  0.00    +0.000 C 
ENDBRANCH  20  22
ENDBRANCH   1  20
BRANCH   6  23
ATOM     23  O   UNL     1      35.776   2.774  15.358  0.00  0.00    +0.000 OA
BRANCH  23  24
ATOM     24  C   UNL     1      34.808   2.372  16.244  0.00  0.00    +0.000 C 
BRANCH  24  25
ATOM     25  C   UNL     1      35.297   1.261  17.086  0.00  0.00    +0.000 A 
ATOM     26  C   UNL     1      35.013  -0.072  16.775  0.00  0.00    +0.000 A 
ATOM     27  C   UNL     1      35.497  -1.091  17.576  0.00  0.00    +0.000 A 
ATOM     28  C   UNL     1      36.262  -0.846  18.693  0.00  0.00    +0.000 A 
ATOM     29  C   UNL     1      36.800  -1.900  19.568  0.00  0.00    +0.000 C 
ATOM     30  C   UNL     1      36.556   0.475  19.020  0.00  0.00    +0.000 A 
ATOM     31  C   UNL     1      36.060   1.491  18.198  0.00  0.00    +0.000 A 
ENDBRANCH  24  25
ENDBRANCH  23  24
ENDBRANCH   6  23
TORSDOF 8
ENDMDL
MODEL 2
REMARK VINA RESULT:      -7.1      2.742      5.820
REMARK  Name = 
REMARK  8 active torsions:
REMARK  status: ('A' for Active; 'I' for Inactive)
REMARK    1  A    between atoms: C_2  and  O_3
REMARK    2  A    between atoms: O_3  and  C_4
REMARK    3  A    between atoms: C_6  and  C_7
REMARK    4  A    between atoms: C_8  and  C_9
REMARK    5  A    between atoms: C_8  and  C_11
REMARK    6  A    between atoms: C_22  and  O_23
REMARK    7  A    between atoms: O_23  and  C_24
REMARK    8  A    between atoms: C_24  and  C_25
REMARK                            x       y       z     vdW  Elec       q    Type
REMARK                         _______ _______ _______ _____ _____    ______ ____
ROOT
ATOM      1  C   UNL     1      36.483   4.012  14.917  0.00  0.00    +0.000 A 
ATOM      2  C   UNL     1      35.660   2.961  15.255  0.00  0.00    +0.000 A 
ATOM      3  C   UNL     1      35.724   2.276  16.446  0.00  0.00    +0.000 A 
ATOM      4  C   UNL     1      36.716   2.730  17.334  0.00  0.00    +0.000 A 
ATOM      5  C   UNL     1      37.552   3.788  17.007  0.00  0.00    +0.000 A 
ATOM      6  C   UNL     1      37.460   4.445  15.813  0.00  0.00    +0.000 A 
ENDROOT
BRANCH   3   7
ATOM      7  C   UNL     1      34.889   1.185  16.838  0.00  0.00    +0.000 C 
ATOM      8  C   UNL     1      35.135  -0.054  16.614  0.00  0.00    +0.000 C 
BRANCH   8   9
ATOM      9  C   UNL     1      36.295  -0.494  15.863  0.00  0.00    +0.000 A 
ATOM     10  N   UNL     1      37.494  -0.821  16.444  0.00  0.00    +0.000 NA
ATOM     11  C   UNL     1      38.376  -1.219  15.521  0.00  0.00    +0.000 A 
ATOM     12  C   UNL     1      39.709  -1.653  15.598  0.00  0.00    +0.000 A 
ATOM     13  C   UNL     1      40.401  -2.015  14.465  0.00  0.00    +0.000 A 
ATOM     14  C   UNL     1      39.750  -1.941  13.255  0.00  0.00    +0.000 A 
ATOM     15  C   UNL     1      38.440  -1.516  13.176  0.00  0.00    +0.000 A 
ATOM     16  C   UNL     1      37.742  -1.152  14.304  0.00  0.00    +0.000 A 
ATOM     17  N   UNL     1      36.504  -0.713  14.577  0.00  0.00    +0.000 NA
ENDBRANCH   8   9
BRANCH   8  18
ATOM     18  C   UNL     1      34.176  -1.048  17.090  0.00  0.00    +0.000 C 
ATOM     19  N   UNL     1      33.416  -1.837  17.456  0.00  0.00    +0.000 NA
ENDBRANCH   8  18
ENDBRANCH   3   7
BRANCH   1  20
ATOM     20  O   UNL     1      36.397   4.686  13.707  0.00  0.00    +0.000 OA
BRANCH  20  22
ATOM     21  C   UNL     1      35.164   6.721  14.144  0.00  0.00    +0.000 C 
ATOM     22  C   UNL     1      35.267   5.456  13.332  0.00  0.00    +0.000 C 
ENDBRANCH  20  22
ENDBRANCH   1  20
BRANCH   6  23
ATOM     23  O   UNL     1      38.275   5.501  15.454  0.00  0.00    +0.000 OA
BRANCH  23  24
ATOM     24  C   UNL     1      38.434   6.724  16.056  0.00  0.00    +0.000 C 
BRANCH  24  25
ATOM     25  C   UNL     1      39.358   6.627  17.204  0.00  0.00    +0.000 A 
ATOM     26  C   UNL     1      38.890   6.642  18.521  0.00  0.00    +0.000 A 
ATOM     27  C   UNL     1      39.780   6.536  19.576  0.00  0.00    +0.000 A 
ATOM     28  C   UNL     1      41.137   6.415  19.382  0.00  0.00    +0.000 A 
ATOM     29  C   UNL     1      42.116   6.294  20.474  0.00  0.00    +0.000 C 
ATOM     30  C   UNL     1      41.622   6.397  18.078  0.00  0.00    +0.000 A 
ATOM     31  C   UNL     1      40.708   6.505  17.025  0.00  0.00    +0.000 A 
ENDBRANCH  24  25
ENDBRANCH  23  24
ENDBRANCH   6  23
TORSDOF 8
ENDMDL
MODEL 3
REMARK VINA RESULT:      -6.9      3.302      6.930
REMARK  Name = 
REMARK  8 active torsions:
REMARK  status: ('A' for Active; 'I' for Inactive)
REMARK    1  A    between atoms: C_2  and  O_3
REMARK    2  A    between atoms: O_3  and  C_4
REMARK    3  A    between atoms: C_6  and  C_7
REMARK    4  A    between atoms: C_8  and  C_9
REMARK    5  A    between atoms: C_8  and  C_11
REMARK    6  A    between atoms: C_22  and  O_23
REMARK    7  A    between atoms: O_23  and  C_24
REMARK    8  A    between atoms: C_24  and  C_25
REMARK                            x       y       z     vdW  Elec       q    Type
REMARK                         _______ _______ _______ _____ _____    ______ ____
ROOT
ATOM      1  C   UNL     1      37.097  -0.029  16.156  0.00  0.00    +0.000 A 
ATOM      2  C   UNL     1      36.486   1.041  15.542  0.00  0.00    +0.000 A 
ATOM      3  C   UNL     1      37.028   1.749  14.494  0.00  0.00    +0.000 A 
ATOM      4  C   UNL     1      38.291   1.298  14.069  0.00  0.00    +0.000 A 
ATOM      5  C   UNL     1      38.919   0.220  14.679  0.00  0.00    +0.000 A 
ATOM      6  C   UNL     1      38.350  -0.459  15.719  0.00  0.00    +0.000 A 
ENDROOT
BRANCH   3   7
ATOM      7  C   UNL     1      36.428   2.860  13.826  0.00  0.00    +0.000 C 
ATOM      8  C   UNL     1      36.657   4.095  14.090  0.00  0.00    +0.000 C 
BRANCH   8   9
ATOM      9  C   UNL     1      37.534   4.511  15.168  0.00  0.00    +0.000 A 
ATOM     10  N   UNL     1      38.727   5.157  14.966  0.00  0.00    +0.000 NA
ATOM     11  C   UNL     1      39.313   5.447  16.133  0.00  0.00    +0.000 A 
ATOM     12  C   UNL     1      40.516   6.091  16.464  0.00  0.00    +0.000 A 
ATOM     13  C   UNL     1      40.887   6.263  17.777  0.00  0.00    +0.000 A 
ATOM     14  C   UNL     1      40.045   5.788  18.757  0.00  0.00    +0.000 A 
ATOM     15  C   UNL     1      38.862   5.156  18.436  0.00  0.00    +0.000 A 
ATOM     16  C   UNL     1      38.485   4.980  17.125  0.00  0.00    +0.000 A 
ATOM     17  N   UNL     1      37.442   4.433  16.483  0.00  0.00    +0.000 NA
ENDBRANCH   8   9
BRANCH   8  18
ATOM     18  C   UNL     1      35.962   5.111  13.305  0.00  0.00    +0.000 C 
ATOM     19  N   UNL     1      35.414   5.909  12.674  0.00  0.00    +0.000 NA
ENDBRANCH   8  18
ENDBRANCH   3   7
BRANCH   1  20
ATOM     20  O   UNL     1      36.528  -0.726  17.212  0.00  0.00    +0.000 OA
BRANCH  20  22
ATOM     21  C   UNL     1      34.437  -1.933  17.068  0.00  0.00    +0.000 C 
ATOM     22  C   UNL     1      35.143  -0.678  17.511  0.00  0.00    +0.000 C 
ENDBRANCH  20  22
ENDBRANCH   1  20
BRANCH   6  23
ATOM     23  O   UNL     1      38.945  -1.535  16.349  0.00  0.00    +0.000 OA
BRANCH  23  24
ATOM     24  C   UNL     1      39.225  -2.786  15.861  0.00  0.00    +0.000 C 
BRANCH  24  25
ATOM     25  C   UNL     1      37.985  -3.570  15.684  0.00  0.00    +0.000 A 
ATOM     26  C   UNL     1      37.556  -4.485  16.649  0.00  0.00    +0.000 A 
ATOM     27  C   UNL     1      36.383  -5.195  16.461  0.00  0.00    +0.000 A 
ATOM     28  C   UNL     1      35.601  -5.036  15.340  0.00  0.00    +0.000 A 
ATOM     29  C   UNL     1      34.345  -5.766  15.104  0.00  0.00    +0.000 C 
ATOM     30  C   UNL     1      36.011  -4.129  14.367  0.00  0.00    +0.000 A 
ATOM     31  C   UNL     1      37.199  -3.420  14.575  0.00  0.00    +0.000 A 
ENDBRANCH  24  25
ENDBRANCH  23  24
ENDBRANCH   6  23
TORSDOF 8
ENDMDL
MODEL 4
REMARK VINA RESULT:      -6.7      3.592      6.190
REMARK  Name = 
REMARK  8 active torsions:
REMARK  status: ('A' for Active; 'I' for Inactive)
REMARK    1  A    between atoms: C_2  and  O_3
REMARK    2  A    between atoms: O_3  and  C_4
REMARK    3  A    between atoms: C_6  and  C_7
REMARK    4  A    between atoms: C_8  and  C_9
REMARK    5  A    between atoms: C_8  and  C_11
REMARK    6  A    between atoms: C_22  and  O_23
REMARK    7  A    between atoms: O_23  and  C_24
REMARK    8  A    between atoms: C_24  and  C_25
REMARK                            x       y       z     vdW  Elec       q    Type
REMARK                         _______ _______ _______ _____ _____    ______ ____
ROOT
ATOM      1  C   UNL     1      37.203   4.289  15.792  0.00  0.00    +0.000 A 
ATOM      2  C   UNL     1      36.662   3.178  16.400  0.00  0.00    +0.000 A 
ATOM      3  C   UNL     1      35.484   2.580  16.018  0.00  0.00    +0.000 A 
ATOM      4  C   UNL     1      34.840   3.191  14.927  0.00  0.00    +0.000 A 
ATOM      5  C   UNL     1      35.373   4.311  14.304  0.00  0.00    +0.000 A 
ATOM      6  C   UNL     1      36.547   4.879  14.712  0.00  0.00    +0.000 A 
ENDROOT
BRANCH   3   7
ATOM      7  C   UNL     1      34.891   1.426  16.616  0.00  0.00    +0.000 C 
ATOM      8  C   UNL     1      35.300   0.220  16.465  0.00  0.00    +0.000 C 
BRANCH   8   9
ATOM      9  C   UNL     1      36.411  -0.123  15.598  0.00  0.00    +0.000 A 
ATOM     10  N   UNL     1      37.687  -0.340  16.052  0.00  0.00    +0.000 NA
ATOM     11  C   UNL     1      38.501  -0.666  15.042  0.00  0.00    +0.000 A 
ATOM     12  C   UNL     1      39.868  -0.982  14.980  0.00  0.00    +0.000 A 
ATOM     13  C   UNL     1      40.469  -1.289  13.781  0.00  0.00    +0.000 A 
ATOM     14  C   UNL     1      39.692  -1.280  12.645  0.00  0.00    +0.000 A 
ATOM     15  C   UNL     1      38.349  -0.972  12.702  0.00  0.00    +0.000 A 
ATOM     16  C   UNL     1      37.742  -0.663  13.896  0.00  0.00    +0.000 A 
ATOM     17  N   UNL     1      36.505  -0.331  14.297  0.00  0.00    +0.000 NA
ENDBRANCH   8   9
BRANCH   8  18
ATOM     18  C   UNL     1      34.581  -0.848  17.155  0.00  0.00    +0.000 C 
ATOM     19  N   UNL     1      34.020  -1.700  17.698  0.00  0.00    +0.000 NA
ENDBRANCH   8  18
ENDBRANCH   3   7
BRANCH   1  20
ATOM     20  O   UNL     1      38.394   4.874  16.198  0.00  0.00    +0.000 OA
BRANCH  20  22
ATOM     21  C   UNL     1      38.998   5.209  18.516  0.00  0.00    +0.000 C 
ATOM     22  C   UNL     1      38.468   5.824  17.247  0.00  0.00    +0.000 C 
ENDBRANCH  20  22
ENDBRANCH   1  20
BRANCH   6  23
ATOM     23  O   UNL     1      37.107   5.993  14.117  0.00  0.00    +0.000 OA
BRANCH  23  24
ATOM     24  C   UNL     1      36.496   7.024  13.448  0.00  0.00    +0.000 C 
BRANCH  24  25
ATOM     25  C   UNL     1      35.700   7.853  14.376  0.00  0.00    +0.000 A 
ATOM     26  C   UNL     1      34.303   7.847  14.345  0.00  0.00    +0.000 A 
ATOM     27  C   UNL     1      33.584   8.624  15.236  0.00  0.00    +0.000 A 
ATOM     28  C   UNL     1      34.198   9.421  16.175  0.00  0.00    +0.000 A 
ATOM     29  C   UNL     1      33.472  10.258  17.144  0.00  0.00    +0.000 C 
ATOM     30  C   UNL     1      35.589   9.441  16.222  0.00  0.00    +0.000 A 
ATOM     31  C   UNL     1      36.298   8.649  15.314  0.00  0.00    +0.000 A 
ENDBRANCH  24  25
ENDBRANCH  23  24
ENDBRANCH   6  23
TORSDOF 8
ENDMDL
MODEL 5
REMARK VINA RESULT:      -6.6      3.309      6.838
REMARK  Name = 
REMARK  8 active torsions:
REMARK  status: ('A' for Active; 'I' for Inactive)
REMARK    1  A    between atoms: C_2  and  O_3
REMARK    2  A    between atoms: O_3  and  C_4
REMARK    3  A    between atoms: C_6  and  C_7
REMARK    4  A    between atoms: C_8  and  C_9
REMARK    5  A    between atoms: C_8  and  C_11
REMARK    6  A    between atoms: C_22  and  O_23
REMARK    7  A    between atoms: O_23  and  C_24
REMARK    8  A    between atoms: C_24  and  C_25
REMARK                            x       y       z     vdW  Elec       q    Type
REMARK                         _______ _______ _______ _____ _____    ______ ____
ROOT
ATOM      1  C   UNL     1      37.664   0.207  15.628  0.00  0.00    +0.000 A 
ATOM      2  C   UNL     1      37.367   1.266  14.800  0.00  0.00    +0.000 A 
ATOM      3  C   UNL     1      36.206   2.000  14.864  0.00  0.00    +0.000 A 
ATOM      4  C   UNL     1      35.304   1.591  15.864  0.00  0.00    +0.000 A 
ATOM      5  C   UNL     1      35.590   0.525  16.705  0.00  0.00    +0.000 A 
ATOM      6  C   UNL     1      36.755  -0.182  16.612  0.00  0.00    +0.000 A 
ENDROOT
BRANCH   3   7
ATOM      7  C   UNL     1      35.860   3.107  14.030  0.00  0.00    +0.000 C 
ATOM      8  C   UNL     1      36.356   4.287  14.121  0.00  0.00    +0.000 C 
BRANCH   8   9
ATOM      9  C   UNL     1      37.311   4.653  15.150  0.00  0.00    +0.000 A 
ATOM     10  N   UNL     1      38.529   5.223  14.883  0.00  0.00    +0.000 NA
ATOM     11  C   UNL     1      39.190   5.481  16.017  0.00  0.00    +0.000 A 
ATOM     12  C   UNL     1      40.446   6.051  16.282  0.00  0.00    +0.000 A 
ATOM     13  C   UNL     1      40.893   6.205  17.574  0.00  0.00    +0.000 A 
ATOM     14  C   UNL     1      40.075   5.787  18.599  0.00  0.00    +0.000 A 
ATOM     15  C   UNL     1      38.841   5.227  18.342  0.00  0.00    +0.000 A 
ATOM     16  C   UNL     1      38.387   5.069  17.053  0.00  0.00    +0.000 A 
ATOM     17  N   UNL     1      37.281   4.585  16.468  0.00  0.00    +0.000 NA
ENDBRANCH   8   9
BRANCH   8  18
ATOM     18  C   UNL     1      35.896   5.306  13.182  0.00  0.00    +0.000 C 
ATOM     19  N   UNL     1      35.536   6.106  12.430  0.00  0.00    +0.000 NA
ENDBRANCH   8  18
ENDBRANCH   3   7
BRANCH   1  20
ATOM     20  O   UNL     1      38.844  -0.518  15.543  0.00  0.00    +0.000 OA
BRANCH  20  22
ATOM     21  C   UNL     1      39.847  -2.712  15.373  0.00  0.00    +0.000 C 
ATOM     22  C   UNL     1      38.988  -1.662  14.718  0.00  0.00    +0.000 C 
ENDBRANCH  20  22
ENDBRANCH   1  20
BRANCH   6  23
ATOM     23  O   UNL     1      37.073  -1.247  17.432  0.00  0.00    +0.000 OA
BRANCH  23  24
ATOM     24  C   UNL     1      36.255  -2.211  17.967  0.00  0.00    +0.000 C 
BRANCH  24  25
ATOM     25  C   UNL     1      35.684  -3.063  16.905  0.00  0.00    +0.000 A 
ATOM     26  C   UNL     1      36.445  -4.051  16.272  0.00  0.00    +0.000 A 
ATOM     27  C   UNL     1      35.878  -4.843  15.290  0.00  0.00    +0.000 A 
ATOM     28  C   UNL     1      34.568  -4.698  14.896  0.00  0.00    +0.000 A 
ATOM     29  C   UNL     1      33.925  -5.522  13.860  0.00  0.00    +0.000 C 
ATOM     30  C   UNL     1      33.793  -3.720  15.514  0.00  0.00    +0.000 A 
ATOM     31  C   UNL     1      34.383  -2.931  16.505  0.00  0.00    +0.000 A 
ENDBRANCH  24  25
ENDBRANCH  23  24
ENDBRANCH   6  23
TORSDOF 8
ENDMDL
MODEL 6
REMARK VINA RESULT:      -6.6      1.953      5.249
REMARK  Name = 
REMARK  8 active torsions:
REMARK  status: ('A' for Active; 'I' for Inactive)
REMARK    1  A    between atoms: C_2  and  O_3
REMARK    2  A    between atoms: O_3  and  C_4
REMARK    3  A    between atoms: C_6  and  C_7
REMARK    4  A    between atoms: C_8  and  C_9
REMARK    5  A    between atoms: C_8  and  C_11
REMARK    6  A    between atoms: C_22  and  O_23
REMARK    7  A    between atoms: O_23  and  C_24
REMARK    8  A    between atoms: C_24  and  C_25
REMARK                            x       y       z     vdW  Elec       q    Type
REMARK                         _______ _______ _______ _____ _____    ______ ____
ROOT
ATOM      1  C   UNL     1      36.802   1.377  15.164  0.00  0.00    +0.000 A 
ATOM      2  C   UNL     1      36.306   0.102  15.003  0.00  0.00    +0.000 A 
ATOM      3  C   UNL     1      35.716  -0.634  16.004  0.00  0.00    +0.000 A 
ATOM      4  C   UNL     1      35.643   0.016  17.249  0.00  0.00    +0.000 A 
ATOM      5  C   UNL     1      36.139   1.301  17.426  0.00  0.00    +0.000 A 
ATOM      6  C   UNL     1      36.720   2.002  16.409  0.00  0.00    +0.000 A 
ENDROOT
BRANCH   3   7
ATOM      7  C   UNL     1      35.185  -1.954  15.879  0.00  0.00    +0.000 C 
ATOM      8  C   UNL     1      35.832  -2.975  15.450  0.00  0.00    +0.000 C 
BRANCH   8   9
ATOM      9  C   UNL     1      37.200  -2.887  14.975  0.00  0.00    +0.000 A 
ATOM     10  N   UNL     1      37.543  -2.900  13.648  0.00  0.00    +0.000 NA
ATOM     11  C   UNL     1      38.866  -2.777  13.498  0.00  0.00    +0.000 A 
ATOM     12  C   UNL     1      39.700  -2.732  12.369  0.00  0.00    +0.000 A 
ATOM     13  C   UNL     1      41.062  -2.593  12.502  0.00  0.00    +0.000 A 
ATOM     14  C   UNL     1      41.585  -2.500  13.772  0.00  0.00    +0.000 A 
ATOM     15  C   UNL     1      40.769  -2.543  14.883  0.00  0.00    +0.000 A 
ATOM     16  C   UNL     1      39.406  -2.681  14.758  0.00  0.00    +0.000 A 
ATOM     17  N   UNL     1      38.359  -2.754  15.594  0.00  0.00    +0.000 NA
ENDBRANCH   8   9
BRANCH   8  18
ATOM     18  C   UNL     1      35.139  -4.260  15.391  0.00  0.00    +0.000 C 
ATOM     19  N   UNL     1      34.584  -5.271  15.338  0.00  0.00    +0.000 NA
ENDBRANCH   8  18
ENDBRANCH   3   7
BRANCH   1  20
ATOM     20  O   UNL     1      37.394   2.098  14.138  0.00  0.00    +0.000 OA
BRANCH  20  22
ATOM     21  C   UNL     1      39.684   1.340  14.310  0.00  0.00    +0.000 C 
ATOM     22  C   UNL     1      38.512   1.623  13.407  0.00  0.00    +0.000 C 
ENDBRANCH  20  22
ENDBRANCH   1  20
BRANCH   6  23
ATOM     23  O   UNL     1      37.224   3.281  16.548  0.00  0.00    +0.000 OA
BRANCH  23  24
ATOM     24  C   UNL     1      37.477   3.998  17.691  0.00  0.00    +0.000 C 
BRANCH  24  25
ATOM     25  C   UNL     1      38.702   4.809  17.539  0.00  0.00    +0.000 A 
ATOM     26  C   UNL     1      39.344   5.377  18.644  0.00  0.00    +0.000 A 
ATOM     27  C   UNL     1      40.498   6.120  18.472  0.00  0.00    +0.000 A 
ATOM     28  C   UNL     1      41.056   6.332  17.232  0.00  0.00    +0.000 A 
ATOM     29  C   UNL     1      42.284   7.111  17.006  0.00  0.00    +0.000 C 
ATOM     30  C   UNL     1      40.433   5.775  16.119  0.00  0.00    +0.000 A 
ATOM     31  C   UNL     1      39.268   5.026  16.313  0.00  0.00    +0.000 A 
ENDBRANCH  24  25
ENDBRANCH  23  24
ENDBRANCH   6  23
TORSDOF 8
ENDMDL
MODEL 7
REMARK VINA RESULT:      -6.6      2.921      5.567
REMARK  Name = 
REMARK  8 active torsions:
REMARK  status: ('A' for Active; 'I' for Inactive)
REMARK    1  A    between atoms: C_2  and  O_3
REMARK    2  A    between atoms: O_3  and  C_4
REMARK    3  A    between atoms: C_6  and  C_7
REMARK    4  A    between atoms: C_8  and  C_9
REMARK    5  A    between atoms: C_8  and  C_11
REMARK    6  A    between atoms: C_22  and  O_23
REMARK    7  A    between atoms: O_23  and  C_24
REMARK    8  A    between atoms: C_24  and  C_25
REMARK                            x       y       z     vdW  Elec       q    Type
REMARK                         _______ _______ _______ _____ _____    ______ ____
ROOT
ATOM      1  C   UNL     1      39.564   0.810  13.437  0.00  0.00    +0.000 A 
ATOM      2  C   UNL     1      38.785   1.924  13.658  0.00  0.00    +0.000 A 
ATOM      3  C   UNL     1      37.616   2.200  12.987  0.00  0.00    +0.000 A 
ATOM      4  C   UNL     1      37.247   1.241  12.027  0.00  0.00    +0.000 A 
ATOM      5  C   UNL     1      38.022   0.113  11.793  0.00  0.00    +0.000 A 
ATOM      6  C   UNL     1      39.179  -0.128  12.478  0.00  0.00    +0.000 A 
ENDROOT
BRANCH   3   7
ATOM      7  C   UNL     1      36.777   3.338  13.188  0.00  0.00    +0.000 C 
ATOM      8  C   UNL     1      36.029   3.537  14.211  0.00  0.00    +0.000 C 
BRANCH   8   9
ATOM      9  C   UNL     1      35.906   2.568  15.285  0.00  0.00    +0.000 A 
ATOM     10  N   UNL     1      35.313   1.342  15.133  0.00  0.00    +0.000 NA
ATOM     11  C   UNL     1      35.363   0.645  16.274  0.00  0.00    +0.000 A 
ATOM     12  C   UNL     1      34.912  -0.635  16.633  0.00  0.00    +0.000 A 
ATOM     13  C   UNL     1      35.100  -1.119  17.907  0.00  0.00    +0.000 A 
ATOM     14  C   UNL     1      35.745  -0.314  18.818  0.00  0.00    +0.000 A 
ATOM     15  C   UNL     1      36.191   0.943  18.469  0.00  0.00    +0.000 A 
ATOM     16  C   UNL     1      36.006   1.434  17.198  0.00  0.00    +0.000 A 
ATOM     17  N   UNL     1      36.303   2.567  16.544  0.00  0.00    +0.000 NA
ENDBRANCH   8   9
BRANCH   8  18
ATOM     18  C   UNL     1      35.236   4.762  14.263  0.00  0.00    +0.000 C 
ATOM     19  N   UNL     1      34.598   5.724  14.306  0.00  0.00    +0.000 NA
ENDBRANCH   8  18
ENDBRANCH   3   7
BRANCH   1  20
ATOM     20  O   UNL     1      40.740   0.555  14.127  0.00  0.00    +0.000 OA
BRANCH  20  22
ATOM     21  C   UNL     1      43.016  -0.265  14.127  0.00  0.00    +0.000 C 
ATOM     22  C   UNL     1      42.024   0.709  13.545  0.00  0.00    +0.000 C 
ENDBRANCH  20  22
ENDBRANCH   1  20
BRANCH   6  23
ATOM     23  O   UNL     1      39.975  -1.238  12.272  0.00  0.00    +0.000 OA
BRANCH  23  24
ATOM     24  C   UNL     1      39.703  -2.563  12.510  0.00  0.00    +0.000 C 
BRANCH  24  25
ATOM     25  C   UNL     1      39.228  -2.760  13.894  0.00  0.00    +0.000 A 
ATOM     26  C   UNL     1      37.879  -2.997  14.177  0.00  0.00    +0.000 A 
ATOM     27  C   UNL     1      37.466  -3.192  15.483  0.00  0.00    +0.000 A 
ATOM     28  C   UNL     1      38.344  -3.161  16.542  0.00  0.00    +0.000 A 
ATOM     29  C   UNL     1      37.948  -3.369  17.944  0.00  0.00    +0.000 C 
ATOM     30  C   UNL     1      39.691  -2.927  16.282  0.00  0.00    +0.000 A 
ATOM     31  C   UNL     1      40.090  -2.734  14.955  0.00  0.00    +0.000 A 
ENDBRANCH  24  25
ENDBRANCH  23  24
ENDBRANCH   6  23
TORSDOF 8
ENDMDL
MODEL 8
REMARK VINA RESULT:      -6.6      2.586      5.563
REMARK  Name = 
REMARK  8 active torsions:
REMARK  status: ('A' for Active; 'I' for Inactive)
REMARK    1  A    between atoms: C_2  and  O_3
REMARK    2  A    between atoms: O_3  and  C_4
REMARK    3  A    between atoms: C_6  and  C_7
REMARK    4  A    between atoms: C_8  and  C_9
REMARK    5  A    between atoms: C_8  and  C_11
REMARK    6  A    between atoms: C_22  and  O_23
REMARK    7  A    between atoms: O_23  and  C_24
REMARK    8  A    between atoms: C_24  and  C_25
REMARK                            x       y       z     vdW  Elec       q    Type
REMARK                         _______ _______ _______ _____ _____    ______ ____
ROOT
ATOM      1  C   UNL     1      37.482   3.835  16.380  0.00  0.00    +0.000 A 
ATOM      2  C   UNL     1      36.720   2.815  16.904  0.00  0.00    +0.000 A 
ATOM      3  C   UNL     1      35.629   2.258  16.277  0.00  0.00    +0.000 A 
ATOM      4  C   UNL     1      35.326   2.812  15.020  0.00  0.00    +0.000 A 
ATOM      5  C   UNL     1      36.085   3.841  14.479  0.00  0.00    +0.000 A 
ATOM      6  C   UNL     1      37.162   4.370  15.131  0.00  0.00    +0.000 A 
ENDROOT
BRANCH   3   7
ATOM      7  C   UNL     1      34.816   1.198  16.781  0.00  0.00    +0.000 C 
ATOM      8  C   UNL     1      35.107  -0.050  16.726  0.00  0.00    +0.000 C 
BRANCH   8   9
ATOM      9  C   UNL     1      36.306  -0.542  16.073  0.00  0.00    +0.000 A 
ATOM     10  N   UNL     1      36.336  -0.974  14.772  0.00  0.00    +0.000 NA
ATOM     11  C   UNL     1      37.573  -1.344  14.423  0.00  0.00    +0.000 A 
ATOM     12  C   UNL     1      38.121  -1.844  13.231  0.00  0.00    +0.000 A 
ATOM     13  C   UNL     1      39.460  -2.148  13.141  0.00  0.00    +0.000 A 
ATOM     14  C   UNL     1      40.247  -1.948  14.252  0.00  0.00    +0.000 A 
ATOM     15  C   UNL     1      39.713  -1.456  15.425  0.00  0.00    +0.000 A 
ATOM     16  C   UNL     1      38.376  -1.150  15.522  0.00  0.00    +0.000 A 
ATOM     17  N   UNL     1      37.558  -0.670  16.472  0.00  0.00    +0.000 NA
ENDBRANCH   8   9
BRANCH   8  18
ATOM     18  C   UNL     1      34.164  -1.008  17.297  0.00  0.00    +0.000 C 
ATOM     19  N   UNL     1      33.426  -1.767  17.759  0.00  0.00    +0.000 NA
ENDBRANCH   8  18
ENDBRANCH   3   7
BRANCH   1  20
ATOM     20  O   UNL     1      38.578   4.379  17.033  0.00  0.00    +0.000 OA
BRANCH  20  22
ATOM     21  C   UNL     1      38.975   6.079  18.707  0.00  0.00    +0.000 C 
ATOM     22  C   UNL     1      38.588   4.651  18.425  0.00  0.00    +0.000 C 
ENDBRANCH  20  22
ENDBRANCH   1  20
BRANCH   6  23
ATOM     23  O   UNL     1      37.939   5.393  14.624  0.00  0.00    +0.000 OA
BRANCH  23  24
ATOM     24  C   UNL     1      39.144   5.331  13.969  0.00  0.00    +0.000 C 
BRANCH  24  25
ATOM     25  C   UNL     1      39.233   4.105  13.151  0.00  0.00    +0.000 A 
ATOM     26  C   UNL     1      39.810   2.933  13.650  0.00  0.00    +0.000 A 
ATOM     27  C   UNL     1      39.867   1.796  12.863  0.00  0.00    +0.000 A 
ATOM     28  C   UNL     1      39.370   1.766  11.581  0.00  0.00    +0.000 A 
ATOM     29  C   UNL     1      39.405   0.577  10.714  0.00  0.00    +0.000 C 
ATOM     30  C   UNL     1      38.791   2.922  11.065  0.00  0.00    +0.000 A 
ATOM     31  C   UNL     1      38.742   4.061  11.875  0.00  0.00    +0.000 A 
ENDBRANCH  24  25
ENDBRANCH  23  24
ENDBRANCH   6  23
TORSDOF 8
ENDMDL
MODEL 9
REMARK VINA RESULT:      -6.5      3.825      7.570
REMARK  Name = 
REMARK  8 active torsions:
REMARK  status: ('A' for Active; 'I' for Inactive)
REMARK    1  A    between atoms: C_2  and  O_3
REMARK    2  A    between atoms: O_3  and  C_4
REMARK    3  A    between atoms: C_6  and  C_7
REMARK    4  A    between atoms: C_8  and  C_9
REMARK    5  A    between atoms: C_8  and  C_11
REMARK    6  A    between atoms: C_22  and  O_23
REMARK    7  A    between atoms: O_23  and  C_24
REMARK    8  A    between atoms: C_24  and  C_25
REMARK                            x       y       z     vdW  Elec       q    Type
REMARK                         _______ _______ _______ _____ _____    ______ ____
ROOT
ATOM      1  C   UNL     1      37.659   1.920  15.397  0.00  0.00    +0.000 A 
ATOM      2  C   UNL     1      37.096   3.164  15.221  0.00  0.00    +0.000 A 
ATOM      3  C   UNL     1      37.671   4.182  14.495  0.00  0.00    +0.000 A 
ATOM      4  C   UNL     1      38.916   3.865  13.921  0.00  0.00    +0.000 A 
ATOM      5  C   UNL     1      39.496   2.616  14.091  0.00  0.00    +0.000 A 
ATOM      6  C   UNL     1      38.895   1.628  14.819  0.00  0.00    +0.000 A 
ENDROOT
BRANCH   3   7
ATOM      7  C   UNL     1      37.121   5.483  14.283  0.00  0.00    +0.000 C 
ATOM      8  C   UNL     1      37.475   6.548  14.905  0.00  0.00    +0.000 C 
BRANCH   8   9
ATOM      9  C   UNL     1      38.465   6.537  15.966  0.00  0.00    +0.000 A 
ATOM     10  N   UNL     1      38.150   6.414  17.294  0.00  0.00    +0.000 NA
ATOM     11  C   UNL     1      39.256   6.406  18.046  0.00  0.00    +0.000 A 
ATOM     12  C   UNL     1      39.470   6.301  19.430  0.00  0.00    +0.000 A 
ATOM     13  C   UNL     1      40.743   6.318  19.951  0.00  0.00    +0.000 A 
ATOM     14  C   UNL     1      41.800   6.440  19.079  0.00  0.00    +0.000 A 
ATOM     15  C   UNL     1      41.594   6.543  17.719  0.00  0.00    +0.000 A 
ATOM     16  C   UNL     1      40.324   6.527  17.190  0.00  0.00    +0.000 A 
ATOM     17  N   UNL     1      39.784   6.601  15.964  0.00  0.00    +0.000 NA
ENDBRANCH   8   9
BRANCH   8  18
ATOM     18  C   UNL     1      36.813   7.804  14.562  0.00  0.00    +0.000 C 
ATOM     19  N   UNL     1      36.291   8.794  14.279  0.00  0.00    +0.000 NA
ENDBRANCH   8  18
ENDBRANCH   3   7
BRANCH   1  20
ATOM     20  O   UNL     1      37.057   0.910  16.134  0.00  0.00    +0.000 OA
BRANCH  20  22
ATOM     21  C   UNL     1      34.971  -0.046  16.897  0.00  0.00    +0.000 C 
ATOM     22  C   UNL     1      35.865   0.262  15.724  0.00  0.00    +0.000 C 
ENDBRANCH  20  22
ENDBRANCH   1  20
BRANCH   6  23
ATOM     23  O   UNL     1      39.442   0.375  15.009  0.00  0.00    +0.000 OA
BRANCH  23  24
ATOM     24  C   UNL     1      39.499  -0.692  14.147  0.00  0.00    +0.000 C 
BRANCH  24  25
ATOM     25  C   UNL     1      38.659  -1.805  14.634  0.00  0.00    +0.000 A 
ATOM     26  C   UNL     1      37.768  -2.472  13.788  0.00  0.00    +0.000 A 
ATOM     27  C   UNL     1      37.004  -3.520  14.271  0.00  0.00    +0.000 A 
ATOM     28  C   UNL     1      37.083  -3.945  15.577  0.00  0.00    +0.000 A 
ATOM     29  C   UNL     1      36.293  -5.058  16.128  0.00  0.00    +0.000 C 
ATOM     30  C   UNL     1      37.964  -3.294  16.435  0.00  0.00    +0.000 A 
ATOM     31  C   UNL     1      38.728  -2.238  15.929  0.00  0.00    +0.000 A 
ENDBRANCH  24  25
ENDBRANCH  23  24
ENDBRANCH   6  23
TORSDOF 8
ENDMDL
MODEL 10
REMARK VINA RESULT:      -6.4      3.947      7.245
REMARK  Name = 
REMARK  8 active torsions:
REMARK  status: ('A' for Active; 'I' for Inactive)
REMARK    1  A    between atoms: C_2  and  O_3
REMARK    2  A    between atoms: O_3  and  C_4
REMARK    3  A    between atoms: C_6  and  C_7
REMARK    4  A    between atoms: C_8  and  C_9
REMARK    5  A    between atoms: C_8  and  C_11
REMARK    6  A    between atoms: C_22  and  O_23
REMARK    7  A    between atoms: O_23  and  C_24
REMARK    8  A    between atoms: C_24  and  C_25
REMARK                            x       y       z     vdW  Elec       q    Type
REMARK                         _______ _______ _______ _____ _____    ______ ____
ROOT
ATOM      1  C   UNL     1      38.304   2.343  14.978  0.00  0.00    +0.000 A 
ATOM      2  C   UNL     1      38.385   3.625  14.482  0.00  0.00    +0.000 A 
ATOM      3  C   UNL     1      37.348   4.529  14.491  0.00  0.00    +0.000 A 
ATOM      4  C   UNL     1      36.154   4.050  15.061  0.00  0.00    +0.000 A 
ATOM      5  C   UNL     1      36.058   2.760  15.565  0.00  0.00    +0.000 A 
ATOM      6  C   UNL     1      37.109   1.889  15.538  0.00  0.00    +0.000 A 
ENDROOT
BRANCH   3   7
ATOM      7  C   UNL     1      37.390   5.867  13.993  0.00  0.00    +0.000 C 
ATOM      8  C   UNL     1      37.991   6.849  14.557  0.00  0.00    +0.000 C 
BRANCH   8   9
ATOM      9  C   UNL     1      38.669   6.718  15.833  0.00  0.00    +0.000 A 
ATOM     10  N   UNL     1      40.032   6.658  15.964  0.00  0.00    +0.000 NA
ATOM     11  C   UNL     1      40.382   6.566  17.251  0.00  0.00    +0.000 A 
ATOM     12  C   UNL     1      41.625   6.483  17.901  0.00  0.00    +0.000 A 
ATOM     13  C   UNL     1      41.702   6.398  19.271  0.00  0.00    +0.000 A 
ATOM     14  C   UNL     1      40.527   6.399  19.989  0.00  0.00    +0.000 A 
ATOM     15  C   UNL     1      39.305   6.482  19.355  0.00  0.00    +0.000 A 
ATOM     16  C   UNL     1      39.220   6.566  17.985  0.00  0.00    +0.000 A 
ATOM     17  N   UNL     1      38.235   6.659  17.079  0.00  0.00    +0.000 NA
ENDBRANCH   8   9
BRANCH   8  18
ATOM     18  C   UNL     1      37.942   8.157  13.909  0.00  0.00    +0.000 C 
ATOM     19  N   UNL     1      37.891   9.192  13.399  0.00  0.00    +0.000 NA
ENDBRANCH   8  18
ENDBRANCH   3   7
BRANCH   1  20
ATOM     20  O   UNL     1      39.365   1.450  14.956  0.00  0.00    +0.000 OA
BRANCH  20  22
ATOM     21  C   UNL     1      41.205   0.199  14.007  0.00  0.00    +0.000 C 
ATOM     22  C   UNL     1      40.321   1.415  13.908  0.00  0.00    +0.000 C 
ENDBRANCH  20  22
ENDBRANCH   1  20
BRANCH   6  23
ATOM     23  O   UNL     1      37.050   0.599  16.029  0.00  0.00    +0.000 OA
BRANCH  23  24
ATOM     24  C   UNL     1      36.245   0.076  17.010  0.00  0.00    +0.000 C 
BRANCH  24  25
ATOM     25  C   UNL     1      36.961  -0.965  17.775  0.00  0.00    +0.000 A 
ATOM     26  C   UNL     1      36.723  -1.164  19.138  0.00  0.00    +0.000 A 
ATOM     27  C   UNL     1      37.399  -2.157  19.824  0.00  0.00    +0.000 A 
ATOM     28  C   UNL     1      38.319  -2.977  19.211  0.00  0.00    +0.000 A 
ATOM     29  C   UNL     1      39.056  -4.047  19.903  0.00  0.00    +0.000 C 
ATOM     30  C   UNL     1      38.570  -2.795  17.855  0.00  0.00    +0.000 A 
ATOM     31  C   UNL     1      37.876  -1.787  17.177  0.00  0.00    +0.000 A 
ENDBRANCH  24  25
ENDBRANCH  23  24
ENDBRANCH   6  23
TORSDOF 8
ENDMDL
