MODEL 1
REMARK VINA RESULT:      -8.3      0.000      0.000
REMARK  Name = 
REMARK  8 active torsions:
REMARK  status: ('A' for Active; 'I' for Inactive)
REMARK    1  A    between atoms: C_2  and  N_3
REMARK    2  A    between atoms: C_4  and  S_5
REMARK    3  A    between atoms: S_5  and  C_6
REMARK    4  A    between atoms: C_6  and  C_7
REMARK    5  A    between atoms: C_7  and  C_9
REMARK    6  A    between atoms: C_9  and  N_10
REMARK    7  A    between atoms: C_25  and  C_26
REMARK    8  A    between atoms: C_29  and  O_30
REMARK                            x       y       z     vdW  Elec       q    Type
REMARK                         _______ _______ _______ _____ _____    ______ ____
ROOT
ATOM      1  C   UNL     1      38.558   2.393  12.997  0.00  0.00    +0.000 C 
ENDROOT
BRANCH   1   2
ATOM      2  C   UNL     1      39.413   1.065  13.421  0.00  0.00    +0.000 C 
ATOM      3  O   UNL     1      39.820   0.792  11.971  0.00  0.00    +0.000 OA
BRANCH   2   4
ATOM      4  C   UNL     1      38.125   0.068  13.380  0.00  0.00    +0.000 C 
BRANCH   4   5
ATOM      5  N   UNL     1      37.727  -0.322  14.658  0.00  0.00    +0.000 N 
ATOM      6  C   UNL     1      38.278  -1.327  15.372  0.00  0.00    +0.000 A 
ATOM      7  C   UNL     1      39.295  -2.186  15.063  0.00  0.00    +0.000 A 
ATOM      8  C   UNL     1      39.690  -3.141  15.958  0.00  0.00    +0.000 A 
ATOM      9  C   UNL     1      39.056  -3.230  17.171  0.00  0.00    +0.000 A 
ATOM     10  C   UNL     1      38.043  -2.373  17.475  0.00  0.00    +0.000 A 
ATOM     11  C   UNL     1      37.637  -1.407  16.583  0.00  0.00    +0.000 A 
ATOM     12  C   UNL     1      36.677  -0.442  16.622  0.00  0.00    +0.000 A 
ATOM     13  C   UNL     1      35.763  -0.080  17.578  0.00  0.00    +0.000 A 
ATOM     14  C   UNL     1      34.903   0.964  17.330  0.00  0.00    +0.000 A 
ATOM     15  C   UNL     1      34.943   1.657  16.130  0.00  0.00    +0.000 A 
ATOM     16  C   UNL     1      35.863   1.267  15.211  0.00  0.00    +0.000 A 
ATOM     17  C   UNL     1      36.756   0.226  15.400  0.00  0.00    +0.000 A 
ENDBRANCH   4   5
ENDBRANCH   2   4
ENDBRANCH   1   2
BRANCH   1  18
ATOM     18  S   UNL     1      39.571   3.799  13.586  0.00  0.00    +0.000 S 
BRANCH  18  20
ATOM     19  N   UNL     1      39.390   5.215  15.935  0.00  0.00    +0.000 N 
ATOM     20  C   UNL     1      39.107   4.082  15.283  0.00  0.00    +0.000 A 
ATOM     21  N   UNL     1      38.455   3.315  16.169  0.00  0.00    +0.000 NA
ATOM     22  N   UNL     1      38.330   3.938  17.333  0.00  0.00    +0.000 NA
ATOM     23  C   UNL     1      38.914   5.130  17.194  0.00  0.00    +0.000 A 
BRANCH  23  24
ATOM     24  C   UNL     1      38.991   6.124  18.258  0.00  0.00    +0.000 A 
ATOM     25  C   UNL     1      38.092   7.169  18.219  0.00  0.00    +0.000 A 
ATOM     26  C   UNL     1      38.117   8.137  19.195  0.00  0.00    +0.000 A 
ATOM     27  C   UNL     1      39.038   8.096  20.241  0.00  0.00    +0.000 A 
ATOM     28  C   UNL     1      39.912   7.062  20.262  0.00  0.00    +0.000 A 
ATOM     29  C   UNL     1      39.890   6.081  19.277  0.00  0.00    +0.000 A 
BRANCH  27  30
ATOM     30  O   UNL     1      38.929   9.126  21.120  0.00  0.00    +0.000 OA
ATOM     31  C   UNL     1      38.312  10.334  21.032  0.00  0.00    +0.000 C 
ENDBRANCH  27  30
ENDBRANCH  23  24
BRANCH  19  33
ATOM     32  C   UNL     1      41.561   6.231  15.770  0.00  0.00    +0.000 C 
ATOM     33  C   UNL     1      40.086   6.396  15.456  0.00  0.00    +0.000 C 
ENDBRANCH  19  33
ENDBRANCH  18  20
ENDBRANCH   1  18
TORSDOF 8
ENDMDL
MODEL 2
REMARK VINA RESULT:      -8.2      1.592      3.257
REMARK  Name = 
REMARK  8 active torsions:
REMARK  status: ('A' for Active; 'I' for Inactive)
REMARK    1  A    between atoms: C_2  and  N_3
REMARK    2  A    between atoms: C_4  and  S_5
REMARK    3  A    between atoms: S_5  and  C_6
REMARK    4  A    between atoms: C_6  and  C_7
REMARK    5  A    between atoms: C_7  and  C_9
REMARK    6  A    between atoms: C_9  and  N_10
REMARK    7  A    between atoms: C_25  and  C_26
REMARK    8  A    between atoms: C_29  and  O_30
REMARK                            x       y       z     vdW  Elec       q    Type
REMARK                         _______ _______ _______ _____ _____    ______ ____
ROOT
ATOM      1  C   UNL     1      37.793   3.526  13.395  0.00  0.00    +0.000 C 
ENDROOT
BRANCH   1   2
ATOM      2  C   UNL     1      38.673   2.405  14.197  0.00  0.00    +0.000 C 
ATOM      3  O   UNL     1      39.561   2.144  12.978  0.00  0.00    +0.000 OA
BRANCH   2   4
ATOM      4  C   UNL     1      37.648   1.182  13.870  0.00  0.00    +0.000 C 
BRANCH   4   5
ATOM      5  N   UNL     1      37.660   0.210  14.869  0.00  0.00    +0.000 N 
ATOM      6  C   UNL     1      36.741   0.092  15.851  0.00  0.00    +0.000 A 
ATOM      7  C   UNL     1      35.632   0.840  16.129  0.00  0.00    +0.000 A 
ATOM      8  C   UNL     1      34.835   0.527  17.194  0.00  0.00    +0.000 A 
ATOM      9  C   UNL     1      35.158  -0.546  17.985  0.00  0.00    +0.000 A 
ATOM     10  C   UNL     1      36.264  -1.290  17.705  0.00  0.00    +0.000 A 
ATOM     11  C   UNL     1      37.074  -0.986  16.635  0.00  0.00    +0.000 A 
ATOM     12  C   UNL     1      38.212  -1.542  16.135  0.00  0.00    +0.000 A 
ATOM     13  C   UNL     1      38.965  -2.620  16.521  0.00  0.00    +0.000 A 
ATOM     14  C   UNL     1      40.088  -2.953  15.800  0.00  0.00    +0.000 A 
ATOM     15  C   UNL     1      40.473  -2.217  14.691  0.00  0.00    +0.000 A 
ATOM     16  C   UNL     1      39.699  -1.158  14.342  0.00  0.00    +0.000 A 
ATOM     17  C   UNL     1      38.558  -0.771  15.025  0.00  0.00    +0.000 A 
ENDBRANCH   4   5
ENDBRANCH   2   4
ENDBRANCH   1   2
BRANCH   1  18
ATOM     18  S   UNL     1      36.579   4.125  14.627  0.00  0.00    +0.000 S 
BRANCH  18  20
ATOM     19  N   UNL     1      38.304   5.254  16.444  0.00  0.00    +0.000 N 
ATOM     20  C   UNL     1      37.453   4.259  16.175  0.00  0.00    +0.000 A 
ATOM     21  N   UNL     1      37.449   3.487  17.270  0.00  0.00    +0.000 NA
ATOM     22  N   UNL     1      38.264   3.973  18.196  0.00  0.00    +0.000 NA
ATOM     23  C   UNL     1      38.804   5.082  17.685  0.00  0.00    +0.000 A 
BRANCH  23  24
ATOM     24  C   UNL     1      39.763   5.919  18.397  0.00  0.00    +0.000 A 
ATOM     25  C   UNL     1      39.338   6.529  19.558  0.00  0.00    +0.000 A 
ATOM     26  C   UNL     1      40.197   7.330  20.271  0.00  0.00    +0.000 A 
ATOM     27  C   UNL     1      41.509   7.549  19.852  0.00  0.00    +0.000 A 
ATOM     28  C   UNL     1      41.908   6.941  18.711  0.00  0.00    +0.000 A 
ATOM     29  C   UNL     1      41.041   6.130  17.986  0.00  0.00    +0.000 A 
BRANCH  27  30
ATOM     30  O   UNL     1      42.226   8.364  20.668  0.00  0.00    +0.000 OA
ATOM     31  C   UNL     1      43.557   8.634  20.742  0.00  0.00    +0.000 C 
ENDBRANCH  27  30
ENDBRANCH  23  24
BRANCH  19  33
ATOM     32  C   UNL     1      37.658   7.474  15.791  0.00  0.00    +0.000 C 
ATOM     33  C   UNL     1      38.692   6.378  15.611  0.00  0.00    +0.000 C 
ENDBRANCH  19  33
ENDBRANCH  18  20
ENDBRANCH   1  18
TORSDOF 8
ENDMDL
MODEL 3
REMARK VINA RESULT:      -8.1      1.623      2.116
REMARK  Name = 
REMARK  8 active torsions:
REMARK  status: ('A' for Active; 'I' for Inactive)
REMARK    1  A    between atoms: C_2  and  N_3
REMARK    2  A    between atoms: C_4  and  S_5
REMARK    3  A    between atoms: S_5  and  C_6
REMARK    4  A    between atoms: C_6  and  C_7
REMARK    5  A    between atoms: C_7  and  C_9
REMARK    6  A    between atoms: C_9  and  N_10
REMARK    7  A    between atoms: C_25  and  C_26
REMARK    8  A    between atoms: C_29  and  O_30
REMARK                            x       y       z     vdW  Elec       q    Type
REMARK                         _______ _______ _______ _____ _____    ______ ____
ROOT
ATOM      1  C   UNL     1      37.642   3.707  13.342  0.00  0.00    +0.000 C 
ENDROOT
BRANCH   1   2
ATOM      2  C   UNL     1      38.609   2.623  14.092  0.00  0.00    +0.000 C 
ATOM      3  O   UNL     1      39.565   2.560  12.898  0.00  0.00    +0.000 OA
BRANCH   2   4
ATOM      4  C   UNL     1      37.736   1.330  13.623  0.00  0.00    +0.000 C 
BRANCH   4   5
ATOM      5  N   UNL     1      37.719   0.331  14.596  0.00  0.00    +0.000 N 
ATOM      6  C   UNL     1      38.658  -0.629  14.742  0.00  0.00    +0.000 A 
ATOM      7  C   UNL     1      39.795  -0.880  14.027  0.00  0.00    +0.000 A 
ATOM      8  C   UNL     1      40.607  -1.925  14.364  0.00  0.00    +0.000 A 
ATOM      9  C   UNL     1      40.272  -2.723  15.428  0.00  0.00    +0.000 A 
ATOM     10  C   UNL     1      39.139  -2.470  16.139  0.00  0.00    +0.000 A 
ATOM     11  C   UNL     1      38.312  -1.420  15.810  0.00  0.00    +0.000 A 
ATOM     12  C   UNL     1      37.147  -0.947  16.332  0.00  0.00    +0.000 A 
ATOM     13  C   UNL     1      36.372  -1.351  17.388  0.00  0.00    +0.000 A 
ATOM     14  C   UNL     1      35.223  -0.658  17.687  0.00  0.00    +0.000 A 
ATOM     15  C   UNL     1      34.833   0.442  16.940  0.00  0.00    +0.000 A 
ATOM     16  C   UNL     1      35.629   0.809  15.903  0.00  0.00    +0.000 A 
ATOM     17  C   UNL     1      36.797   0.154  15.551  0.00  0.00    +0.000 A 
ENDBRANCH   4   5
ENDBRANCH   2   4
ENDBRANCH   1   2
BRANCH   1  18
ATOM     18  S   UNL     1      36.467   4.247  14.636  0.00  0.00    +0.000 S 
BRANCH  18  20
ATOM     19  N   UNL     1      38.235   5.319  16.447  0.00  0.00    +0.000 N 
ATOM     20  C   UNL     1      37.390   4.324  16.159  0.00  0.00    +0.000 A 
ATOM     21  N   UNL     1      37.434   3.502  17.217  0.00  0.00    +0.000 NA
ATOM     22  N   UNL     1      38.273   3.959  18.137  0.00  0.00    +0.000 NA
ATOM     23  C   UNL     1      38.779   5.098  17.661  0.00  0.00    +0.000 A 
BRANCH  23  24
ATOM     24  C   UNL     1      39.749   5.917  18.379  0.00  0.00    +0.000 A 
ATOM     25  C   UNL     1      39.338   6.506  19.556  0.00  0.00    +0.000 A 
ATOM     26  C   UNL     1      40.208   7.289  20.276  0.00  0.00    +0.000 A 
ATOM     27  C   UNL     1      41.517   7.511  19.847  0.00  0.00    +0.000 A 
ATOM     28  C   UNL     1      41.901   6.923  18.690  0.00  0.00    +0.000 A 
ATOM     29  C   UNL     1      41.024   6.131  17.959  0.00  0.00    +0.000 A 
BRANCH  27  30
ATOM     30  O   UNL     1      42.246   8.307  20.672  0.00  0.00    +0.000 OA
ATOM     31  C   UNL     1      43.462   8.137  21.258  0.00  0.00    +0.000 C 
ENDBRANCH  27  30
ENDBRANCH  23  24
BRANCH  19  33
ATOM     32  C   UNL     1      37.629   7.607  16.036  0.00  0.00    +0.000 C 
ATOM     33  C   UNL     1      38.577   6.487  15.654  0.00  0.00    +0.000 C 
ENDBRANCH  19  33
ENDBRANCH  18  20
ENDBRANCH   1  18
TORSDOF 8
ENDMDL
MODEL 4
REMARK VINA RESULT:      -7.9      2.075      2.942
REMARK  Name = 
REMARK  8 active torsions:
REMARK  status: ('A' for Active; 'I' for Inactive)
REMARK    1  A    between atoms: C_2  and  N_3
REMARK    2  A    between atoms: C_4  and  S_5
REMARK    3  A    between atoms: S_5  and  C_6
REMARK    4  A    between atoms: C_6  and  C_7
REMARK    5  A    between atoms: C_7  and  C_9
REMARK    6  A    between atoms: C_9  and  N_10
REMARK    7  A    between atoms: C_25  and  C_26
REMARK    8  A    between atoms: C_29  and  O_30
REMARK                            x       y       z     vdW  Elec       q    Type
REMARK                         _______ _______ _______ _____ _____    ______ ____
ROOT
ATOM      1  C   UNL     1      37.622   2.615  13.766  0.00  0.00    +0.000 C 
ENDROOT
BRANCH   1   2
ATOM      2  C   UNL     1      36.739   1.239  13.790  0.00  0.00    +0.000 C 
ATOM      3  O   UNL     1      35.497   1.975  14.300  0.00  0.00    +0.000 OA
BRANCH   2   4
ATOM      4  C   UNL     1      37.240   0.794  15.274  0.00  0.00    +0.000 C 
BRANCH   4   5
ATOM      5  N   UNL     1      37.712  -0.518  15.293  0.00  0.00    +0.000 N 
ATOM      6  C   UNL     1      38.975  -0.895  15.001  0.00  0.00    +0.000 A 
ATOM      7  C   UNL     1      40.061  -0.157  14.623  0.00  0.00    +0.000 A 
ATOM      8  C   UNL     1      41.260  -0.765  14.376  0.00  0.00    +0.000 A 
ATOM      9  C   UNL     1      41.364  -2.126  14.511  0.00  0.00    +0.000 A 
ATOM     10  C   UNL     1      40.281  -2.859  14.889  0.00  0.00    +0.000 A 
ATOM     11  C   UNL     1      39.069  -2.258  15.141  0.00  0.00    +0.000 A 
ATOM     12  C   UNL     1      37.851  -2.733  15.523  0.00  0.00    +0.000 A 
ATOM     13  C   UNL     1      37.391  -3.994  15.800  0.00  0.00    +0.000 A 
ATOM     14  C   UNL     1      36.080  -4.169  16.175  0.00  0.00    +0.000 A 
ATOM     15  C   UNL     1      35.213  -3.092  16.277  0.00  0.00    +0.000 A 
ATOM     16  C   UNL     1      35.708  -1.860  15.994  0.00  0.00    +0.000 A 
ATOM     17  C   UNL     1      37.017  -1.618  15.611  0.00  0.00    +0.000 A 
ENDBRANCH   4   5
ENDBRANCH   2   4
ENDBRANCH   1   2
BRANCH   1  18
ATOM     18  S   UNL     1      36.621   3.821  14.710  0.00  0.00    +0.000 S 
BRANCH  18  20
ATOM     19  N   UNL     1      38.320   5.079  16.466  0.00  0.00    +0.000 N 
ATOM     20  C   UNL     1      37.463   4.074  16.260  0.00  0.00    +0.000 A 
ATOM     21  N   UNL     1      37.426   3.396  17.415  0.00  0.00    +0.000 NA
ATOM     22  N   UNL     1      38.227   3.949  18.316  0.00  0.00    +0.000 NA
ATOM     23  C   UNL     1      38.791   5.005  17.728  0.00  0.00    +0.000 A 
BRANCH  23  24
ATOM     24  C   UNL     1      39.745   5.888  18.389  0.00  0.00    +0.000 A 
ATOM     25  C   UNL     1      39.338   6.511  19.550  0.00  0.00    +0.000 A 
ATOM     26  C   UNL     1      40.193   7.355  20.217  0.00  0.00    +0.000 A 
ATOM     27  C   UNL     1      41.484   7.606  19.750  0.00  0.00    +0.000 A 
ATOM     28  C   UNL     1      41.865   6.985  18.609  0.00  0.00    +0.000 A 
ATOM     29  C   UNL     1      41.002   6.131  17.931  0.00  0.00    +0.000 A 
BRANCH  27  30
ATOM     30  O   UNL     1      42.200   8.462  20.524  0.00  0.00    +0.000 OA
ATOM     31  C   UNL     1      43.508   8.473  20.896  0.00  0.00    +0.000 C 
ENDBRANCH  27  30
ENDBRANCH  23  24
BRANCH  19  33
ATOM     32  C   UNL     1      37.800   7.305  15.725  0.00  0.00    +0.000 C 
ATOM     33  C   UNL     1      38.739   6.126  15.551  0.00  0.00    +0.000 C 
ENDBRANCH  19  33
ENDBRANCH  18  20
ENDBRANCH   1  18
TORSDOF 8
ENDMDL
MODEL 5
REMARK VINA RESULT:      -7.6      3.228      4.953
REMARK  Name = 
REMARK  8 active torsions:
REMARK  status: ('A' for Active; 'I' for Inactive)
REMARK    1  A    between atoms: C_2  and  N_3
REMARK    2  A    between atoms: C_4  and  S_5
REMARK    3  A    between atoms: S_5  and  C_6
REMARK    4  A    between atoms: C_6  and  C_7
REMARK    5  A    between atoms: C_7  and  C_9
REMARK    6  A    between atoms: C_9  and  N_10
REMARK    7  A    between atoms: C_25  and  C_26
REMARK    8  A    between atoms: C_29  and  O_30
REMARK                            x       y       z     vdW  Elec       q    Type
REMARK                         _______ _______ _______ _____ _____    ______ ____
ROOT
ATOM      1  C   UNL     1      39.887  -0.484  13.568  0.00  0.00    +0.000 C 
ENDROOT
BRANCH   1   2
ATOM      2  C   UNL     1      39.942  -1.458  14.880  0.00  0.00    +0.000 C 
ATOM      3  O   UNL     1      40.343  -2.671  14.038  0.00  0.00    +0.000 OA
BRANCH   2   4
ATOM      4  C   UNL     1      38.351  -1.802  14.849  0.00  0.00    +0.000 C 
BRANCH   4   5
ATOM      5  N   UNL     1      37.703  -1.386  16.012  0.00  0.00    +0.000 N 
ATOM      6  C   UNL     1      36.788  -0.396  16.081  0.00  0.00    +0.000 A 
ATOM      7  C   UNL     1      36.283   0.421  15.109  0.00  0.00    +0.000 A 
ATOM      8  C   UNL     1      35.348   1.368  15.418  0.00  0.00    +0.000 A 
ATOM      9  C   UNL     1      34.918   1.492  16.715  0.00  0.00    +0.000 A 
ATOM     10  C   UNL     1      35.422   0.676  17.681  0.00  0.00    +0.000 A 
ATOM     11  C   UNL     1      36.364  -0.282  17.382  0.00  0.00    +0.000 A 
ATOM     12  C   UNL     1      37.024  -1.210  18.129  0.00  0.00    +0.000 A 
ATOM     13  C   UNL     1      36.982  -1.530  19.462  0.00  0.00    +0.000 A 
ATOM     14  C   UNL     1      37.780  -2.543  19.939  0.00  0.00    +0.000 A 
ATOM     15  C   UNL     1      38.626  -3.247  19.098  0.00  0.00    +0.000 A 
ATOM     16  C   UNL     1      38.637  -2.900  17.785  0.00  0.00    +0.000 A 
ATOM     17  C   UNL     1      37.859  -1.891  17.243  0.00  0.00    +0.000 A 
ENDBRANCH   4   5
ENDBRANCH   2   4
ENDBRANCH   1   2
BRANCH   1  18
ATOM     18  S   UNL     1      40.092   1.206  14.239  0.00  0.00    +0.000 S 
BRANCH  18  20
ATOM     19  N   UNL     1      38.217   3.207  14.055  0.00  0.00    +0.000 N 
ATOM     20  C   UNL     1      38.874   2.224  13.429  0.00  0.00    +0.000 A 
ATOM     21  N   UNL     1      38.407   2.226  12.173  0.00  0.00    +0.000 NA
ATOM     22  N   UNL     1      37.492   3.172  12.009  0.00  0.00    +0.000 NA
ATOM     23  C   UNL     1      37.368   3.791  13.185  0.00  0.00    +0.000 A 
BRANCH  23  24
ATOM     24  C   UNL     1      36.453   4.902  13.424  0.00  0.00    +0.000 A 
ATOM     25  C   UNL     1      36.866   6.161  13.043  0.00  0.00    +0.000 A 
ATOM     26  C   UNL     1      36.048   7.246  13.244  0.00  0.00    +0.000 A 
ATOM     27  C   UNL     1      34.789   7.113  13.830  0.00  0.00    +0.000 A 
ATOM     28  C   UNL     1      34.401   5.869  14.197  0.00  0.00    +0.000 A 
ATOM     29  C   UNL     1      35.227   4.769  13.996  0.00  0.00    +0.000 A 
BRANCH  27  30
ATOM     30  O   UNL     1      34.107   8.281  13.956  0.00  0.00    +0.000 OA
ATOM     31  C   UNL     1      33.833   9.061  15.036  0.00  0.00    +0.000 C 
ENDBRANCH  27  30
ENDBRANCH  23  24
BRANCH  19  33
ATOM     32  C   UNL     1      39.376   4.746  15.491  0.00  0.00    +0.000 C 
ATOM     33  C   UNL     1      38.329   3.649  15.433  0.00  0.00    +0.000 C 
ENDBRANCH  19  33
ENDBRANCH  18  20
ENDBRANCH   1  18
TORSDOF 8
ENDMDL
MODEL 6
REMARK VINA RESULT:      -7.4      1.902      3.729
REMARK  Name = 
REMARK  8 active torsions:
REMARK  status: ('A' for Active; 'I' for Inactive)
REMARK    1  A    between atoms: C_2  and  N_3
REMARK    2  A    between atoms: C_4  and  S_5
REMARK    3  A    between atoms: S_5  and  C_6
REMARK    4  A    between atoms: C_6  and  C_7
REMARK    5  A    between atoms: C_7  and  C_9
REMARK    6  A    between atoms: C_9  and  N_10
REMARK    7  A    between atoms: C_25  and  C_26
REMARK    8  A    between atoms: C_29  and  O_30
REMARK                            x       y       z     vdW  Elec       q    Type
REMARK                         _______ _______ _______ _____ _____    ______ ____
ROOT
ATOM      1  C   UNL     1      37.328   1.864  10.844  0.00  0.00    +0.000 C 
ENDROOT
BRANCH   1   2
ATOM      2  C   UNL     1      38.394   1.059  11.787  0.00  0.00    +0.000 C 
ATOM      3  O   UNL     1      38.874   0.200  10.614  0.00  0.00    +0.000 OA
BRANCH   2   4
ATOM      4  C   UNL     1      37.303  -0.033  12.306  0.00  0.00    +0.000 C 
BRANCH   4   5
ATOM      5  N   UNL     1      37.304  -0.151  13.696  0.00  0.00    +0.000 N 
ATOM      6  C   UNL     1      36.573   0.605  14.542  0.00  0.00    +0.000 A 
ATOM      7  C   UNL     1      35.701   1.628  14.296  0.00  0.00    +0.000 A 
ATOM      8  C   UNL     1      35.064   2.258  15.328  0.00  0.00    +0.000 A 
ATOM      9  C   UNL     1      35.307   1.854  16.616  0.00  0.00    +0.000 A 
ATOM     10  C   UNL     1      36.176   0.834  16.858  0.00  0.00    +0.000 A 
ATOM     11  C   UNL     1      36.823   0.192  15.827  0.00  0.00    +0.000 A 
ATOM     12  C   UNL     1      37.720  -0.832  15.779  0.00  0.00    +0.000 A 
ATOM     13  C   UNL     1      38.304  -1.600  16.752  0.00  0.00    +0.000 A 
ATOM     14  C   UNL     1      39.191  -2.588  16.392  0.00  0.00    +0.000 A 
ATOM     15  C   UNL     1      39.506  -2.819  15.063  0.00  0.00    +0.000 A 
ATOM     16  C   UNL     1      38.906  -2.036  14.130  0.00  0.00    +0.000 A 
ATOM     17  C   UNL     1      38.005  -1.027  14.427  0.00  0.00    +0.000 A 
ENDBRANCH   4   5
ENDBRANCH   2   4
ENDBRANCH   1   2
BRANCH   1  18
ATOM     18  S   UNL     1      37.940   3.589  10.827  0.00  0.00    +0.000 S 
BRANCH  18  20
ATOM     19  N   UNL     1      38.244   4.494  13.404  0.00  0.00    +0.000 N 
ATOM     20  C   UNL     1      37.420   4.325  12.364  0.00  0.00    +0.000 A 
ATOM     21  N   UNL     1      36.237   4.810  12.765  0.00  0.00    +0.000 NA
ATOM     22  N   UNL     1      36.308   5.267  14.008  0.00  0.00    +0.000 NA
ATOM     23  C   UNL     1      37.564   5.072  14.416  0.00  0.00    +0.000 A 
BRANCH  23  24
ATOM     24  C   UNL     1      38.054   5.443  15.738  0.00  0.00    +0.000 A 
ATOM     25  C   UNL     1      38.015   4.481  16.725  0.00  0.00    +0.000 A 
ATOM     26  C   UNL     1      38.462   4.773  17.991  0.00  0.00    +0.000 A 
ATOM     27  C   UNL     1      38.966   6.033  18.316  0.00  0.00    +0.000 A 
ATOM     28  C   UNL     1      38.997   6.963  17.333  0.00  0.00    +0.000 A 
ATOM     29  C   UNL     1      38.544   6.672  16.051  0.00  0.00    +0.000 A 
BRANCH  27  30
ATOM     30  O   UNL     1      39.366   6.156  19.608  0.00  0.00    +0.000 OA
ATOM     31  C   UNL     1      40.105   7.105  20.243  0.00  0.00    +0.000 C 
ENDBRANCH  27  30
ENDBRANCH  23  24
BRANCH  19  33
ATOM     32  C   UNL     1      39.742   2.783  14.179  0.00  0.00    +0.000 C 
ATOM     33  C   UNL     1      39.649   4.148  13.524  0.00  0.00    +0.000 C 
ENDBRANCH  19  33
ENDBRANCH  18  20
ENDBRANCH   1  18
TORSDOF 8
ENDMDL
MODEL 7
REMARK VINA RESULT:      -7.4     25.334     28.456
REMARK  Name = 
REMARK  8 active torsions:
REMARK  status: ('A' for Active; 'I' for Inactive)
REMARK    1  A    between atoms: C_2  and  N_3
REMARK    2  A    between atoms: C_4  and  S_5
REMARK    3  A    between atoms: S_5  and  C_6
REMARK    4  A    between atoms: C_6  and  C_7
REMARK    5  A    between atoms: C_7  and  C_9
REMARK    6  A    between atoms: C_9  and  N_10
REMARK    7  A    between atoms: C_25  and  C_26
REMARK    8  A    between atoms: C_29  and  O_30
REMARK                            x       y       z     vdW  Elec       q    Type
REMARK                         _______ _______ _______ _____ _____    ______ ____
ROOT
ATOM      1  C   UNL     1      26.485  18.325  38.457  0.00  0.00    +0.000 C 
ENDROOT
BRANCH   1   2
ATOM      2  C   UNL     1      26.657  18.651  36.865  0.00  0.00    +0.000 C 
ATOM      3  O   UNL     1      26.439  20.150  37.088  0.00  0.00    +0.000 OA
BRANCH   2   4
ATOM      4  C   UNL     1      25.098  18.348  36.504  0.00  0.00    +0.000 C 
BRANCH   4   5
ATOM      5  N   UNL     1      24.928  18.020  35.160  0.00  0.00    +0.000 N 
ATOM      6  C   UNL     1      25.205  16.818  34.611  0.00  0.00    +0.000 A 
ATOM      7  C   UNL     1      25.703  15.676  35.171  0.00  0.00    +0.000 A 
ATOM      8  C   UNL     1      25.905  14.561  34.407  0.00  0.00    +0.000 A 
ATOM      9  C   UNL     1      25.603  14.598  33.069  0.00  0.00    +0.000 A 
ATOM     10  C   UNL     1      25.107  15.738  32.514  0.00  0.00    +0.000 A 
ATOM     11  C   UNL     1      24.898  16.867  33.273  0.00  0.00    +0.000 A 
ATOM     12  C   UNL     1      24.426  18.112  32.988  0.00  0.00    +0.000 A 
ATOM     13  C   UNL     1      23.980  18.693  31.830  0.00  0.00    +0.000 A 
ATOM     14  C   UNL     1      23.550  19.998  31.850  0.00  0.00    +0.000 A 
ATOM     15  C   UNL     1      23.560  20.739  33.022  0.00  0.00    +0.000 A 
ATOM     16  C   UNL     1      24.009  20.126  34.147  0.00  0.00    +0.000 A 
ATOM     17  C   UNL     1      24.455  18.816  34.192  0.00  0.00    +0.000 A 
ENDBRANCH   4   5
ENDBRANCH   2   4
ENDBRANCH   1   2
BRANCH   1  18
ATOM     18  S   UNL     1      27.708  17.005  38.791  0.00  0.00    +0.000 S 
BRANCH  18  20
ATOM     19  N   UNL     1      27.205  14.646  40.108  0.00  0.00    +0.000 N 
ATOM     20  C   UNL     1      26.777  15.547  39.216  0.00  0.00    +0.000 A 
ATOM     21  N   UNL     1      25.592  15.089  38.788  0.00  0.00    +0.000 NA
ATOM     22  N   UNL     1      25.282  13.946  39.384  0.00  0.00    +0.000 NA
ATOM     23  C   UNL     1      26.288  13.661  40.213  0.00  0.00    +0.000 A 
BRANCH  23  24
ATOM     24  C   UNL     1      26.330  12.475  41.061  0.00  0.00    +0.000 A 
ATOM     25  C   UNL     1      26.982  11.364  40.569  0.00  0.00    +0.000 A 
ATOM     26  C   UNL     1      27.053  10.217  41.322  0.00  0.00    +0.000 A 
ATOM     27  C   UNL     1      26.478  10.139  42.591  0.00  0.00    +0.000 A 
ATOM     28  C   UNL     1      25.844  11.240  43.056  0.00  0.00    +0.000 A 
ATOM     29  C   UNL     1      25.769  12.402  42.297  0.00  0.00    +0.000 A 
BRANCH  27  30
ATOM     30  O   UNL     1      26.639   8.936  43.202  0.00  0.00    +0.000 OA
ATOM     31  C   UNL     1      26.971   7.709  42.719  0.00  0.00    +0.000 C 
ENDBRANCH  27  30
ENDBRANCH  23  24
BRANCH  19  33
ATOM     32  C   UNL     1      29.515  13.991  40.045  0.00  0.00    +0.000 C 
ATOM     33  C   UNL     1      28.431  14.639  40.885  0.00  0.00    +0.000 C 
ENDBRANCH  19  33
ENDBRANCH  18  20
ENDBRANCH   1  18
TORSDOF 8
ENDMDL
MODEL 8
REMARK VINA RESULT:      -7.4      3.339      4.280
REMARK  Name = 
REMARK  8 active torsions:
REMARK  status: ('A' for Active; 'I' for Inactive)
REMARK    1  A    between atoms: C_2  and  N_3
REMARK    2  A    between atoms: C_4  and  S_5
REMARK    3  A    between atoms: S_5  and  C_6
REMARK    4  A    between atoms: C_6  and  C_7
REMARK    5  A    between atoms: C_7  and  C_9
REMARK    6  A    between atoms: C_9  and  N_10
REMARK    7  A    between atoms: C_25  and  C_26
REMARK    8  A    between atoms: C_29  and  O_30
REMARK                            x       y       z     vdW  Elec       q    Type
REMARK                         _______ _______ _______ _____ _____    ______ ____
ROOT
ATOM      1  C   UNL     1      39.666  -0.025  13.127  0.00  0.00    +0.000 C 
ENDROOT
BRANCH   1   2
ATOM      2  C   UNL     1      39.848  -0.729  14.592  0.00  0.00    +0.000 C 
ATOM      3  O   UNL     1      40.522  -1.961  13.982  0.00  0.00    +0.000 OA
BRANCH   2   4
ATOM      4  C   UNL     1      38.360  -1.389  14.601  0.00  0.00    +0.000 C 
BRANCH   4   5
ATOM      5  N   UNL     1      37.590  -0.926  15.667  0.00  0.00    +0.000 N 
ATOM      6  C   UNL     1      37.643  -1.400  16.930  0.00  0.00    +0.000 A 
ATOM      7  C   UNL     1      38.400  -2.397  17.476  0.00  0.00    +0.000 A 
ATOM      8  C   UNL     1      38.283  -2.708  18.802  0.00  0.00    +0.000 A 
ATOM      9  C   UNL     1      37.398  -2.008  19.582  0.00  0.00    +0.000 A 
ATOM     10  C   UNL     1      36.645  -1.014  19.035  0.00  0.00    +0.000 A 
ATOM     11  C   UNL     1      36.754  -0.692  17.701  0.00  0.00    +0.000 A 
ATOM     12  C   UNL     1      36.142   0.231  16.909  0.00  0.00    +0.000 A 
ATOM     13  C   UNL     1      35.189   1.184  17.160  0.00  0.00    +0.000 A 
ATOM     14  C   UNL     1      34.757   1.994  16.136  0.00  0.00    +0.000 A 
ATOM     15  C   UNL     1      35.267   1.864  14.854  0.00  0.00    +0.000 A 
ATOM     16  C   UNL     1      36.209   0.909  14.648  0.00  0.00    +0.000 A 
ATOM     17  C   UNL     1      36.686   0.062  15.635  0.00  0.00    +0.000 A 
ENDBRANCH   4   5
ENDBRANCH   2   4
ENDBRANCH   1   2
BRANCH   1  18
ATOM     18  S   UNL     1      40.130   1.724  13.396  0.00  0.00    +0.000 S 
BRANCH  18  20
ATOM     19  N   UNL     1      38.331   3.799  13.497  0.00  0.00    +0.000 N 
ATOM     20  C   UNL     1      38.746   2.705  12.850  0.00  0.00    +0.000 A 
ATOM     21  N   UNL     1      37.921   2.576  11.802  0.00  0.00    +0.000 NA
ATOM     22  N   UNL     1      37.020   3.550  11.785  0.00  0.00    +0.000 NA
ATOM     23  C   UNL     1      37.271   4.320  12.845  0.00  0.00    +0.000 A 
BRANCH  23  24
ATOM     24  C   UNL     1      36.496   5.508  13.186  0.00  0.00    +0.000 A 
ATOM     25  C   UNL     1      35.252   5.317  13.751  0.00  0.00    +0.000 A 
ATOM     26  C   UNL     1      34.476   6.398  14.092  0.00  0.00    +0.000 A 
ATOM     27  C   UNL     1      34.913   7.706  13.883  0.00  0.00    +0.000 A 
ATOM     28  C   UNL     1      36.136   7.873  13.328  0.00  0.00    +0.000 A 
ATOM     29  C   UNL     1      36.924   6.781  12.980  0.00  0.00    +0.000 A 
BRANCH  27  30
ATOM     30  O   UNL     1      34.028   8.659  14.275  0.00  0.00    +0.000 OA
ATOM     31  C   UNL     1      34.127  10.012  14.358  0.00  0.00    +0.000 C 
ENDBRANCH  27  30
ENDBRANCH  23  24
BRANCH  19  33
ATOM     32  C   UNL     1      38.115   3.830  15.889  0.00  0.00    +0.000 C 
ATOM     33  C   UNL     1      38.864   4.407  14.703  0.00  0.00    +0.000 C 
ENDBRANCH  19  33
ENDBRANCH  18  20
ENDBRANCH   1  18
TORSDOF 8
ENDMDL
MODEL 9
REMARK VINA RESULT:      -7.3      4.127      5.571
REMARK  Name = 
REMARK  8 active torsions:
REMARK  status: ('A' for Active; 'I' for Inactive)
REMARK    1  A    between atoms: C_2  and  N_3
REMARK    2  A    between atoms: C_4  and  S_5
REMARK    3  A    between atoms: S_5  and  C_6
REMARK    4  A    between atoms: C_6  and  C_7
REMARK    5  A    between atoms: C_7  and  C_9
REMARK    6  A    between atoms: C_9  and  N_10
REMARK    7  A    between atoms: C_25  and  C_26
REMARK    8  A    between atoms: C_29  and  O_30
REMARK                            x       y       z     vdW  Elec       q    Type
REMARK                         _______ _______ _______ _____ _____    ______ ____
ROOT
ATOM      1  C   UNL     1      39.444  -2.006  13.039  0.00  0.00    +0.000 C 
ENDROOT
BRANCH   1   2
ATOM      2  C   UNL     1      39.423  -1.377  14.548  0.00  0.00    +0.000 C 
ATOM      3  O   UNL     1      40.522  -2.329  15.025  0.00  0.00    +0.000 OA
BRANCH   2   4
ATOM      4  C   UNL     1      38.203  -2.324  15.063  0.00  0.00    +0.000 C 
BRANCH   4   5
ATOM      5  N   UNL     1      37.664  -1.874  16.268  0.00  0.00    +0.000 N 
ATOM      6  C   UNL     1      36.763  -0.877  16.393  0.00  0.00    +0.000 A 
ATOM      7  C   UNL     1      36.176  -0.082  15.449  0.00  0.00    +0.000 A 
ATOM      8  C   UNL     1      35.276   0.879  15.815  0.00  0.00    +0.000 A 
ATOM      9  C   UNL     1      34.965   1.039  17.142  0.00  0.00    +0.000 A 
ATOM     10  C   UNL     1      35.551   0.245  18.080  0.00  0.00    +0.000 A 
ATOM     11  C   UNL     1      36.458  -0.726  17.723  0.00  0.00    +0.000 A 
ATOM     12  C   UNL     1      37.179  -1.639  18.432  0.00  0.00    +0.000 A 
ATOM     13  C   UNL     1      37.256  -1.923  19.771  0.00  0.00    +0.000 A 
ATOM     14  C   UNL     1      38.089  -2.928  20.201  0.00  0.00    +0.000 A 
ATOM     15  C   UNL     1      38.853  -3.660  19.306  0.00  0.00    +0.000 A 
ATOM     16  C   UNL     1      38.747  -3.347  17.990  0.00  0.00    +0.000 A 
ATOM     17  C   UNL     1      37.928  -2.347  17.492  0.00  0.00    +0.000 A 
ENDBRANCH   4   5
ENDBRANCH   2   4
ENDBRANCH   1   2
BRANCH   1  18
ATOM     18  S   UNL     1      40.248  -0.719  12.015  0.00  0.00    +0.000 S 
BRANCH  18  20
ATOM     19  N   UNL     1      38.599   1.398  12.610  0.00  0.00    +0.000 N 
ATOM     20  C   UNL     1      39.812   0.850  12.740  0.00  0.00    +0.000 A 
ATOM     21  N   UNL     1      40.517   1.716  13.480  0.00  0.00    +0.000 NA
ATOM     22  N   UNL     1      39.780   2.770  13.806  0.00  0.00    +0.000 NA
ATOM     23  C   UNL     1      38.576   2.577  13.264  0.00  0.00    +0.000 A 
BRANCH  23  24
ATOM     24  C   UNL     1      37.469   3.518  13.393  0.00  0.00    +0.000 A 
ATOM     25  C   UNL     1      36.787   3.538  14.591  0.00  0.00    +0.000 A 
ATOM     26  C   UNL     1      35.734   4.403  14.771  0.00  0.00    +0.000 A 
ATOM     27  C   UNL     1      35.326   5.276  13.763  0.00  0.00    +0.000 A 
ATOM     28  C   UNL     1      36.009   5.242  12.595  0.00  0.00    +0.000 A 
ATOM     29  C   UNL     1      37.074   4.368  12.409  0.00  0.00    +0.000 A 
BRANCH  27  30
ATOM     30  O   UNL     1      34.272   6.064  14.101  0.00  0.00    +0.000 OA
ATOM     31  C   UNL     1      33.683   7.114  13.470  0.00  0.00    +0.000 C 
ENDBRANCH  27  30
ENDBRANCH  23  24
BRANCH  19  33
ATOM     32  C   UNL     1      37.557   1.287  10.448  0.00  0.00    +0.000 C 
ATOM     33  C   UNL     1      37.435   0.888  11.906  0.00  0.00    +0.000 C 
ENDBRANCH  19  33
ENDBRANCH  18  20
ENDBRANCH   1  18
TORSDOF 8
ENDMDL
MODEL 10
REMARK VINA RESULT:      -7.3      1.920      2.541
REMARK  Name = 
REMARK  8 active torsions:
REMARK  status: ('A' for Active; 'I' for Inactive)
REMARK    1  A    between atoms: C_2  and  N_3
REMARK    2  A    between atoms: C_4  and  S_5
REMARK    3  A    between atoms: S_5  and  C_6
REMARK    4  A    between atoms: C_6  and  C_7
REMARK    5  A    between atoms: C_7  and  C_9
REMARK    6  A    between atoms: C_9  and  N_10
REMARK    7  A    between atoms: C_25  and  C_26
REMARK    8  A    between atoms: C_29  and  O_30
REMARK                            x       y       z     vdW  Elec       q    Type
REMARK                         _______ _______ _______ _____ _____    ______ ____
ROOT
ATOM      1  C   UNL     1      37.317   1.968  10.780  0.00  0.00    +0.000 C 
ENDROOT
BRANCH   1   2
ATOM      2  C   UNL     1      38.381   1.239  11.784  0.00  0.00    +0.000 C 
ATOM      3  O   UNL     1      38.973   0.402  10.646  0.00  0.00    +0.000 OA
BRANCH   2   4
ATOM      4  C   UNL     1      37.336   0.084  12.259  0.00  0.00    +0.000 C 
BRANCH   4   5
ATOM      5  N   UNL     1      37.294  -0.043  13.647  0.00  0.00    +0.000 N 
ATOM      6  C   UNL     1      38.003  -0.938  14.368  0.00  0.00    +0.000 A 
ATOM      7  C   UNL     1      38.885  -1.904  13.972  0.00  0.00    +0.000 A 
ATOM      8  C   UNL     1      39.494  -2.706  14.896  0.00  0.00    +0.000 A 
ATOM      9  C   UNL     1      39.212  -2.533  16.227  0.00  0.00    +0.000 A 
ATOM     10  C   UNL     1      38.333  -1.570  16.619  0.00  0.00    +0.000 A 
ATOM     11  C   UNL     1      37.714  -0.756  15.698  0.00  0.00    +0.000 A 
ATOM     12  C   UNL     1      36.816   0.262  15.804  0.00  0.00    +0.000 A 
ATOM     13  C   UNL     1      36.202   0.850  16.880  0.00  0.00    +0.000 A 
ATOM     14  C   UNL     1      35.323   1.887  16.673  0.00  0.00    +0.000 A 
ATOM     15  C   UNL     1      35.046   2.349  15.396  0.00  0.00    +0.000 A 
ATOM     16  C   UNL     1      35.675   1.740  14.359  0.00  0.00    +0.000 A 
ATOM     17  C   UNL     1      36.570   0.692  14.500  0.00  0.00    +0.000 A 
ENDBRANCH   4   5
ENDBRANCH   2   4
ENDBRANCH   1   2
BRANCH   1  18
ATOM     18  S   UNL     1      37.849   3.718  10.737  0.00  0.00    +0.000 S 
BRANCH  18  20
ATOM     19  N   UNL     1      38.203   4.597  13.317  0.00  0.00    +0.000 N 
ATOM     20  C   UNL     1      37.358   4.435  12.293  0.00  0.00    +0.000 A 
ATOM     21  N   UNL     1      36.180   4.907  12.725  0.00  0.00    +0.000 NA
ATOM     22  N   UNL     1      36.276   5.352  13.971  0.00  0.00    +0.000 NA
ATOM     23  C   UNL     1      37.541   5.160  14.349  0.00  0.00    +0.000 A 
BRANCH  23  24
ATOM     24  C   UNL     1      38.058   5.520  15.664  0.00  0.00    +0.000 A 
ATOM     25  C   UNL     1      38.015   4.558  16.651  0.00  0.00    +0.000 A 
ATOM     26  C   UNL     1      38.486   4.839  17.910  0.00  0.00    +0.000 A 
ATOM     27  C   UNL     1      39.018   6.089  18.229  0.00  0.00    +0.000 A 
ATOM     28  C   UNL     1      39.052   7.020  17.247  0.00  0.00    +0.000 A 
ATOM     29  C   UNL     1      38.575   6.739  15.972  0.00  0.00    +0.000 A 
BRANCH  27  30
ATOM     30  O   UNL     1      39.439   6.203  19.515  0.00  0.00    +0.000 OA
ATOM     31  C   UNL     1      39.535   7.274  20.348  0.00  0.00    +0.000 C 
ENDBRANCH  27  30
ENDBRANCH  23  24
BRANCH  19  33
ATOM     32  C   UNL     1      40.412   5.456  12.923  0.00  0.00    +0.000 C 
ATOM     33  C   UNL     1      39.613   4.259  13.402  0.00  0.00    +0.000 C 
ENDBRANCH  19  33
ENDBRANCH  18  20
ENDBRANCH   1  18
TORSDOF 8
ENDMDL
