MODEL 1
REMARK VINA RESULT:      -6.2      0.000      0.000
REMARK  Name = 
REMARK  7 active torsions:
REMARK  status: ('A' for Active; 'I' for Inactive)
REMARK    1  A    between atoms: C_2  and  N_3
REMARK    2  A    between atoms: C_8  and  C_9
REMARK    3  A    between atoms: C_9  and  O_10
REMARK    4  A    between atoms: O_10  and  C_11
REMARK    5  A    between atoms: C_11  and  C_13
REMARK    6  A    between atoms: N_17  and  C_18
REMARK    7  A    between atoms: C_18  and  C_19
REMARK                            x       y       z     vdW  Elec       q    Type
REMARK                         _______ _______ _______ _____ _____    ______ ____
ROOT
ATOM      1  C   UNL     1      28.638  23.419  22.690  0.00  0.00    +0.000 C 
ATOM      2  C   UNL     1      29.017  24.510  21.523  0.00  0.00    +0.000 C 
ATOM      3  C   UNL     1      28.546  25.781  22.121  0.00  0.00    +0.000 C 
ATOM      4  C   UNL     1      28.910  25.600  23.533  0.00  0.00    +0.000 C 
ATOM      5  N   UNL     1      29.183  24.296  23.868  0.00  0.00    +0.000 NA
ENDROOT
BRANCH   1   6
ATOM      6  C   UNL     1      27.094  23.830  22.768  0.00  0.00    +0.000 C 
ATOM      7  O   UNL     1      26.495  23.610  21.659  0.00  0.00    +0.000 OA
BRANCH   6   8
ATOM      8  O   UNL     1      26.510  24.331  23.838  0.00  0.00    +0.000 OA
BRANCH   8   9
ATOM      9  C   UNL     1      25.681  23.585  24.665  0.00  0.00    +0.000 C 
BRANCH   9  15
ATOM     10  N   UNL     1      25.490  24.375  26.993  0.00  0.00    +0.000 N 
ATOM     11  N   UNL     1      26.031  24.142  28.153  0.00  0.00    +0.000 NA
ATOM     12  C   UNL     1      26.966  23.197  28.074  0.00  0.00    +0.000 A 
ATOM     13  C   UNL     1      27.784  22.678  29.182  0.00  0.00    +0.000 C 
ATOM     14  C   UNL     1      27.023  22.797  26.746  0.00  0.00    +0.000 A 
ATOM     15  C   UNL     1      26.082  23.553  26.079  0.00  0.00    +0.000 A 
BRANCH  10  17
ATOM     16  C   UNL     1      24.142  26.074  28.079  0.00  0.00    +0.000 C 
ATOM     17  C   UNL     1      24.442  25.349  26.763  0.00  0.00    +0.000 C 
ENDBRANCH  10  17
ENDBRANCH   9  15
ENDBRANCH   8   9
ENDBRANCH   6   8
ENDBRANCH   1   6
BRANCH   5  18
ATOM     18  C   UNL     1      30.587  23.979  23.902  0.00  0.00    +0.000 C 
BRANCH  18  19
ATOM     19  C   UNL     1      30.900  23.504  25.278  0.00  0.00    +0.000 A 
ATOM     20  C   UNL     1      30.339  22.344  25.744  0.00  0.00    +0.000 A 
ATOM     21  C   UNL     1      30.615  21.881  27.021  0.00  0.00    +0.000 A 
ATOM     22  C   UNL     1      31.458  22.561  27.878  0.00  0.00    +0.000 A 
ATOM     23  C   UNL     1      31.761  22.075  29.251  0.00  0.00    +0.000 C 
ATOM     24  C   UNL     1      32.018  23.729  27.399  0.00  0.00    +0.000 A 
ATOM     25  C   UNL     1      31.744  24.189  26.126  0.00  0.00    +0.000 A 
ENDBRANCH  18  19
ENDBRANCH   5  18
TORSDOF 7
ENDMDL
MODEL 2
REMARK VINA RESULT:      -6.2     16.949     20.025
REMARK  Name = 
REMARK  7 active torsions:
REMARK  status: ('A' for Active; 'I' for Inactive)
REMARK    1  A    between atoms: C_2  and  N_3
REMARK    2  A    between atoms: C_8  and  C_9
REMARK    3  A    between atoms: C_9  and  O_10
REMARK    4  A    between atoms: O_10  and  C_11
REMARK    5  A    between atoms: C_11  and  C_13
REMARK    6  A    between atoms: N_17  and  C_18
REMARK    7  A    between atoms: C_18  and  C_19
REMARK                            x       y       z     vdW  Elec       q    Type
REMARK                         _______ _______ _______ _____ _____    ______ ____
ROOT
ATOM      1  C   UNL     1      18.425  10.787  36.514  0.00  0.00    +0.000 C 
ATOM      2  C   UNL     1      18.138   9.535  37.536  0.00  0.00    +0.000 C 
ATOM      3  C   UNL     1      17.052  10.072  38.389  0.00  0.00    +0.000 C 
ATOM      4  C   UNL     1      16.249  10.823  37.414  0.00  0.00    +0.000 C 
ATOM      5  N   UNL     1      16.911  11.077  36.236  0.00  0.00    +0.000 NA
ENDROOT
BRANCH   1   6
ATOM      6  C   UNL     1      18.674  11.859  37.675  0.00  0.00    +0.000 C 
ATOM      7  O   UNL     1      18.115  12.978  37.408  0.00  0.00    +0.000 OA
BRANCH   6   8
ATOM      8  O   UNL     1      19.368  11.622  38.771  0.00  0.00    +0.000 OA
BRANCH   8   9
ATOM      9  C   UNL     1      20.620  12.174  39.006  0.00  0.00    +0.000 C 
BRANCH   9  15
ATOM     10  N   UNL     1      22.931  12.132  38.148  0.00  0.00    +0.000 N 
ATOM     11  N   UNL     1      23.726  11.319  37.518  0.00  0.00    +0.000 NA
ATOM     12  C   UNL     1      23.128  10.159  37.252  0.00  0.00    +0.000 A 
ATOM     13  C   UNL     1      23.718   9.006  36.555  0.00  0.00    +0.000 C 
ATOM     14  C   UNL     1      21.838  10.247  37.759  0.00  0.00    +0.000 A 
ATOM     15  C   UNL     1      21.733  11.501  38.321  0.00  0.00    +0.000 A 
BRANCH  10  17
ATOM     16  C   UNL     1      24.573  13.890  37.830  0.00  0.00    +0.000 C 
ATOM     17  C   UNL     1      23.300  13.468  38.573  0.00  0.00    +0.000 C 
ENDBRANCH  10  17
ENDBRANCH   9  15
ENDBRANCH   8   9
ENDBRANCH   6   8
ENDBRANCH   1   6
BRANCH   5  18
ATOM     18  C   UNL     1      16.583  10.166  35.170  0.00  0.00    +0.000 C 
BRANCH  18  19
ATOM     19  C   UNL     1      16.040  10.978  34.047  0.00  0.00    +0.000 A 
ATOM     20  C   UNL     1      16.428  10.709  32.761  0.00  0.00    +0.000 A 
ATOM     21  C   UNL     1      15.936  11.450  31.698  0.00  0.00    +0.000 A 
ATOM     22  C   UNL     1      15.040  12.485  31.882  0.00  0.00    +0.000 A 
ATOM     23  C   UNL     1      14.505  13.288  30.749  0.00  0.00    +0.000 C 
ATOM     24  C   UNL     1      14.655  12.747  33.182  0.00  0.00    +0.000 A 
ATOM     25  C   UNL     1      15.145  12.008  34.241  0.00  0.00    +0.000 A 
ENDBRANCH  18  19
ENDBRANCH   5  18
TORSDOF 7
ENDMDL
MODEL 3
REMARK VINA RESULT:      -6.0      1.947      4.844
REMARK  Name = 
REMARK  7 active torsions:
REMARK  status: ('A' for Active; 'I' for Inactive)
REMARK    1  A    between atoms: C_2  and  N_3
REMARK    2  A    between atoms: C_8  and  C_9
REMARK    3  A    between atoms: C_9  and  O_10
REMARK    4  A    between atoms: O_10  and  C_11
REMARK    5  A    between atoms: C_11  and  C_13
REMARK    6  A    between atoms: N_17  and  C_18
REMARK    7  A    between atoms: C_18  and  C_19
REMARK                            x       y       z     vdW  Elec       q    Type
REMARK                         _______ _______ _______ _____ _____    ______ ____
ROOT
ATOM      1  C   UNL     1      28.038  24.968  23.926  0.00  0.00    +0.000 C 
ATOM      2  C   UNL     1      27.457  25.392  22.449  0.00  0.00    +0.000 C 
ATOM      3  C   UNL     1      27.037  24.084  21.894  0.00  0.00    +0.000 C 
ATOM      4  C   UNL     1      26.478  23.420  23.080  0.00  0.00    +0.000 C 
ATOM      5  N   UNL     1      26.844  24.013  24.265  0.00  0.00    +0.000 NA
ENDROOT
BRANCH   1   6
ATOM      6  C   UNL     1      29.072  23.885  23.363  0.00  0.00    +0.000 C 
ATOM      7  O   UNL     1      29.723  24.337  22.360  0.00  0.00    +0.000 OA
BRANCH   6   8
ATOM      8  O   UNL     1      29.234  22.678  23.868  0.00  0.00    +0.000 OA
BRANCH   8   9
ATOM      9  C   UNL     1      30.385  22.288  24.538  0.00  0.00    +0.000 C 
BRANCH   9  15
ATOM     10  N   UNL     1      31.348  23.651  26.354  0.00  0.00    +0.000 N 
ATOM     11  N   UNL     1      31.196  23.824  27.633  0.00  0.00    +0.000 NA
ATOM     12  C   UNL     1      30.238  23.038  28.122  0.00  0.00    +0.000 A 
ATOM     13  C   UNL     1      29.793  22.964  29.522  0.00  0.00    +0.000 C 
ATOM     14  C   UNL     1      29.739  22.302  27.056  0.00  0.00    +0.000 A 
ATOM     15  C   UNL     1      30.453  22.704  25.947  0.00  0.00    +0.000 A 
BRANCH  10  17
ATOM     16  C   UNL     1      31.730  25.734  25.170  0.00  0.00    +0.000 C 
ATOM     17  C   UNL     1      32.313  24.366  25.543  0.00  0.00    +0.000 C 
ENDBRANCH  10  17
ENDBRANCH   9  15
ENDBRANCH   8   9
ENDBRANCH   6   8
ENDBRANCH   1   6
BRANCH   5  18
ATOM     18  C   UNL     1      25.848  24.898  24.811  0.00  0.00    +0.000 C 
BRANCH  18  19
ATOM     19  C   UNL     1      25.885  24.744  26.292  0.00  0.00    +0.000 A 
ATOM     20  C   UNL     1      25.488  25.780  27.095  0.00  0.00    +0.000 A 
ATOM     21  C   UNL     1      25.512  25.661  28.476  0.00  0.00    +0.000 A 
ATOM     22  C   UNL     1      25.936  24.506  29.102  0.00  0.00    +0.000 A 
ATOM     23  C   UNL     1      25.967  24.366  30.583  0.00  0.00    +0.000 C 
ATOM     24  C   UNL     1      26.334  23.468  28.283  0.00  0.00    +0.000 A 
ATOM     25  C   UNL     1      26.309  23.586  26.907  0.00  0.00    +0.000 A 
ENDBRANCH  18  19
ENDBRANCH   5  18
TORSDOF 7
ENDMDL
MODEL 4
REMARK VINA RESULT:      -5.8      0.730      2.207
REMARK  Name = 
REMARK  7 active torsions:
REMARK  status: ('A' for Active; 'I' for Inactive)
REMARK    1  A    between atoms: C_2  and  N_3
REMARK    2  A    between atoms: C_8  and  C_9
REMARK    3  A    between atoms: C_9  and  O_10
REMARK    4  A    between atoms: O_10  and  C_11
REMARK    5  A    between atoms: C_11  and  C_13
REMARK    6  A    between atoms: N_17  and  C_18
REMARK    7  A    between atoms: C_18  and  C_19
REMARK                            x       y       z     vdW  Elec       q    Type
REMARK                         _______ _______ _______ _____ _____    ______ ____
ROOT
ATOM      1  C   UNL     1      28.302  23.132  23.338  0.00  0.00    +0.000 C 
ATOM      2  C   UNL     1      28.526  23.808  21.859  0.00  0.00    +0.000 C 
ATOM      3  C   UNL     1      28.024  25.186  22.068  0.00  0.00    +0.000 C 
ATOM      4  C   UNL     1      28.501  25.476  23.428  0.00  0.00    +0.000 C 
ATOM      5  N   UNL     1      28.878  24.355  24.129  0.00  0.00    +0.000 NA
ENDROOT
BRANCH   1   6
ATOM      6  C   UNL     1      26.746  23.491  23.421  0.00  0.00    +0.000 C 
ATOM      7  O   UNL     1      26.125  23.132  22.362  0.00  0.00    +0.000 OA
BRANCH   6   8
ATOM      8  O   UNL     1      26.172  24.083  24.450  0.00  0.00    +0.000 OA
BRANCH   8   9
ATOM      9  C   UNL     1      25.680  23.386  25.545  0.00  0.00    +0.000 C 
BRANCH   9  15
ATOM     10  N   UNL     1      26.445  24.104  27.776  0.00  0.00    +0.000 N 
ATOM     11  N   UNL     1      26.067  24.903  28.729  0.00  0.00    +0.000 NA
ATOM     12  C   UNL     1      24.930  25.525  28.423  0.00  0.00    +0.000 A 
ATOM     13  C   UNL     1      24.209  26.497  29.260  0.00  0.00    +0.000 C 
ATOM     14  C   UNL     1      24.555  25.080  27.163  0.00  0.00    +0.000 A 
ATOM     15  C   UNL     1      25.526  24.183  26.770  0.00  0.00    +0.000 A 
BRANCH  10  17
ATOM     16  C   UNL     1      27.555  22.339  29.016  0.00  0.00    +0.000 C 
ATOM     17  C   UNL     1      27.645  23.292  27.819  0.00  0.00    +0.000 C 
ENDBRANCH  10  17
ENDBRANCH   9  15
ENDBRANCH   8   9
ENDBRANCH   6   8
ENDBRANCH   1   6
BRANCH   5  18
ATOM     18  C   UNL     1      30.297  24.115  24.135  0.00  0.00    +0.000 C 
BRANCH  18  19
ATOM     19  C   UNL     1      30.657  23.632  25.497  0.00  0.00    +0.000 A 
ATOM     20  C   UNL     1      31.110  24.519  26.437  0.00  0.00    +0.000 A 
ATOM     21  C   UNL     1      31.451  24.094  27.712  0.00  0.00    +0.000 A 
ATOM     22  C   UNL     1      31.353  22.770  28.091  0.00  0.00    +0.000 A 
ATOM     23  C   UNL     1      31.716  22.302  29.456  0.00  0.00    +0.000 C 
ATOM     24  C   UNL     1      30.895  21.885  27.136  0.00  0.00    +0.000 A 
ATOM     25  C   UNL     1      30.555  22.308  25.866  0.00  0.00    +0.000 A 
ENDBRANCH  18  19
ENDBRANCH   5  18
TORSDOF 7
ENDMDL
MODEL 5
REMARK VINA RESULT:      -5.8      2.559      6.171
REMARK  Name = 
REMARK  7 active torsions:
REMARK  status: ('A' for Active; 'I' for Inactive)
REMARK    1  A    between atoms: C_2  and  N_3
REMARK    2  A    between atoms: C_8  and  C_9
REMARK    3  A    between atoms: C_9  and  O_10
REMARK    4  A    between atoms: O_10  and  C_11
REMARK    5  A    between atoms: C_11  and  C_13
REMARK    6  A    between atoms: N_17  and  C_18
REMARK    7  A    between atoms: C_18  and  C_19
REMARK                            x       y       z     vdW  Elec       q    Type
REMARK                         _______ _______ _______ _____ _____    ______ ____
ROOT
ATOM      1  C   UNL     1      25.479  24.476  28.254  0.00  0.00    +0.000 C 
ATOM      2  C   UNL     1      24.860  25.781  29.035  0.00  0.00    +0.000 C 
ATOM      3  C   UNL     1      26.085  26.499  29.459  0.00  0.00    +0.000 C 
ATOM      4  C   UNL     1      26.964  26.303  28.298  0.00  0.00    +0.000 C 
ATOM      5  N   UNL     1      26.549  25.298  27.458  0.00  0.00    +0.000 NA
ENDROOT
BRANCH   1   6
ATOM      6  C   UNL     1      26.391  24.001  29.479  0.00  0.00    +0.000 C 
ATOM      7  O   UNL     1      25.714  23.915  30.561  0.00  0.00    +0.000 OA
BRANCH   6   8
ATOM      8  O   UNL     1      27.679  23.730  29.388  0.00  0.00    +0.000 OA
BRANCH   8   9
ATOM      9  C   UNL     1      28.164  22.484  29.017  0.00  0.00    +0.000 C 
BRANCH   9  15
ATOM     10  N   UNL     1      30.453  22.490  28.099  0.00  0.00    +0.000 N 
ATOM     11  N   UNL     1      31.042  22.505  26.940  0.00  0.00    +0.000 NA
ATOM     12  C   UNL     1      30.159  22.523  25.943  0.00  0.00    +0.000 A 
ATOM     13  C   UNL     1      30.461  22.545  24.504  0.00  0.00    +0.000 C 
ATOM     14  C   UNL     1      28.898  22.519  26.523  0.00  0.00    +0.000 A 
ATOM     15  C   UNL     1      29.105  22.497  27.887  0.00  0.00    +0.000 A 
BRANCH  10  17
ATOM     16  C   UNL     1      32.349  21.517  29.258  0.00  0.00    +0.000 C 
ATOM     17  C   UNL     1      31.151  22.467  29.369  0.00  0.00    +0.000 C 
ENDBRANCH  10  17
ENDBRANCH   9  15
ENDBRANCH   8   9
ENDBRANCH   6   8
ENDBRANCH   1   6
BRANCH   5  18
ATOM     18  C   UNL     1      25.827  25.760  26.301  0.00  0.00    +0.000 C 
BRANCH  18  19
ATOM     19  C   UNL     1      26.645  25.420  25.105  0.00  0.00    +0.000 A 
ATOM     20  C   UNL     1      26.320  24.328  24.343  0.00  0.00    +0.000 A 
ATOM     21  C   UNL     1      27.066  23.992  23.224  0.00  0.00    +0.000 A 
ATOM     22  C   UNL     1      28.163  24.732  22.828  0.00  0.00    +0.000 A 
ATOM     23  C   UNL     1      28.972  24.380  21.629  0.00  0.00    +0.000 C 
ATOM     24  C   UNL     1      28.482  25.830  23.602  0.00  0.00    +0.000 A 
ATOM     25  C   UNL     1      27.738  26.166  24.716  0.00  0.00    +0.000 A 
ENDBRANCH  18  19
ENDBRANCH   5  18
TORSDOF 7
ENDMDL
MODEL 6
REMARK VINA RESULT:      -5.7      2.453      5.867
REMARK  Name = 
REMARK  7 active torsions:
REMARK  status: ('A' for Active; 'I' for Inactive)
REMARK    1  A    between atoms: C_2  and  N_3
REMARK    2  A    between atoms: C_8  and  C_9
REMARK    3  A    between atoms: C_9  and  O_10
REMARK    4  A    between atoms: O_10  and  C_11
REMARK    5  A    between atoms: C_11  and  C_13
REMARK    6  A    between atoms: N_17  and  C_18
REMARK    7  A    between atoms: C_18  and  C_19
REMARK                            x       y       z     vdW  Elec       q    Type
REMARK                         _______ _______ _______ _____ _____    ______ ____
ROOT
ATOM      1  C   UNL     1      27.543  24.163  29.275  0.00  0.00    +0.000 C 
ATOM      2  C   UNL     1      26.252  23.849  30.240  0.00  0.00    +0.000 C 
ATOM      3  C   UNL     1      26.125  22.378  30.120  0.00  0.00    +0.000 C 
ATOM      4  C   UNL     1      27.533  21.957  30.097  0.00  0.00    +0.000 C 
ATOM      5  N   UNL     1      28.409  22.982  29.829  0.00  0.00    +0.000 NA
ENDROOT
BRANCH   1   6
ATOM      6  C   UNL     1      26.932  23.441  27.985  0.00  0.00    +0.000 C 
ATOM      7  O   UNL     1      25.735  23.829  27.755  0.00  0.00    +0.000 OA
BRANCH   6   8
ATOM      8  O   UNL     1      27.578  22.557  27.250  0.00  0.00    +0.000 OA
BRANCH   8   9
ATOM      9  C   UNL     1      27.520  22.542  25.864  0.00  0.00    +0.000 C 
BRANCH   9  15
ATOM     10  N   UNL     1      28.776  23.320  23.889  0.00  0.00    +0.000 N 
ATOM     11  N   UNL     1      30.006  23.563  23.546  0.00  0.00    +0.000 NA
ATOM     12  C   UNL     1      30.849  23.326  24.549  0.00  0.00    +0.000 A 
ATOM     13  C   UNL     1      32.311  23.489  24.523  0.00  0.00    +0.000 C 
ATOM     14  C   UNL     1      30.084  22.894  25.624  0.00  0.00    +0.000 A 
ATOM     15  C   UNL     1      28.776  22.898  25.187  0.00  0.00    +0.000 A 
BRANCH  10  17
ATOM     16  C   UNL     1      28.059  24.327  21.802  0.00  0.00    +0.000 C 
ATOM     17  C   UNL     1      27.635  23.486  23.011  0.00  0.00    +0.000 C 
ENDBRANCH  10  17
ENDBRANCH   9  15
ENDBRANCH   8   9
ENDBRANCH   6   8
ENDBRANCH   1   6
BRANCH   5  18
ATOM     18  C   UNL     1      29.034  23.542  31.000  0.00  0.00    +0.000 C 
BRANCH  18  19
ATOM     19  C   UNL     1      30.312  22.808  31.211  0.00  0.00    +0.000 A 
ATOM     20  C   UNL     1      31.326  22.928  30.298  0.00  0.00    +0.000 A 
ATOM     21  C   UNL     1      32.526  22.255  30.472  0.00  0.00    +0.000 A 
ATOM     22  C   UNL     1      32.754  21.441  31.563  0.00  0.00    +0.000 A 
ATOM     23  C   UNL     1      34.038  20.713  31.762  0.00  0.00    +0.000 C 
ATOM     24  C   UNL     1      31.726  21.327  32.478  0.00  0.00    +0.000 A 
ATOM     25  C   UNL     1      30.531  21.997  32.304  0.00  0.00    +0.000 A 
ENDBRANCH  18  19
ENDBRANCH   5  18
TORSDOF 7
ENDMDL
MODEL 7
REMARK VINA RESULT:      -5.7      2.043      4.962
REMARK  Name = 
REMARK  7 active torsions:
REMARK  status: ('A' for Active; 'I' for Inactive)
REMARK    1  A    between atoms: C_2  and  N_3
REMARK    2  A    between atoms: C_8  and  C_9
REMARK    3  A    between atoms: C_9  and  O_10
REMARK    4  A    between atoms: O_10  and  C_11
REMARK    5  A    between atoms: C_11  and  C_13
REMARK    6  A    between atoms: N_17  and  C_18
REMARK    7  A    between atoms: C_18  and  C_19
REMARK                            x       y       z     vdW  Elec       q    Type
REMARK                         _______ _______ _______ _____ _____    ______ ____
ROOT
ATOM      1  C   UNL     1      28.894  24.996  24.219  0.00  0.00    +0.000 C 
ATOM      2  C   UNL     1      28.652  25.073  22.597  0.00  0.00    +0.000 C 
ATOM      3  C   UNL     1      28.057  23.748  22.308  0.00  0.00    +0.000 C 
ATOM      4  C   UNL     1      27.193  23.545  23.480  0.00  0.00    +0.000 C 
ATOM      5  N   UNL     1      27.487  24.382  24.530  0.00  0.00    +0.000 NA
ENDROOT
BRANCH   1   6
ATOM      6  C   UNL     1      29.750  23.646  24.168  0.00  0.00    +0.000 C 
ATOM      7  O   UNL     1      30.745  23.753  23.372  0.00  0.00    +0.000 OA
BRANCH   6   8
ATOM      8  O   UNL     1      29.468  22.559  24.859  0.00  0.00    +0.000 OA
BRANCH   8   9
ATOM      9  C   UNL     1      30.149  22.201  26.014  0.00  0.00    +0.000 C 
BRANCH   9  15
ATOM     10  N   UNL     1      30.019  22.744  28.416  0.00  0.00    +0.000 N 
ATOM     11  N   UNL     1      29.122  22.824  29.353  0.00  0.00    +0.000 NA
ATOM     12  C   UNL     1      27.908  22.526  28.894  0.00  0.00    +0.000 A 
ATOM     13  C   UNL     1      26.656  22.511  29.667  0.00  0.00    +0.000 C 
ATOM     14  C   UNL     1      28.049  22.232  27.545  0.00  0.00    +0.000 A 
ATOM     15  C   UNL     1      29.391  22.376  27.261  0.00  0.00    +0.000 A 
BRANCH  10  17
ATOM     16  C   UNL     1      32.099  21.753  29.174  0.00  0.00    +0.000 C 
ATOM     17  C   UNL     1      31.430  23.012  28.611  0.00  0.00    +0.000 C 
ENDBRANCH  10  17
ENDBRANCH   9  15
ENDBRANCH   8   9
ENDBRANCH   6   8
ENDBRANCH   1   6
BRANCH   5  18
ATOM     18  C   UNL     1      26.629  25.534  24.623  0.00  0.00    +0.000 C 
BRANCH  18  19
ATOM     19  C   UNL     1      26.146  25.614  26.029  0.00  0.00    +0.000 A 
ATOM     20  C   UNL     1      27.023  25.927  27.034  0.00  0.00    +0.000 A 
ATOM     21  C   UNL     1      26.598  26.008  28.351  0.00  0.00    +0.000 A 
ATOM     22  C   UNL     1      25.284  25.778  28.710  0.00  0.00    +0.000 A 
ATOM     23  C   UNL     1      24.816  25.861  30.120  0.00  0.00    +0.000 C 
ATOM     24  C   UNL     1      24.409  25.463  27.690  0.00  0.00    +0.000 A 
ATOM     25  C   UNL     1      24.832  25.383  26.378  0.00  0.00    +0.000 A 
ENDBRANCH  18  19
ENDBRANCH   5  18
TORSDOF 7
ENDMDL
MODEL 8
REMARK VINA RESULT:      -5.6      2.163      5.887
REMARK  Name = 
REMARK  7 active torsions:
REMARK  status: ('A' for Active; 'I' for Inactive)
REMARK    1  A    between atoms: C_2  and  N_3
REMARK    2  A    between atoms: C_8  and  C_9
REMARK    3  A    between atoms: C_9  and  O_10
REMARK    4  A    between atoms: O_10  and  C_11
REMARK    5  A    between atoms: C_11  and  C_13
REMARK    6  A    between atoms: N_17  and  C_18
REMARK    7  A    between atoms: C_18  and  C_19
REMARK                            x       y       z     vdW  Elec       q    Type
REMARK                         _______ _______ _______ _____ _____    ______ ____
ROOT
ATOM      1  C   UNL     1      27.607  24.756  24.548  0.00  0.00    +0.000 C 
ATOM      2  C   UNL     1      27.259  24.542  22.958  0.00  0.00    +0.000 C 
ATOM      3  C   UNL     1      26.280  23.432  23.000  0.00  0.00    +0.000 C 
ATOM      4  C   UNL     1      25.500  23.766  24.200  0.00  0.00    +0.000 C 
ATOM      5  N   UNL     1      26.115  24.683  25.018  0.00  0.00    +0.000 NA
ENDROOT
BRANCH   1   6
ATOM      6  C   UNL     1      28.024  23.233  24.804  0.00  0.00    +0.000 C 
ATOM      7  O   UNL     1      28.948  22.859  24.002  0.00  0.00    +0.000 OA
BRANCH   6   8
ATOM      8  O   UNL     1      27.486  22.458  25.725  0.00  0.00    +0.000 OA
BRANCH   8   9
ATOM      9  C   UNL     1      28.080  22.226  26.958  0.00  0.00    +0.000 C 
BRANCH   9  15
ATOM     10  N   UNL     1      28.588  23.861  28.732  0.00  0.00    +0.000 N 
ATOM     11  N   UNL     1      27.953  24.581  29.610  0.00  0.00    +0.000 NA
ATOM     12  C   UNL     1      26.638  24.387  29.541  0.00  0.00    +0.000 A 
ATOM     13  C   UNL     1      25.611  25.029  30.377  0.00  0.00    +0.000 C 
ATOM     14  C   UNL     1      26.420  23.462  28.529  0.00  0.00    +0.000 A 
ATOM     15  C   UNL     1      27.665  23.143  28.030  0.00  0.00    +0.000 A 
BRANCH  10  17
ATOM     16  C   UNL     1      30.646  22.933  29.618  0.00  0.00    +0.000 C 
ATOM     17  C   UNL     1      30.027  23.860  28.566  0.00  0.00    +0.000 C 
ENDBRANCH  10  17
ENDBRANCH   9  15
ENDBRANCH   8   9
ENDBRANCH   6   8
ENDBRANCH   1   6
BRANCH   5  18
ATOM     18  C   UNL     1      25.642  26.032  24.849  0.00  0.00    +0.000 C 
BRANCH  18  19
ATOM     19  C   UNL     1      24.367  26.151  25.608  0.00  0.00    +0.000 A 
ATOM     20  C   UNL     1      23.219  26.526  24.959  0.00  0.00    +0.000 A 
ATOM     21  C   UNL     1      22.019  26.643  25.643  0.00  0.00    +0.000 A 
ATOM     22  C   UNL     1      21.924  26.391  26.998  0.00  0.00    +0.000 A 
ATOM     23  C   UNL     1      20.641  26.514  27.743  0.00  0.00    +0.000 C 
ATOM     24  C   UNL     1      23.085  26.015  27.642  0.00  0.00    +0.000 A 
ATOM     25  C   UNL     1      24.281  25.897  26.960  0.00  0.00    +0.000 A 
ENDBRANCH  18  19
ENDBRANCH   5  18
TORSDOF 7
ENDMDL
MODEL 9
REMARK VINA RESULT:      -5.6     18.016     20.145
REMARK  Name = 
REMARK  7 active torsions:
REMARK  status: ('A' for Active; 'I' for Inactive)
REMARK    1  A    between atoms: C_2  and  N_3
REMARK    2  A    between atoms: C_8  and  C_9
REMARK    3  A    between atoms: C_9  and  O_10
REMARK    4  A    between atoms: O_10  and  C_11
REMARK    5  A    between atoms: C_11  and  C_13
REMARK    6  A    between atoms: N_17  and  C_18
REMARK    7  A    between atoms: C_18  and  C_19
REMARK                            x       y       z     vdW  Elec       q    Type
REMARK                         _______ _______ _______ _____ _____    ______ ____
ROOT
ATOM      1  C   UNL     1      20.299  10.558  37.562  0.00  0.00    +0.000 C 
ATOM      2  C   UNL     1      20.781   9.440  38.663  0.00  0.00    +0.000 C 
ATOM      3  C   UNL     1      20.219   9.980  39.922  0.00  0.00    +0.000 C 
ATOM      4  C   UNL     1      18.922  10.503  39.471  0.00  0.00    +0.000 C 
ATOM      5  N   UNL     1      18.834  10.653  38.107  0.00  0.00    +0.000 NA
ENDROOT
BRANCH   1   6
ATOM      6  C   UNL     1      20.935  11.802  38.340  0.00  0.00    +0.000 C 
ATOM      7  O   UNL     1      20.144  12.807  38.342  0.00  0.00    +0.000 OA
BRANCH   6   8
ATOM      8  O   UNL     1      22.125  11.796  38.908  0.00  0.00    +0.000 OA
BRANCH   8   9
ATOM      9  C   UNL     1      23.206  12.505  38.405  0.00  0.00    +0.000 C 
BRANCH   9  15
ATOM     10  N   UNL     1      24.680  10.854  37.317  0.00  0.00    +0.000 N 
ATOM     11  N   UNL     1      25.857  10.330  37.490  0.00  0.00    +0.000 NA
ATOM     12  C   UNL     1      26.457  10.822  38.573  0.00  0.00    +0.000 A 
ATOM     13  C   UNL     1      27.791  10.462  39.077  0.00  0.00    +0.000 C 
ATOM     14  C   UNL     1      25.581  11.740  39.136  0.00  0.00    +0.000 A 
ATOM     15  C   UNL     1      24.463  11.747  38.327  0.00  0.00    +0.000 A 
BRANCH  10  17
ATOM     16  C   UNL     1      23.515   9.011  36.255  0.00  0.00    +0.000 C 
ATOM     17  C   UNL     1      23.790  10.519  36.224  0.00  0.00    +0.000 C 
ENDBRANCH  10  17
ENDBRANCH   9  15
ENDBRANCH   8   9
ENDBRANCH   6   8
ENDBRANCH   1   6
BRANCH   5  18
ATOM     18  C   UNL     1      18.155   9.572  37.440  0.00  0.00    +0.000 C 
BRANCH  18  19
ATOM     19  C   UNL     1      17.586  10.121  36.178  0.00  0.00    +0.000 A 
ATOM     20  C   UNL     1      17.950   9.579  34.974  0.00  0.00    +0.000 A 
ATOM     21  C   UNL     1      17.433  10.071  33.785  0.00  0.00    +0.000 A 
ATOM     22  C   UNL     1      16.537  11.121  33.758  0.00  0.00    +0.000 A 
ATOM     23  C   UNL     1      15.976  11.659  32.489  0.00  0.00    +0.000 C 
ATOM     24  C   UNL     1      16.176  11.660  34.977  0.00  0.00    +0.000 A 
ATOM     25  C   UNL     1      16.690  11.169  36.162  0.00  0.00    +0.000 A 
ENDBRANCH  18  19
ENDBRANCH   5  18
TORSDOF 7
ENDMDL
MODEL 10
REMARK VINA RESULT:      -5.6      2.337      5.042
REMARK  Name = 
REMARK  7 active torsions:
REMARK  status: ('A' for Active; 'I' for Inactive)
REMARK    1  A    between atoms: C_2  and  N_3
REMARK    2  A    between atoms: C_8  and  C_9
REMARK    3  A    between atoms: C_9  and  O_10
REMARK    4  A    between atoms: O_10  and  C_11
REMARK    5  A    between atoms: C_11  and  C_13
REMARK    6  A    between atoms: N_17  and  C_18
REMARK    7  A    between atoms: C_18  and  C_19
REMARK                            x       y       z     vdW  Elec       q    Type
REMARK                         _______ _______ _______ _____ _____    ______ ____
ROOT
ATOM      1  C   UNL     1      30.515  24.099  28.014  0.00  0.00    +0.000 C 
ATOM      2  C   UNL     1      31.933  23.945  28.827  0.00  0.00    +0.000 C 
ATOM      3  C   UNL     1      31.977  22.490  29.103  0.00  0.00    +0.000 C 
ATOM      4  C   UNL     1      31.425  21.933  27.860  0.00  0.00    +0.000 C 
ATOM      5  N   UNL     1      30.760  22.857  27.091  0.00  0.00    +0.000 NA
ENDROOT
BRANCH   1   6
ATOM      6  C   UNL     1      29.629  23.397  29.146  0.00  0.00    +0.000 C 
ATOM      7  O   UNL     1      29.709  24.023  30.259  0.00  0.00    +0.000 OA
BRANCH   6   8
ATOM      8  O   UNL     1      28.907  22.310  28.959  0.00  0.00    +0.000 OA
BRANCH   8   9
ATOM      9  C   UNL     1      27.521  22.300  29.044  0.00  0.00    +0.000 C 
BRANCH   9  15
ATOM     10  N   UNL     1      26.004  24.133  28.398  0.00  0.00    +0.000 N 
ATOM     11  N   UNL     1      25.532  24.676  27.315  0.00  0.00    +0.000 NA
ATOM     12  C   UNL     1      25.998  24.074  26.223  0.00  0.00    +0.000 A 
ATOM     13  C   UNL     1      25.680  24.417  24.828  0.00  0.00    +0.000 C 
ATOM     14  C   UNL     1      26.841  23.058  26.653  0.00  0.00    +0.000 A 
ATOM     15  C   UNL     1      26.832  23.112  28.031  0.00  0.00    +0.000 A 
BRANCH  10  17
ATOM     16  C   UNL     1      24.980  25.934  29.659  0.00  0.00    +0.000 C 
ATOM     17  C   UNL     1      25.680  24.573  29.740  0.00  0.00    +0.000 C 
ENDBRANCH  10  17
ENDBRANCH   9  15
ENDBRANCH   8   9
ENDBRANCH   6   8
ENDBRANCH   1   6
BRANCH   5  18
ATOM     18  C   UNL     1      31.542  23.393  26.007  0.00  0.00    +0.000 C 
BRANCH  18  19
ATOM     19  C   UNL     1      30.598  23.729  24.906  0.00  0.00    +0.000 A 
ATOM     20  C   UNL     1      29.753  22.769  24.414  0.00  0.00    +0.000 A 
ATOM     21  C   UNL     1      28.865  23.058  23.390  0.00  0.00    +0.000 A 
ATOM     22  C   UNL     1      28.790  24.314  22.820  0.00  0.00    +0.000 A 
ATOM     23  C   UNL     1      27.842  24.636  21.720  0.00  0.00    +0.000 C 
ATOM     24  C   UNL     1      29.646  25.274  23.323  0.00  0.00    +0.000 A 
ATOM     25  C   UNL     1      30.530  24.986  24.344  0.00  0.00    +0.000 A 
ENDBRANCH  18  19
ENDBRANCH   5  18
TORSDOF 7
ENDMDL
