MODEL 1
REMARK VINA RESULT:      -6.5      0.000      0.000
REMARK  Name = 
REMARK  3 active torsions:
REMARK  status: ('A' for Active; 'I' for Inactive)
REMARK    1  A    between atoms: O_2  and  C_3
REMARK    2  A    between atoms: C_6  and  N_7
REMARK    3  A    between atoms: C_8  and  C_10
REMARK                            x       y       z     vdW  Elec       q    Type
REMARK                         _______ _______ _______ _____ _____    ______ ____
ROOT
ATOM      1  N   UNL     1      30.529  20.664  10.313  0.00  0.00    +0.000 NA
ATOM      2  C   UNL     1      31.281  21.137   9.210  0.00  0.00    +0.000 C 
ATOM      3  O   UNL     1      31.287  22.377   9.028  0.00  0.00    +0.000 OA
ENDROOT
BRANCH   2   4
ATOM      4  C   UNL     1      32.029  20.206   8.306  0.00  0.00    +0.000 A 
ATOM      5  C   UNL     1      33.211  19.646   8.705  0.00  0.00    +0.000 A 
ATOM      6  N   UNL     1      33.891  19.843   9.973  0.00  0.00    +0.000 NA
ATOM      7  S   UNL     1      33.668  18.690   7.373  0.00  0.00    +0.000 S 
ATOM      8  C   UNL     1      32.358  19.017   6.342  0.00  0.00    +0.000 A 
ATOM      9  C   UNL     1      31.583  19.874   7.064  0.00  0.00    +0.000 A 
ATOM     10  C   UNL     1      30.323  20.307   6.312  0.00  0.00    +0.000 C 
ATOM     11  C   UNL     1      29.628  19.003   5.948  0.00  0.00    +0.000 C 
ATOM     12  C   UNL     1      30.462  18.149   5.039  0.00  0.00    +0.000 C 
ATOM     13  C   UNL     1      31.896  18.622   4.957  0.00  0.00    +0.000 C 
ENDBRANCH   2   4
BRANCH   1  17
ATOM     14  C   UNL     1      28.636  23.331  12.974  0.00  0.00    +0.000 A 
ATOM     15  C   UNL     1      27.927  22.835  11.888  0.00  0.00    +0.000 A 
ATOM     16  C   UNL     1      28.518  21.948  10.981  0.00  0.00    +0.000 A 
ATOM     17  C   UNL     1      29.823  21.556  11.163  0.00  0.00    +0.000 A 
ATOM     18  C   UNL     1      30.503  22.063  12.249  0.00  0.00    +0.000 A 
ATOM     19  C   UNL     1      29.928  22.936  13.146  0.00  0.00    +0.000 A 
BRANCH  14  21
ATOM     20  C   UNL     1      28.650  25.074  14.697  0.00  0.00    +0.000 C 
ATOM     21  O   UNL     1      27.969  24.213  13.832  0.00  0.00    +0.000 OA
ENDBRANCH  14  21
ENDBRANCH   1  17
TORSDOF 3
ENDMDL
MODEL 2
REMARK VINA RESULT:      -6.4     29.395     31.926
REMARK  Name = 
REMARK  3 active torsions:
REMARK  status: ('A' for Active; 'I' for Inactive)
REMARK    1  A    between atoms: O_2  and  C_3
REMARK    2  A    between atoms: C_6  and  N_7
REMARK    3  A    between atoms: C_8  and  C_10
REMARK                            x       y       z     vdW  Elec       q    Type
REMARK                         _______ _______ _______ _____ _____    ______ ____
ROOT
ATOM      1  N   UNL     1      17.907   9.866  36.298  0.00  0.00    +0.000 NA
ATOM      2  C   UNL     1      18.580  10.609  37.298  0.00  0.00    +0.000 C 
ATOM      3  O   UNL     1      18.383  11.847  37.303  0.00  0.00    +0.000 OA
ENDROOT
BRANCH   2   4
ATOM      4  C   UNL     1      19.481   9.952  38.297  0.00  0.00    +0.000 A 
ATOM      5  C   UNL     1      18.963   9.265  39.359  0.00  0.00    +0.000 A 
ATOM      6  N   UNL     1      17.559   9.070  39.677  0.00  0.00    +0.000 NA
ATOM      7  S   UNL     1      20.344   8.715  40.190  0.00  0.00    +0.000 S 
ATOM      8  C   UNL     1      21.545   9.363  39.179  0.00  0.00    +0.000 A 
ATOM      9  C   UNL     1      20.839  10.002  38.205  0.00  0.00    +0.000 A 
ATOM     10  C   UNL     1      21.740  10.671  37.165  0.00  0.00    +0.000 C 
ATOM     11  C   UNL     1      22.627   9.547  36.648  0.00  0.00    +0.000 C 
ATOM     12  C   UNL     1      23.489   8.963  37.728  0.00  0.00    +0.000 C 
ATOM     13  C   UNL     1      23.056   9.395  39.111  0.00  0.00    +0.000 C 
ENDBRANCH   2   4
BRANCH   1  17
ATOM     14  C   UNL     1      15.523  11.663  33.320  0.00  0.00    +0.000 A 
ATOM     15  C   UNL     1      15.164  11.802  34.654  0.00  0.00    +0.000 A 
ATOM     16  C   UNL     1      15.928  11.222  35.673  0.00  0.00    +0.000 A 
ATOM     17  C   UNL     1      17.054  10.500  35.355  0.00  0.00    +0.000 A 
ATOM     18  C   UNL     1      17.387  10.378  34.023  0.00  0.00    +0.000 A 
ATOM     19  C   UNL     1      16.640  10.947  33.014  0.00  0.00    +0.000 A 
BRANCH  14  21
ATOM     20  C   UNL     1      14.552  11.767  31.072  0.00  0.00    +0.000 C 
ATOM     21  O   UNL     1      14.704  12.276  32.365  0.00  0.00    +0.000 OA
ENDBRANCH  14  21
ENDBRANCH   1  17
TORSDOF 3
ENDMDL
MODEL 3
REMARK VINA RESULT:      -6.4     31.056     33.593
REMARK  Name = 
REMARK  3 active torsions:
REMARK  status: ('A' for Active; 'I' for Inactive)
REMARK    1  A    between atoms: O_2  and  C_3
REMARK    2  A    between atoms: C_6  and  N_7
REMARK    3  A    between atoms: C_8  and  C_10
REMARK                            x       y       z     vdW  Elec       q    Type
REMARK                         _______ _______ _______ _____ _____    ______ ____
ROOT
ATOM      1  N   UNL     1      17.567  10.886  38.047  0.00  0.00    +0.000 NA
ATOM      2  C   UNL     1      16.896  10.454  36.876  0.00  0.00    +0.000 C 
ATOM      3  O   UNL     1      17.208   9.320  36.440  0.00  0.00    +0.000 OA
ENDROOT
BRANCH   2   4
ATOM      4  C   UNL     1      15.870  11.303  36.195  0.00  0.00    +0.000 A 
ATOM      5  C   UNL     1      16.075  11.760  34.922  0.00  0.00    +0.000 A 
ATOM      6  N   UNL     1      17.234  11.520  34.081  0.00  0.00    +0.000 NA
ATOM      7  S   UNL     1      14.667  12.658  34.590  0.00  0.00    +0.000 S 
ATOM      8  C   UNL     1      13.849  12.436  36.062  0.00  0.00    +0.000 A 
ATOM      9  C   UNL     1      14.699  11.660  36.791  0.00  0.00    +0.000 A 
ATOM     10  C   UNL     1      14.152  11.331  38.182  0.00  0.00    +0.000 C 
ATOM     11  C   UNL     1      12.799  10.685  37.917  0.00  0.00    +0.000 C 
ATOM     12  C   UNL     1      11.847  11.623  37.234  0.00  0.00    +0.000 C 
ATOM     13  C   UNL     1      12.538  12.853  36.690  0.00  0.00    +0.000 C 
ENDBRANCH   2   4
BRANCH   1  17
ATOM     14  C   UNL     1      20.629   8.599  39.827  0.00  0.00    +0.000 A 
ATOM     15  C   UNL     1      19.303   8.306  40.120  0.00  0.00    +0.000 A 
ATOM     16  C   UNL     1      18.257   9.041  39.550  0.00  0.00    +0.000 A 
ATOM     17  C   UNL     1      18.540  10.071  38.685  0.00  0.00    +0.000 A 
ATOM     18  C   UNL     1      19.863  10.340  38.412  0.00  0.00    +0.000 A 
ATOM     19  C   UNL     1      20.899   9.621  38.969  0.00  0.00    +0.000 A 
BRANCH  14  21
ATOM     20  C   UNL     1      21.344   6.544  40.956  0.00  0.00    +0.000 C 
ATOM     21  O   UNL     1      21.613   7.814  40.439  0.00  0.00    +0.000 OA
ENDBRANCH  14  21
ENDBRANCH   1  17
TORSDOF 3
ENDMDL
MODEL 4
REMARK VINA RESULT:      -6.3     30.122     33.293
REMARK  Name = 
REMARK  3 active torsions:
REMARK  status: ('A' for Active; 'I' for Inactive)
REMARK    1  A    between atoms: O_2  and  C_3
REMARK    2  A    between atoms: C_6  and  N_7
REMARK    3  A    between atoms: C_8  and  C_10
REMARK                            x       y       z     vdW  Elec       q    Type
REMARK                         _______ _______ _______ _____ _____    ______ ____
ROOT
ATOM      1  N   UNL     1      17.445   9.745  36.740  0.00  0.00    +0.000 NA
ATOM      2  C   UNL     1      18.173  10.423  37.748  0.00  0.00    +0.000 C 
ATOM      3  O   UNL     1      18.189  11.674  37.680  0.00  0.00    +0.000 OA
ENDROOT
BRANCH   2   4
ATOM      4  C   UNL     1      18.887   9.685  38.838  0.00  0.00    +0.000 A 
ATOM      5  C   UNL     1      20.245   9.527  38.800  0.00  0.00    +0.000 A 
ATOM      6  N   UNL     1      21.155  10.008  37.776  0.00  0.00    +0.000 NA
ATOM      7  S   UNL     1      20.582   8.646  40.218  0.00  0.00    +0.000 S 
ATOM      8  C   UNL     1      19.004   8.498  40.828  0.00  0.00    +0.000 A 
ATOM      9  C   UNL     1      18.238   9.143  39.904  0.00  0.00    +0.000 A 
ATOM     10  C   UNL     1      16.749   9.132  40.261  0.00  0.00    +0.000 C 
ATOM     11  C   UNL     1      16.686   9.744  41.653  0.00  0.00    +0.000 C 
ATOM     12  C   UNL     1      17.430   8.926  42.667  0.00  0.00    +0.000 C 
ATOM     13  C   UNL     1      18.320   7.883  42.028  0.00  0.00    +0.000 C 
ENDBRANCH   2   4
BRANCH   1  17
ATOM     14  C   UNL     1      15.601  11.751  33.522  0.00  0.00    +0.000 A 
ATOM     15  C   UNL     1      15.119  11.944  34.810  0.00  0.00    +0.000 A 
ATOM     16  C   UNL     1      15.703  11.297  35.906  0.00  0.00    +0.000 A 
ATOM     17  C   UNL     1      16.772  10.455  35.710  0.00  0.00    +0.000 A 
ATOM     18  C   UNL     1      17.229  10.282  34.422  0.00  0.00    +0.000 A 
ATOM     19  C   UNL     1      16.661  10.916  33.339  0.00  0.00    +0.000 A 
BRANCH  14  21
ATOM     20  C   UNL     1      15.531  12.580  31.217  0.00  0.00    +0.000 C 
ATOM     21  O   UNL     1      14.960  12.437  32.484  0.00  0.00    +0.000 OA
ENDBRANCH  14  21
ENDBRANCH   1  17
TORSDOF 3
ENDMDL
MODEL 5
REMARK VINA RESULT:      -6.2     14.958     18.327
REMARK  Name = 
REMARK  3 active torsions:
REMARK  status: ('A' for Active; 'I' for Inactive)
REMARK    1  A    between atoms: O_2  and  C_3
REMARK    2  A    between atoms: C_6  and  N_7
REMARK    3  A    between atoms: C_8  and  C_10
REMARK                            x       y       z     vdW  Elec       q    Type
REMARK                         _______ _______ _______ _____ _____    ______ ____
ROOT
ATOM      1  N   UNL     1      29.503  23.417  27.606  0.00  0.00    +0.000 NA
ATOM      2  C   UNL     1      28.418  22.724  27.015  0.00  0.00    +0.000 C 
ATOM      3  O   UNL     1      28.141  21.601  27.500  0.00  0.00    +0.000 OA
ENDROOT
BRANCH   2   4
ATOM      4  C   UNL     1      27.641  23.299  25.872  0.00  0.00    +0.000 A 
ATOM      5  C   UNL     1      26.401  23.839  26.073  0.00  0.00    +0.000 A 
ATOM      6  N   UNL     1      25.681  23.938  27.330  0.00  0.00    +0.000 NA
ATOM      7  S   UNL     1      25.932  24.348  24.517  0.00  0.00    +0.000 S 
ATOM      8  C   UNL     1      27.311  23.870  23.648  0.00  0.00    +0.000 A 
ATOM      9  C   UNL     1      28.117  23.317  24.597  0.00  0.00    +0.000 A 
ATOM     10  C   UNL     1      29.441  22.808  24.024  0.00  0.00    +0.000 C 
ATOM     11  C   UNL     1      30.047  24.019  23.329  0.00  0.00    +0.000 C 
ATOM     12  C   UNL     1      29.190  24.513  22.199  0.00  0.00    +0.000 C 
ATOM     13  C   UNL     1      27.804  23.909  22.219  0.00  0.00    +0.000 C 
ENDBRANCH   2   4
BRANCH   1  17
ATOM     14  C   UNL     1      31.840  21.691  30.662  0.00  0.00    +0.000 A 
ATOM     15  C   UNL     1      30.648  22.323  30.992  0.00  0.00    +0.000 A 
ATOM     16  C   UNL     1      29.843  22.908  30.007  0.00  0.00    +0.000 A 
ATOM     17  C   UNL     1      30.233  22.860  28.690  0.00  0.00    +0.000 A 
ATOM     18  C   UNL     1      31.420  22.227  28.391  0.00  0.00    +0.000 A 
ATOM     19  C   UNL     1      32.218  21.648  29.354  0.00  0.00    +0.000 A 
BRANCH  14  21
ATOM     20  C   UNL     1      33.944  20.835  31.583  0.00  0.00    +0.000 C 
ATOM     21  O   UNL     1      32.584  21.132  31.707  0.00  0.00    +0.000 OA
ENDBRANCH  14  21
ENDBRANCH   1  17
TORSDOF 3
ENDMDL
MODEL 6
REMARK VINA RESULT:      -5.9     34.245     35.039
REMARK  Name = 
REMARK  3 active torsions:
REMARK  status: ('A' for Active; 'I' for Inactive)
REMARK    1  A    between atoms: O_2  and  C_3
REMARK    2  A    between atoms: C_6  and  N_7
REMARK    3  A    between atoms: C_8  and  C_10
REMARK                            x       y       z     vdW  Elec       q    Type
REMARK                         _______ _______ _______ _____ _____    ______ ____
ROOT
ATOM      1  N   UNL     1      22.247  -7.558  25.561  0.00  0.00    +0.000 NA
ATOM      2  C   UNL     1      20.922  -7.835  25.146  0.00  0.00    +0.000 C 
ATOM      3  O   UNL     1      20.784  -8.300  23.990  0.00  0.00    +0.000 OA
ENDROOT
BRANCH   2   4
ATOM      4  C   UNL     1      19.746  -7.586  26.038  0.00  0.00    +0.000 A 
ATOM      5  C   UNL     1      19.224  -6.330  26.171  0.00  0.00    +0.000 A 
ATOM      6  N   UNL     1      19.685  -5.116  25.521  0.00  0.00    +0.000 NA
ATOM      7  S   UNL     1      17.935  -6.547  27.262  0.00  0.00    +0.000 S 
ATOM      8  C   UNL     1      18.082  -8.219  27.527  0.00  0.00    +0.000 A 
ATOM      9  C   UNL     1      19.144  -8.577  26.752  0.00  0.00    +0.000 A 
ATOM     10  C   UNL     1      19.460 -10.072  26.839  0.00  0.00    +0.000 C 
ATOM     11  C   UNL     1      18.157 -10.761  26.459  0.00  0.00    +0.000 C 
ATOM     12  C   UNL     1      17.047 -10.447  27.418  0.00  0.00    +0.000 C 
ATOM     13  C   UNL     1      17.385  -9.291  28.334  0.00  0.00    +0.000 C 
ENDBRANCH   2   4
BRANCH   1  17
ATOM     14  C   UNL     1      25.559  -8.027  22.995  0.00  0.00    +0.000 A 
ATOM     15  C   UNL     1      24.942  -9.154  23.521  0.00  0.00    +0.000 A 
ATOM     16  C   UNL     1      23.839  -9.042  24.376  0.00  0.00    +0.000 A 
ATOM     17  C   UNL     1      23.355  -7.798  24.705  0.00  0.00    +0.000 A 
ATOM     18  C   UNL     1      23.987  -6.697  24.170  0.00  0.00    +0.000 A 
ATOM     19  C   UNL     1      25.072  -6.799  23.326  0.00  0.00    +0.000 A 
BRANCH  14  21
ATOM     20  C   UNL     1      27.789  -7.413  22.184  0.00  0.00    +0.000 C 
ATOM     21  O   UNL     1      26.655  -8.228  22.147  0.00  0.00    +0.000 OA
ENDBRANCH  14  21
ENDBRANCH   1  17
TORSDOF 3
ENDMDL
MODEL 7
REMARK VINA RESULT:      -5.9     15.470     18.360
REMARK  Name = 
REMARK  3 active torsions:
REMARK  status: ('A' for Active; 'I' for Inactive)
REMARK    1  A    between atoms: O_2  and  C_3
REMARK    2  A    between atoms: C_6  and  N_7
REMARK    3  A    between atoms: C_8  and  C_10
REMARK                            x       y       z     vdW  Elec       q    Type
REMARK                         _______ _______ _______ _____ _____    ______ ____
ROOT
ATOM      1  N   UNL     1      30.379  23.469  27.666  0.00  0.00    +0.000 NA
ATOM      2  C   UNL     1      29.915  22.686  26.581  0.00  0.00    +0.000 C 
ATOM      3  O   UNL     1      29.838  21.450  26.777  0.00  0.00    +0.000 OA
ENDROOT
BRANCH   2   4
ATOM      4  C   UNL     1      29.536  23.298  25.269  0.00  0.00    +0.000 A 
ATOM      5  C   UNL     1      30.472  23.485  24.290  0.00  0.00    +0.000 A 
ATOM      6  N   UNL     1      31.883  23.149  24.350  0.00  0.00    +0.000 NA
ATOM      7  S   UNL     1      29.584  24.194  23.021  0.00  0.00    +0.000 S 
ATOM      8  C   UNL     1      28.052  24.238  23.753  0.00  0.00    +0.000 A 
ATOM      9  C   UNL     1      28.265  23.695  24.985  0.00  0.00    +0.000 A 
ATOM     10  C   UNL     1      26.992  23.636  25.832  0.00  0.00    +0.000 C 
ATOM     11  C   UNL     1      26.001  22.859  24.978  0.00  0.00    +0.000 C 
ATOM     12  C   UNL     1      25.689  23.562  23.689  0.00  0.00    +0.000 C 
ATOM     13  C   UNL     1      26.653  24.691  23.399  0.00  0.00    +0.000 C 
ENDBRANCH   2   4
BRANCH   1  17
ATOM     14  C   UNL     1      31.217  21.770  31.433  0.00  0.00    +0.000 A 
ATOM     15  C   UNL     1      32.182  21.723  30.436  0.00  0.00    +0.000 A 
ATOM     16  C   UNL     1      31.944  22.276  29.172  0.00  0.00    +0.000 A 
ATOM     17  C   UNL     1      30.736  22.876  28.906  0.00  0.00    +0.000 A 
ATOM     18  C   UNL     1      29.797  22.908  29.914  0.00  0.00    +0.000 A 
ATOM     19  C   UNL     1      30.024  22.368  31.161  0.00  0.00    +0.000 A 
BRANCH  14  21
ATOM     20  C   UNL     1      30.696  21.293  33.780  0.00  0.00    +0.000 C 
ATOM     21  O   UNL     1      31.537  21.195  32.668  0.00  0.00    +0.000 OA
ENDBRANCH  14  21
ENDBRANCH   1  17
TORSDOF 3
ENDMDL
MODEL 8
REMARK VINA RESULT:      -5.9     14.944     19.491
REMARK  Name = 
REMARK  3 active torsions:
REMARK  status: ('A' for Active; 'I' for Inactive)
REMARK    1  A    between atoms: O_2  and  C_3
REMARK    2  A    between atoms: C_6  and  N_7
REMARK    3  A    between atoms: C_8  and  C_10
REMARK                            x       y       z     vdW  Elec       q    Type
REMARK                         _______ _______ _______ _____ _____    ______ ____
ROOT
ATOM      1  N   UNL     1      29.791  22.240  27.346  0.00  0.00    +0.000 NA
ATOM      2  C   UNL     1      29.777  23.171  28.413  0.00  0.00    +0.000 C 
ATOM      3  O   UNL     1      29.425  24.341  28.131  0.00  0.00    +0.000 OA
ENDROOT
BRANCH   2   4
ATOM      4  C   UNL     1      30.163  22.781  29.806  0.00  0.00    +0.000 A 
ATOM      5  C   UNL     1      29.207  22.520  30.748  0.00  0.00    +0.000 A 
ATOM      6  N   UNL     1      27.766  22.573  30.573  0.00  0.00    +0.000 NA
ATOM      7  S   UNL     1      30.112  22.131  32.137  0.00  0.00    +0.000 S 
ATOM      8  C   UNL     1      31.676  22.305  31.499  0.00  0.00    +0.000 A 
ATOM      9  C   UNL     1      31.460  22.667  30.204  0.00  0.00    +0.000 A 
ATOM     10  C   UNL     1      32.760  22.881  29.425  0.00  0.00    +0.000 C 
ATOM     11  C   UNL     1      33.519  21.571  29.582  0.00  0.00    +0.000 C 
ATOM     12  C   UNL     1      33.857  21.278  31.014  0.00  0.00    +0.000 C 
ATOM     13  C   UNL     1      33.104  22.167  31.979  0.00  0.00    +0.000 C 
ENDBRANCH   2   4
BRANCH   1  17
ATOM     14  C   UNL     1      28.939  23.385  23.378  0.00  0.00    +0.000 A 
ATOM     15  C   UNL     1      27.890  23.148  24.258  0.00  0.00    +0.000 A 
ATOM     16  C   UNL     1      28.130  22.766  25.583  0.00  0.00    +0.000 A 
ATOM     17  C   UNL     1      29.423  22.622  26.028  0.00  0.00    +0.000 A 
ATOM     18  C   UNL     1      30.443  22.863  25.134  0.00  0.00    +0.000 A 
ATOM     19  C   UNL     1      30.216  23.240  23.828  0.00  0.00    +0.000 A 
BRANCH  14  21
ATOM     20  C   UNL     1      29.237  24.829  21.420  0.00  0.00    +0.000 C 
ATOM     21  O   UNL     1      28.611  23.763  22.071  0.00  0.00    +0.000 OA
ENDBRANCH  14  21
ENDBRANCH   1  17
TORSDOF 3
ENDMDL
MODEL 9
REMARK VINA RESULT:      -5.8     14.854     17.289
REMARK  Name = 
REMARK  3 active torsions:
REMARK  status: ('A' for Active; 'I' for Inactive)
REMARK    1  A    between atoms: O_2  and  C_3
REMARK    2  A    between atoms: C_6  and  N_7
REMARK    3  A    between atoms: C_8  and  C_10
REMARK                            x       y       z     vdW  Elec       q    Type
REMARK                         _______ _______ _______ _____ _____    ______ ____
ROOT
ATOM      1  N   UNL     1      25.746  25.791  25.225  0.00  0.00    +0.000 NA
ATOM      2  C   UNL     1      26.066  24.642  24.462  0.00  0.00    +0.000 C 
ATOM      3  O   UNL     1      25.120  23.861  24.204  0.00  0.00    +0.000 OA
ENDROOT
BRANCH   2   4
ATOM      4  C   UNL     1      27.460  24.372  23.988  0.00  0.00    +0.000 A 
ATOM      5  C   UNL     1      27.965  25.023  22.897  0.00  0.00    +0.000 A 
ATOM      6  N   UNL     1      27.289  26.010  22.074  0.00  0.00    +0.000 NA
ATOM      7  S   UNL     1      29.542  24.396  22.754  0.00  0.00    +0.000 S 
ATOM      8  C   UNL     1      29.530  23.327  24.074  0.00  0.00    +0.000 A 
ATOM      9  C   UNL     1      28.285  23.481  24.605  0.00  0.00    +0.000 A 
ATOM     10  C   UNL     1      28.051  22.594  25.830  0.00  0.00    +0.000 C 
ATOM     11  C   UNL     1      29.179  22.957  26.785  0.00  0.00    +0.000 C 
ATOM     12  C   UNL     1      30.531  22.644  26.214  0.00  0.00    +0.000 C 
ATOM     13  C   UNL     1      30.476  22.347  24.731  0.00  0.00    +0.000 C 
ENDBRANCH   2   4
BRANCH   1  17
ATOM     14  C   UNL     1      21.875  26.437  26.766  0.00  0.00    +0.000 A 
ATOM     15  C   UNL     1      22.142  26.758  25.441  0.00  0.00    +0.000 A 
ATOM     16  C   UNL     1      23.413  26.558  24.891  0.00  0.00    +0.000 A 
ATOM     17  C   UNL     1      24.419  26.037  25.670  0.00  0.00    +0.000 A 
ATOM     18  C   UNL     1      24.127  25.729  26.980  0.00  0.00    +0.000 A 
ATOM     19  C   UNL     1      22.878  25.922  27.529  0.00  0.00    +0.000 A 
BRANCH  14  21
ATOM     20  C   UNL     1      20.076  26.050  28.385  0.00  0.00    +0.000 C 
ATOM     21  O   UNL     1      20.577  26.668  27.236  0.00  0.00    +0.000 OA
ENDBRANCH  14  21
ENDBRANCH   1  17
TORSDOF 3
ENDMDL
MODEL 10
REMARK VINA RESULT:      -5.7     18.226     18.747
REMARK  Name = 
REMARK  3 active torsions:
REMARK  status: ('A' for Active; 'I' for Inactive)
REMARK    1  A    between atoms: O_2  and  C_3
REMARK    2  A    between atoms: C_6  and  N_7
REMARK    3  A    between atoms: C_8  and  C_10
REMARK                            x       y       z     vdW  Elec       q    Type
REMARK                         _______ _______ _______ _____ _____    ______ ____
ROOT
ATOM      1  N   UNL     1      25.852   4.172  16.489  0.00  0.00    +0.000 NA
ATOM      2  C   UNL     1      26.053   5.516  16.889  0.00  0.00    +0.000 C 
ATOM      3  O   UNL     1      25.120   6.052  17.532  0.00  0.00    +0.000 OA
ENDROOT
BRANCH   2   4
ATOM      4  C   UNL     1      27.311   6.258  16.562  0.00  0.00    +0.000 A 
ATOM      5  C   UNL     1      28.319   6.361  17.480  0.00  0.00    +0.000 A 
ATOM      6  N   UNL     1      28.341   5.811  18.824  0.00  0.00    +0.000 NA
ATOM      7  S   UNL     1      29.505   7.273  16.667  0.00  0.00    +0.000 S 
ATOM      8  C   UNL     1      28.704   7.504  15.188  0.00  0.00    +0.000 A 
ATOM      9  C   UNL     1      27.515   6.860  15.359  0.00  0.00    +0.000 A 
ATOM     10  C   UNL     1      26.616   6.942  14.123  0.00  0.00    +0.000 C 
ATOM     11  C   UNL     1      27.467   6.379  12.993  0.00  0.00    +0.000 C 
ATOM     12  C   UNL     1      28.700   7.199  12.748  0.00  0.00    +0.000 C 
ATOM     13  C   UNL     1      28.970   8.184  13.863  0.00  0.00    +0.000 C 
ENDBRANCH   2   4
BRANCH   1  17
ATOM     14  C   UNL     1      22.392   2.060  17.646  0.00  0.00    +0.000 A 
ATOM     15  C   UNL     1      22.448   2.634  16.383  0.00  0.00    +0.000 A 
ATOM     16  C   UNL     1      23.578   3.343  15.960  0.00  0.00    +0.000 A 
ATOM     17  C   UNL     1      24.654   3.477  16.804  0.00  0.00    +0.000 A 
ATOM     18  C   UNL     1      24.571   2.899  18.052  0.00  0.00    +0.000 A 
ATOM     19  C   UNL     1      23.463   2.198  18.476  0.00  0.00    +0.000 A 
BRANCH  14  21
ATOM     20  C   UNL     1      20.077   1.394  17.192  0.00  0.00    +0.000 C 
ATOM     21  O   UNL     1      21.224   1.368  17.989  0.00  0.00    +0.000 OA
ENDBRANCH  14  21
ENDBRANCH   1  17
TORSDOF 3
ENDMDL
