MODEL 1
REMARK VINA RESULT:      -6.8      0.000      0.000
REMARK  Name = 
REMARK  3 active torsions:
REMARK  status: ('A' for Active; 'I' for Inactive)
REMARK    1  A    between atoms: C_4  and  N_5
REMARK    2  A    between atoms: N_5  and  N_6
REMARK    3  A    between atoms: C_7  and  C_9
REMARK                            x       y       z     vdW  Elec       q    Type
REMARK                         _______ _______ _______ _____ _____    ______ ____
ROOT
ATOM      1  N   UNL     1      19.141   9.569  37.494  0.00  0.00    +0.000 NA
ENDROOT
BRANCH   1   5
ATOM      2  C   UNL     1      22.988  11.338  39.919  0.00  0.00    +0.000 C 
ATOM      3  C   UNL     1      21.784  11.605  38.844  0.00  0.00    +0.000 C 
ATOM      4  C   UNL     1      21.213  10.087  38.940  0.00  0.00    +0.000 C 
ATOM      5  C   UNL     1      20.515   9.816  37.663  0.00  0.00    +0.000 C 
ATOM      6  C   UNL     1      21.311   9.821  36.609  0.00  0.00    +0.000 C 
ATOM      7  C   UNL     1      22.743  10.109  37.003  0.00  0.00    +0.000 C 
ATOM      8  C   UNL     1      23.654  10.041  35.852  0.00  0.00    +0.000 C 
ATOM      9  C   UNL     1      23.173   9.127  38.092  0.00  0.00    +0.000 C 
ATOM     10  C   UNL     1      22.745  11.457  37.559  0.00  0.00    +0.000 C 
ENDBRANCH   1   5
BRANCH   1  11
ATOM     11  N   UNL     1      18.355  10.315  36.593  0.00  0.00    +0.000 NA
ATOM     12  C   UNL     1      17.625   9.747  35.545  0.00  0.00    +0.000 C 
ATOM     13  O   UNL     1      17.684   8.496  35.413  0.00  0.00    +0.000 OA
BRANCH  12  14
ATOM     14  C   UNL     1      16.812  10.519  34.613  0.00  0.00    +0.000 A 
ATOM     15  C   UNL     1      17.041  10.429  33.247  0.00  0.00    +0.000 A 
ATOM     16  C   UNL     1      16.288  11.149  32.350  0.00  0.00    +0.000 A 
ATOM     17  C   UNL     1      15.297  11.970  32.799  0.00  0.00    +0.000 A 
ATOM     18  C   UNL     1      15.030  12.093  34.165  0.00  0.00    +0.000 A 
ATOM     19  C   UNL     1      15.816  11.347  35.026  0.00  0.00    +0.000 A 
ATOM     20  F   UNL     1      15.596  11.431  36.380  0.00  0.00    +0.000 F 
ENDBRANCH  12  14
ENDBRANCH   1  11
TORSDOF 3
ENDMDL
MODEL 2
REMARK VINA RESULT:      -6.7     18.025     20.790
REMARK  Name = 
REMARK  3 active torsions:
REMARK  status: ('A' for Active; 'I' for Inactive)
REMARK    1  A    between atoms: C_4  and  N_5
REMARK    2  A    between atoms: N_5  and  N_6
REMARK    3  A    between atoms: C_7  and  C_9
REMARK                            x       y       z     vdW  Elec       q    Type
REMARK                         _______ _______ _______ _____ _____    ______ ____
ROOT
ATOM      1  N   UNL     1      33.327  -3.898  34.020  0.00  0.00    +0.000 NA
ENDROOT
BRANCH   1   5
ATOM      2  C   UNL     1      35.608  -7.980  32.626  0.00  0.00    +0.000 C 
ATOM      3  C   UNL     1      35.677  -6.362  32.852  0.00  0.00    +0.000 C 
ATOM      4  C   UNL     1      34.138  -6.256  33.362  0.00  0.00    +0.000 C 
ATOM      5  C   UNL     1      33.690  -4.875  33.076  0.00  0.00    +0.000 C 
ATOM      6  C   UNL     1      33.650  -4.584  31.788  0.00  0.00    +0.000 C 
ATOM      7  C   UNL     1      34.080  -5.764  30.944  0.00  0.00    +0.000 C 
ATOM      8  C   UNL     1      33.966  -5.482  29.507  0.00  0.00    +0.000 C 
ATOM      9  C   UNL     1      33.246  -6.986  31.325  0.00  0.00    +0.000 C 
ATOM     10  C   UNL     1      35.473  -6.020  31.291  0.00  0.00    +0.000 C 
ENDBRANCH   1   5
BRANCH   1  11
ATOM     11  N   UNL     1      33.233  -2.532  33.681  0.00  0.00    +0.000 NA
ATOM     12  C   UNL     1      34.021  -1.534  34.260  0.00  0.00    +0.000 C 
ATOM     13  O   UNL     1      34.857  -1.890  35.132  0.00  0.00    +0.000 OA
BRANCH  12  14
ATOM     14  C   UNL     1      33.923  -0.121  33.911  0.00  0.00    +0.000 A 
ATOM     15  C   UNL     1      34.222   0.302  32.624  0.00  0.00    +0.000 A 
ATOM     16  C   UNL     1      34.140   1.628  32.272  0.00  0.00    +0.000 A 
ATOM     17  C   UNL     1      33.760   2.554  33.198  0.00  0.00    +0.000 A 
ATOM     18  C   UNL     1      33.450   2.175  34.508  0.00  0.00    +0.000 A 
ATOM     19  C   UNL     1      33.548   0.829  34.809  0.00  0.00    +0.000 A 
ATOM     20  F   UNL     1      33.255   0.401  36.082  0.00  0.00    +0.000 F 
ENDBRANCH  12  14
ENDBRANCH   1  11
TORSDOF 3
ENDMDL
MODEL 3
REMARK VINA RESULT:      -6.6      3.612      4.721
REMARK  Name = 
REMARK  3 active torsions:
REMARK  status: ('A' for Active; 'I' for Inactive)
REMARK    1  A    between atoms: C_4  and  N_5
REMARK    2  A    between atoms: N_5  and  N_6
REMARK    3  A    between atoms: C_7  and  C_9
REMARK                            x       y       z     vdW  Elec       q    Type
REMARK                         _______ _______ _______ _____ _____    ______ ____
ROOT
ATOM      1  N   UNL     1      18.704   9.164  38.390  0.00  0.00    +0.000 NA
ENDROOT
BRANCH   1   5
ATOM      2  C   UNL     1      16.772   9.743  42.833  0.00  0.00    +0.000 C 
ATOM      3  C   UNL     1      18.117   9.579  41.917  0.00  0.00    +0.000 C 
ATOM      4  C   UNL     1      17.287   9.444  40.527  0.00  0.00    +0.000 C 
ATOM      5  C   UNL     1      18.149   8.687  39.590  0.00  0.00    +0.000 C 
ATOM      6  C   UNL     1      18.390   7.447  39.972  0.00  0.00    +0.000 C 
ATOM      7  C   UNL     1      17.706   7.134  41.286  0.00  0.00    +0.000 C 
ATOM      8  C   UNL     1      17.900   5.733  41.686  0.00  0.00    +0.000 C 
ATOM      9  C   UNL     1      16.219   7.463  41.172  0.00  0.00    +0.000 C 
ATOM     10  C   UNL     1      18.309   8.020  42.275  0.00  0.00    +0.000 C 
ENDBRANCH   1   5
BRANCH   1  11
ATOM     11  N   UNL     1      17.904   9.491  37.276  0.00  0.00    +0.000 NA
ATOM     12  C   UNL     1      17.726  10.794  36.803  0.00  0.00    +0.000 C 
ATOM     13  O   UNL     1      18.322  11.717  37.419  0.00  0.00    +0.000 OA
BRANCH  12  14
ATOM     14  C   UNL     1      16.898  11.131  35.651  0.00  0.00    +0.000 A 
ATOM     15  C   UNL     1      15.713  11.831  35.824  0.00  0.00    +0.000 A 
ATOM     16  C   UNL     1      14.916  12.158  34.753  0.00  0.00    +0.000 A 
ATOM     17  C   UNL     1      15.286  11.792  33.494  0.00  0.00    +0.000 A 
ATOM     18  C   UNL     1      16.471  11.086  33.270  0.00  0.00    +0.000 A 
ATOM     19  C   UNL     1      17.238  10.782  34.381  0.00  0.00    +0.000 A 
ATOM     20  F   UNL     1      18.413  10.088  34.219  0.00  0.00    +0.000 F 
ENDBRANCH  12  14
ENDBRANCH   1  11
TORSDOF 3
ENDMDL
MODEL 4
REMARK VINA RESULT:      -6.5     19.004     21.546
REMARK  Name = 
REMARK  3 active torsions:
REMARK  status: ('A' for Active; 'I' for Inactive)
REMARK    1  A    between atoms: C_4  and  N_5
REMARK    2  A    between atoms: N_5  and  N_6
REMARK    3  A    between atoms: C_7  and  C_9
REMARK                            x       y       z     vdW  Elec       q    Type
REMARK                         _______ _______ _______ _____ _____    ______ ____
ROOT
ATOM      1  N   UNL     1      33.209  -4.609  34.039  0.00  0.00    +0.000 NA
ENDROOT
BRANCH   1   5
ATOM      2  C   UNL     1      32.941  -0.638  36.861  0.00  0.00    +0.000 C 
ATOM      3  C   UNL     1      32.244  -1.574  35.715  0.00  0.00    +0.000 C 
ATOM      4  C   UNL     1      33.478  -2.630  35.671  0.00  0.00    +0.000 C 
ATOM      5  C   UNL     1      33.452  -3.255  34.329  0.00  0.00    +0.000 C 
ATOM      6  C   UNL     1      33.683  -2.409  33.342  0.00  0.00    +0.000 C 
ATOM      7  C   UNL     1      33.916  -1.007  33.864  0.00  0.00    +0.000 C 
ATOM      8  C   UNL     1      34.252  -0.069  32.784  0.00  0.00    +0.000 C 
ATOM      9  C   UNL     1      35.020  -1.039  34.918  0.00  0.00    +0.000 C 
ATOM     10  C   UNL     1      32.668  -0.603  34.501  0.00  0.00    +0.000 C 
ENDBRANCH   1   5
BRANCH   1  11
ATOM     11  N   UNL     1      33.189  -5.097  32.716  0.00  0.00    +0.000 NA
ATOM     12  C   UNL     1      34.306  -5.636  32.071  0.00  0.00    +0.000 C 
ATOM     13  O   UNL     1      35.383  -5.681  32.723  0.00  0.00    +0.000 OA
BRANCH  12  14
ATOM     14  C   UNL     1      34.286  -6.140  30.703  0.00  0.00    +0.000 A 
ATOM     15  C   UNL     1      33.692  -5.397  29.694  0.00  0.00    +0.000 A 
ATOM     16  C   UNL     1      33.659  -5.853  28.397  0.00  0.00    +0.000 A 
ATOM     17  C   UNL     1      34.217  -7.058  28.088  0.00  0.00    +0.000 A 
ATOM     18  C   UNL     1      34.826  -7.842  29.071  0.00  0.00    +0.000 A 
ATOM     19  C   UNL     1      34.833  -7.337  30.359  0.00  0.00    +0.000 A 
ATOM     20  F   UNL     1      35.418  -8.067  31.365  0.00  0.00    +0.000 F 
ENDBRANCH  12  14
ENDBRANCH   1  11
TORSDOF 3
ENDMDL
MODEL 5
REMARK VINA RESULT:      -6.4     18.494     21.229
REMARK  Name = 
REMARK  3 active torsions:
REMARK  status: ('A' for Active; 'I' for Inactive)
REMARK    1  A    between atoms: C_4  and  N_5
REMARK    2  A    between atoms: N_5  and  N_6
REMARK    3  A    between atoms: C_7  and  C_9
REMARK                            x       y       z     vdW  Elec       q    Type
REMARK                         _______ _______ _______ _____ _____    ______ ____
ROOT
ATOM      1  N   UNL     1      33.548  -4.928  33.127  0.00  0.00    +0.000 NA
ENDROOT
BRANCH   1   5
ATOM      2  C   UNL     1      33.598  -5.954  28.357  0.00  0.00    +0.000 C 
ATOM      3  C   UNL     1      32.716  -5.670  29.705  0.00  0.00    +0.000 C 
ATOM      4  C   UNL     1      34.022  -5.479  30.652  0.00  0.00    +0.000 C 
ATOM      5  C   UNL     1      33.596  -5.808  32.031  0.00  0.00    +0.000 C 
ATOM      6  C   UNL     1      33.234  -7.068  32.191  0.00  0.00    +0.000 C 
ATOM      7  C   UNL     1      33.355  -7.842  30.896  0.00  0.00    +0.000 C 
ATOM      8  C   UNL     1      33.031  -9.264  31.074  0.00  0.00    +0.000 C 
ATOM      9  C   UNL     1      34.768  -7.675  30.339  0.00  0.00    +0.000 C 
ATOM     10  C   UNL     1      32.410  -7.230  29.971  0.00  0.00    +0.000 C 
ENDBRANCH   1   5
BRANCH   1  11
ATOM     11  N   UNL     1      33.375  -3.539  32.960  0.00  0.00    +0.000 NA
ATOM     12  C   UNL     1      33.766  -2.589  33.908  0.00  0.00    +0.000 C 
ATOM     13  O   UNL     1      34.301  -3.015  34.966  0.00  0.00    +0.000 OA
BRANCH  12  14
ATOM     14  C   UNL     1      33.587  -1.152  33.736  0.00  0.00    +0.000 A 
ATOM     15  C   UNL     1      34.380  -0.453  32.837  0.00  0.00    +0.000 A 
ATOM     16  C   UNL     1      34.231   0.903  32.660  0.00  0.00    +0.000 A 
ATOM     17  C   UNL     1      33.291   1.581  33.377  0.00  0.00    +0.000 A 
ATOM     18  C   UNL     1      32.470   0.920  34.294  0.00  0.00    +0.000 A 
ATOM     19  C   UNL     1      32.660  -0.443  34.434  0.00  0.00    +0.000 A 
ATOM     20  F   UNL     1      31.880  -1.144  35.323  0.00  0.00    +0.000 F 
ENDBRANCH  12  14
ENDBRANCH   1  11
TORSDOF 3
ENDMDL
MODEL 6
REMARK VINA RESULT:      -6.3     17.855     19.804
REMARK  Name = 
REMARK  3 active torsions:
REMARK  status: ('A' for Active; 'I' for Inactive)
REMARK    1  A    between atoms: C_4  and  N_5
REMARK    2  A    between atoms: N_5  and  N_6
REMARK    3  A    between atoms: C_7  and  C_9
REMARK                            x       y       z     vdW  Elec       q    Type
REMARK                         _______ _______ _______ _____ _____    ______ ____
ROOT
ATOM      1  N   UNL     1      30.110  22.345  25.264  0.00  0.00    +0.000 NA
ENDROOT
BRANCH   1   5
ATOM      2  C   UNL     1      25.624  24.117  26.001  0.00  0.00    +0.000 C 
ATOM      3  C   UNL     1      26.558  22.854  25.545  0.00  0.00    +0.000 C 
ATOM      4  C   UNL     1      27.950  23.666  25.755  0.00  0.00    +0.000 C 
ATOM      5  C   UNL     1      28.949  23.031  24.866  0.00  0.00    +0.000 C 
ATOM      6  C   UNL     1      28.669  23.148  23.581  0.00  0.00    +0.000 C 
ATOM      7  C   UNL     1      27.381  23.914  23.366  0.00  0.00    +0.000 C 
ATOM      8  C   UNL     1      27.097  24.121  21.940  0.00  0.00    +0.000 C 
ATOM      9  C   UNL     1      27.460  25.249  24.102  0.00  0.00    +0.000 C 
ATOM     10  C   UNL     1      26.328  23.106  23.970  0.00  0.00    +0.000 C 
ENDBRANCH   1   5
BRANCH   1  11
ATOM     11  N   UNL     1      30.330  21.967  26.604  0.00  0.00    +0.000 NA
ATOM     12  C   UNL     1      31.131  22.689  27.492  0.00  0.00    +0.000 C 
ATOM     13  O   UNL     1      31.679  23.735  27.055  0.00  0.00    +0.000 OA
BRANCH  12  14
ATOM     14  C   UNL     1      31.359  22.298  28.879  0.00  0.00    +0.000 A 
ATOM     15  C   UNL     1      32.508  21.603  29.228  0.00  0.00    +0.000 A 
ATOM     16  C   UNL     1      32.744  21.222  30.527  0.00  0.00    +0.000 A 
ATOM     17  C   UNL     1      31.837  21.526  31.498  0.00  0.00    +0.000 A 
ATOM     18  C   UNL     1      30.665  22.224  31.195  0.00  0.00    +0.000 A 
ATOM     19  C   UNL     1      30.477  22.585  29.872  0.00  0.00    +0.000 A 
ATOM     20  F   UNL     1      29.340  23.272  29.518  0.00  0.00    +0.000 F 
ENDBRANCH  12  14
ENDBRANCH   1  11
TORSDOF 3
ENDMDL
MODEL 7
REMARK VINA RESULT:      -6.3      3.858      6.582
REMARK  Name = 
REMARK  3 active torsions:
REMARK  status: ('A' for Active; 'I' for Inactive)
REMARK    1  A    between atoms: C_4  and  N_5
REMARK    2  A    between atoms: N_5  and  N_6
REMARK    3  A    between atoms: C_7  and  C_9
REMARK                            x       y       z     vdW  Elec       q    Type
REMARK                         _______ _______ _______ _____ _____    ______ ____
ROOT
ATOM      1  N   UNL     1      18.540   9.168  38.503  0.00  0.00    +0.000 NA
ENDROOT
BRANCH   1   5
ATOM      2  C   UNL     1      16.694   9.740  42.983  0.00  0.00    +0.000 C 
ATOM      3  C   UNL     1      18.020   9.561  42.043  0.00  0.00    +0.000 C 
ATOM      4  C   UNL     1      17.164   9.454  40.666  0.00  0.00    +0.000 C 
ATOM      5  C   UNL     1      17.996   8.690  39.708  0.00  0.00    +0.000 C 
ATOM      6  C   UNL     1      18.221   7.442  40.075  0.00  0.00    +0.000 C 
ATOM      7  C   UNL     1      17.554   7.129  41.398  0.00  0.00    +0.000 C 
ATOM      8  C   UNL     1      17.729   5.722  41.782  0.00  0.00    +0.000 C 
ATOM      9  C   UNL     1      16.072   7.487  41.311  0.00  0.00    +0.000 C 
ATOM     10  C   UNL     1      18.190   7.995  42.383  0.00  0.00    +0.000 C 
ENDBRANCH   1   5
BRANCH   1  11
ATOM     11  N   UNL     1      19.903   9.508  38.383  0.00  0.00    +0.000 NA
ATOM     12  C   UNL     1      20.531   9.777  37.164  0.00  0.00    +0.000 C 
ATOM     13  O   UNL     1      19.825   9.707  36.123  0.00  0.00    +0.000 OA
BRANCH  12  14
ATOM     14  C   UNL     1      21.941  10.129  37.040  0.00  0.00    +0.000 A 
ATOM     15  C   UNL     1      22.822   9.265  36.405  0.00  0.00    +0.000 A 
ATOM     16  C   UNL     1      24.156   9.575  36.278  0.00  0.00    +0.000 A 
ATOM     17  C   UNL     1      24.631  10.748  36.783  0.00  0.00    +0.000 A 
ATOM     18  C   UNL     1      23.782  11.649  37.432  0.00  0.00    +0.000 A 
ATOM     19  C   UNL     1      22.449  11.290  37.532  0.00  0.00    +0.000 A 
ATOM     20  F   UNL     1      21.569  12.138  38.161  0.00  0.00    +0.000 F 
ENDBRANCH  12  14
ENDBRANCH   1  11
TORSDOF 3
ENDMDL
MODEL 8
REMARK VINA RESULT:      -6.2     19.773     21.023
REMARK  Name = 
REMARK  3 active torsions:
REMARK  status: ('A' for Active; 'I' for Inactive)
REMARK    1  A    between atoms: C_4  and  N_5
REMARK    2  A    between atoms: N_5  and  N_6
REMARK    3  A    between atoms: C_7  and  C_9
REMARK                            x       y       z     vdW  Elec       q    Type
REMARK                         _______ _______ _______ _____ _____    ______ ____
ROOT
ATOM      1  N   UNL     1      25.851   2.987  16.576  0.00  0.00    +0.000 NA
ENDROOT
BRANCH   1   5
ATOM      2  C   UNL     1      27.903   6.901  18.643  0.00  0.00    +0.000 C 
ATOM      3  C   UNL     1      26.533   6.112  18.227  0.00  0.00    +0.000 C 
ATOM      4  C   UNL     1      27.326   4.868  17.545  0.00  0.00    +0.000 C 
ATOM      5  C   UNL     1      26.408   4.278  16.545  0.00  0.00    +0.000 C 
ATOM      6  C   UNL     1      26.113   5.091  15.547  0.00  0.00    +0.000 C 
ATOM      7  C   UNL     1      26.808   6.427  15.702  0.00  0.00    +0.000 C 
ATOM      8  C   UNL     1      26.552   7.315  14.560  0.00  0.00    +0.000 C 
ATOM      9  C   UNL     1      28.306   6.197  15.886  0.00  0.00    +0.000 C 
ATOM     10  C   UNL     1      26.270   7.019  16.921  0.00  0.00    +0.000 C 
ENDBRANCH   1   5
BRANCH   1  11
ATOM     11  N   UNL     1      24.459   2.773  16.523  0.00  0.00    +0.000 NA
ATOM     12  C   UNL     1      23.665   2.544  17.650  0.00  0.00    +0.000 C 
ATOM     13  O   UNL     1      24.243   2.530  18.769  0.00  0.00    +0.000 OA
BRANCH  12  14
ATOM     14  C   UNL     1      22.225   2.323  17.595  0.00  0.00    +0.000 A 
ATOM     15  C   UNL     1      21.711   1.234  16.904  0.00  0.00    +0.000 A 
ATOM     16  C   UNL     1      20.357   1.007  16.837  0.00  0.00    +0.000 A 
ATOM     17  C   UNL     1      19.494   1.862  17.455  0.00  0.00    +0.000 A 
ATOM     18  C   UNL     1      19.964   2.972  18.162  0.00  0.00    +0.000 A 
ATOM     19  C   UNL     1      21.335   3.155  18.200  0.00  0.00    +0.000 A 
ATOM     20  F   UNL     1      21.852   4.231  18.881  0.00  0.00    +0.000 F 
ENDBRANCH  12  14
ENDBRANCH   1  11
TORSDOF 3
ENDMDL
MODEL 9
REMARK VINA RESULT:      -6.1     19.215     21.814
REMARK  Name = 
REMARK  3 active torsions:
REMARK  status: ('A' for Active; 'I' for Inactive)
REMARK    1  A    between atoms: C_4  and  N_5
REMARK    2  A    between atoms: N_5  and  N_6
REMARK    3  A    between atoms: C_7  and  C_9
REMARK                            x       y       z     vdW  Elec       q    Type
REMARK                         _______ _______ _______ _____ _____    ______ ____
ROOT
ATOM      1  N   UNL     1      34.372  -4.522  34.086  0.00  0.00    +0.000 NA
ENDROOT
BRANCH   1   5
ATOM      2  C   UNL     1      33.345   0.209  33.477  0.00  0.00    +0.000 C 
ATOM      3  C   UNL     1      34.466  -0.935  33.808  0.00  0.00    +0.000 C 
ATOM      4  C   UNL     1      33.405  -2.161  33.708  0.00  0.00    +0.000 C 
ATOM      5  C   UNL     1      33.948  -3.260  34.538  0.00  0.00    +0.000 C 
ATOM      6  C   UNL     1      34.021  -2.970  35.824  0.00  0.00    +0.000 C 
ATOM      7  C   UNL     1      33.522  -1.568  36.101  0.00  0.00    +0.000 C 
ATOM      8  C   UNL     1      33.524  -1.257  37.537  0.00  0.00    +0.000 C 
ATOM      9  C   UNL     1      32.121  -1.407  35.514  0.00  0.00    +0.000 C 
ATOM     10  C   UNL     1      34.431  -0.671  35.398  0.00  0.00    +0.000 C 
ENDBRANCH   1   5
BRANCH   1  11
ATOM     11  N   UNL     1      34.065  -4.993  32.793  0.00  0.00    +0.000 NA
ATOM     12  C   UNL     1      34.960  -5.712  31.997  0.00  0.00    +0.000 C 
ATOM     13  O   UNL     1      36.101  -5.946  32.477  0.00  0.00    +0.000 OA
BRANCH  12  14
ATOM     14  C   UNL     1      34.644  -6.199  30.659  0.00  0.00    +0.000 A 
ATOM     15  C   UNL     1      34.012  -5.368  29.745  0.00  0.00    +0.000 A 
ATOM     16  C   UNL     1      33.702  -5.805  28.480  0.00  0.00    +0.000 A 
ATOM     17  C   UNL     1      34.015  -7.078  28.106  0.00  0.00    +0.000 A 
ATOM     18  C   UNL     1      34.651  -7.952  28.992  0.00  0.00    +0.000 A 
ATOM     19  C   UNL     1      34.941  -7.462  30.253  0.00  0.00    +0.000 A 
ATOM     20  F   UNL     1      35.566  -8.279  31.165  0.00  0.00    +0.000 F 
ENDBRANCH  12  14
ENDBRANCH   1  11
TORSDOF 3
ENDMDL
MODEL 10
REMARK VINA RESULT:      -6.0     20.892     22.840
REMARK  Name = 
REMARK  3 active torsions:
REMARK  status: ('A' for Active; 'I' for Inactive)
REMARK    1  A    between atoms: C_4  and  N_5
REMARK    2  A    between atoms: N_5  and  N_6
REMARK    3  A    between atoms: C_7  and  C_9
REMARK                            x       y       z     vdW  Elec       q    Type
REMARK                         _______ _______ _______ _____ _____    ______ ____
ROOT
ATOM      1  N   UNL     1      15.554 -10.283  27.210  0.00  0.00    +0.000 NA
ENDROOT
BRANCH   1   5
ATOM      2  C   UNL     1      11.438  -8.810  25.042  0.00  0.00    +0.000 C 
ATOM      3  C   UNL     1      12.518  -8.603  26.253  0.00  0.00    +0.000 C 
ATOM      4  C   UNL     1      13.446  -9.852  25.786  0.00  0.00    +0.000 C 
ATOM      5  C   UNL     1      14.165 -10.320  26.993  0.00  0.00    +0.000 C 
ATOM      6  C   UNL     1      13.372 -10.808  27.930  0.00  0.00    +0.000 C 
ATOM      7  C   UNL     1      11.921 -10.754  27.504  0.00  0.00    +0.000 C 
ATOM      8  C   UNL     1      11.032 -11.365  28.502  0.00  0.00    +0.000 C 
ATOM      9  C   UNL     1      11.767 -11.442  26.149  0.00  0.00    +0.000 C 
ATOM     10  C   UNL     1      11.598  -9.340  27.352  0.00  0.00    +0.000 C 
ENDBRANCH   1   5
BRANCH   1  11
ATOM     11  N   UNL     1      16.358  -9.237  26.713  0.00  0.00    +0.000 NA
ATOM     12  C   UNL     1      17.400  -8.650  27.436  0.00  0.00    +0.000 C 
ATOM     13  O   UNL     1      17.620  -9.092  28.595  0.00  0.00    +0.000 OA
BRANCH  12  14
ATOM     14  C   UNL     1      18.232  -7.567  26.923  0.00  0.00    +0.000 A 
ATOM     15  C   UNL     1      17.866  -6.246  27.133  0.00  0.00    +0.000 A 
ATOM     16  C   UNL     1      18.634  -5.209  26.657  0.00  0.00    +0.000 A 
ATOM     17  C   UNL     1      19.776  -5.474  25.962  0.00  0.00    +0.000 A 
ATOM     18  C   UNL     1      20.185  -6.790  25.725  0.00  0.00    +0.000 A 
ATOM     19  C   UNL     1      19.378  -7.795  26.226  0.00  0.00    +0.000 A 
ATOM     20  F   UNL     1      19.732  -9.108  26.021  0.00  0.00    +0.000 F 
ENDBRANCH  12  14
ENDBRANCH   1  11
TORSDOF 3
ENDMDL
