MODEL 1
REMARK VINA RESULT:      -6.1      0.000      0.000
REMARK  Name = 
REMARK  5 active torsions:
REMARK  status: ('A' for Active; 'I' for Inactive)
REMARK    1  A    between atoms: C_2  and  C_3
REMARK    2  A    between atoms: C_3  and  C_4
REMARK    3  A    between atoms: C_4  and  C_5
REMARK    4  A    between atoms: C_5  and  C_6
REMARK    5  A    between atoms: C_6  and  C_7
REMARK                            x       y       z     vdW  Elec       q    Type
REMARK                         _______ _______ _______ _____ _____    ______ ____
ROOT
ATOM      1  C   UNL     1      27.180  24.529  24.183  0.00  0.00    +0.000 C 
ATOM      2  C   UNL     1      26.952  23.559  23.039  0.00  0.00    +0.000 C 
ATOM      3  O   UNL     1      25.909  22.855  22.970  0.00  0.00    +0.000 OA
ATOM      4  N   UNL     1      27.923  23.441  22.036  0.00  0.00    +0.000 NA
ATOM      5  C   UNL     1      28.769  24.534  21.727  0.00  0.00    +0.000 C 
ATOM      6  O   UNL     1      29.659  24.497  20.839  0.00  0.00    +0.000 OA
ATOM      7  N   UNL     1      28.609  25.762  22.465  0.00  0.00    +0.000 N 
ATOM      8  C   UNL     1      29.465  26.877  22.148  0.00  0.00    +0.000 C 
ATOM      9  C   UNL     1      27.611  25.792  23.458  0.00  0.00    +0.000 C 
ATOM     10  O   UNL     1      27.052  26.853  23.773  0.00  0.00    +0.000 OA
ENDROOT
BRANCH   1  11
ATOM     11  C   UNL     1      28.292  24.047  25.022  0.00  0.00    +0.000 A 
ATOM     12  C   UNL     1      28.986  24.995  25.803  0.00  0.00    +0.000 A 
ATOM     13  C   UNL     1      30.043  24.629  26.599  0.00  0.00    +0.000 A 
ATOM     14  C   UNL     1      30.459  23.332  26.664  0.00  0.00    +0.000 A 
ATOM     15  C   UNL     1      29.798  22.364  25.906  0.00  0.00    +0.000 A 
ATOM     16  C   UNL     1      28.746  22.781  25.124  0.00  0.00    +0.000 A 
ENDBRANCH   1  11
BRANCH   1  17
ATOM     17  C   UNL     1      25.889  24.703  24.843  0.00  0.00    +0.000 C 
BRANCH  17  18
ATOM     18  C   UNL     1      25.507  24.085  26.074  0.00  0.00    +0.000 C 
BRANCH  18  19
ATOM     19  C   UNL     1      25.120  24.815  27.279  0.00  0.00    +0.000 C 
BRANCH  19  21
ATOM     20  C   UNL     1      26.719  23.263  28.329  0.00  0.00    +0.000 C 
ATOM     21  C   UNL     1      26.185  24.679  28.341  0.00  0.00    +0.000 C 
ENDBRANCH  19  21
ENDBRANCH  18  19
ENDBRANCH  17  18
ENDBRANCH   1  17
TORSDOF 5
ENDMDL
MODEL 2
REMARK VINA RESULT:      -5.6      1.859      2.653
REMARK  Name = 
REMARK  5 active torsions:
REMARK  status: ('A' for Active; 'I' for Inactive)
REMARK    1  A    between atoms: C_2  and  C_3
REMARK    2  A    between atoms: C_3  and  C_4
REMARK    3  A    between atoms: C_4  and  C_5
REMARK    4  A    between atoms: C_5  and  C_6
REMARK    5  A    between atoms: C_6  and  C_7
REMARK                            x       y       z     vdW  Elec       q    Type
REMARK                         _______ _______ _______ _____ _____    ______ ____
ROOT
ATOM      1  C   UNL     1      28.688  24.819  23.385  0.00  0.00    +0.000 C 
ATOM      2  C   UNL     1      28.725  24.004  22.106  0.00  0.00    +0.000 C 
ATOM      3  O   UNL     1      28.163  22.880  22.025  0.00  0.00    +0.000 OA
ATOM      4  N   UNL     1      29.401  24.511  20.990  0.00  0.00    +0.000 NA
ATOM      5  C   UNL     1      29.530  25.910  20.805  0.00  0.00    +0.000 C 
ATOM      6  O   UNL     1      30.122  26.432  19.826  0.00  0.00    +0.000 OA
ATOM      7  N   UNL     1      28.954  26.793  21.789  0.00  0.00    +0.000 N 
ATOM      8  C   UNL     1      29.079  28.215  21.600  0.00  0.00    +0.000 C 
ATOM      9  C   UNL     1      28.295  26.197  22.881  0.00  0.00    +0.000 C 
ATOM     10  O   UNL     1      27.372  26.781  23.469  0.00  0.00    +0.000 OA
ENDROOT
BRANCH   1  11
ATOM     11  C   UNL     1      30.039  24.882  23.968  0.00  0.00    +0.000 A 
ATOM     12  C   UNL     1      30.819  23.707  23.950  0.00  0.00    +0.000 A 
ATOM     13  C   UNL     1      32.083  23.679  24.486  0.00  0.00    +0.000 A 
ATOM     14  C   UNL     1      32.630  24.790  25.056  0.00  0.00    +0.000 A 
ATOM     15  C   UNL     1      31.891  25.972  25.095  0.00  0.00    +0.000 A 
ATOM     16  C   UNL     1      30.630  25.950  24.545  0.00  0.00    +0.000 A 
ENDBRANCH   1  11
BRANCH   1  17
ATOM     17  C   UNL     1      27.641  24.235  24.219  0.00  0.00    +0.000 C 
BRANCH  17  18
ATOM     18  C   UNL     1      27.828  23.145  25.125  0.00  0.00    +0.000 C 
BRANCH  18  19
ATOM     19  C   UNL     1      28.127  23.297  26.548  0.00  0.00    +0.000 C 
BRANCH  19  21
ATOM     20  C   UNL     1      30.302  23.122  27.693  0.00  0.00    +0.000 C 
ATOM     21  C   UNL     1      29.230  22.349  26.956  0.00  0.00    +0.000 C 
ENDBRANCH  19  21
ENDBRANCH  18  19
ENDBRANCH  17  18
ENDBRANCH   1  17
TORSDOF 5
ENDMDL
MODEL 3
REMARK VINA RESULT:      -5.2      1.727      2.361
REMARK  Name = 
REMARK  5 active torsions:
REMARK  status: ('A' for Active; 'I' for Inactive)
REMARK    1  A    between atoms: C_2  and  C_3
REMARK    2  A    between atoms: C_3  and  C_4
REMARK    3  A    between atoms: C_4  and  C_5
REMARK    4  A    between atoms: C_5  and  C_6
REMARK    5  A    between atoms: C_6  and  C_7
REMARK                            x       y       z     vdW  Elec       q    Type
REMARK                         _______ _______ _______ _____ _____    ______ ____
ROOT
ATOM      1  C   UNL     1      27.642  24.684  25.199  0.00  0.00    +0.000 C 
ATOM      2  C   UNL     1      26.585  23.616  24.986  0.00  0.00    +0.000 C 
ATOM      3  O   UNL     1      25.887  23.181  25.940  0.00  0.00    +0.000 OA
ATOM      4  N   UNL     1      26.381  23.100  23.700  0.00  0.00    +0.000 NA
ATOM      5  C   UNL     1      26.665  23.891  22.559  0.00  0.00    +0.000 C 
ATOM      6  O   UNL     1      26.503  23.492  21.377  0.00  0.00    +0.000 OA
ATOM      7  N   UNL     1      27.166  25.229  22.751  0.00  0.00    +0.000 N 
ATOM      8  C   UNL     1      27.449  26.036  21.593  0.00  0.00    +0.000 C 
ATOM      9  C   UNL     1      27.344  25.665  24.079  0.00  0.00    +0.000 C 
ATOM     10  O   UNL     1      27.264  26.867  24.374  0.00  0.00    +0.000 OA
ENDROOT
BRANCH   1  11
ATOM     11  C   UNL     1      28.979  24.101  24.992  0.00  0.00    +0.000 A 
ATOM     12  C   UNL     1      30.043  24.980  24.699  0.00  0.00    +0.000 A 
ATOM     13  C   UNL     1      31.315  24.514  24.478  0.00  0.00    +0.000 A 
ATOM     14  C   UNL     1      31.596  23.181  24.535  0.00  0.00    +0.000 A 
ATOM     15  C   UNL     1      30.571  22.279  24.821  0.00  0.00    +0.000 A 
ATOM     16  C   UNL     1      29.314  22.794  25.034  0.00  0.00    +0.000 A 
ENDBRANCH   1  11
BRANCH   1  17
ATOM     17  C   UNL     1      27.379  25.271  26.510  0.00  0.00    +0.000 C 
BRANCH  17  18
ATOM     18  C   UNL     1      28.214  25.117  27.660  0.00  0.00    +0.000 C 
BRANCH  18  19
ATOM     19  C   UNL     1      28.108  24.017  28.616  0.00  0.00    +0.000 C 
BRANCH  19  21
ATOM     20  C   UNL     1      30.554  24.147  28.357  0.00  0.00    +0.000 C 
ATOM     21  C   UNL     1      29.391  23.222  28.646  0.00  0.00    +0.000 C 
ENDBRANCH  19  21
ENDBRANCH  18  19
ENDBRANCH  17  18
ENDBRANCH   1  17
TORSDOF 5
ENDMDL
MODEL 4
REMARK VINA RESULT:      -5.1     33.264     34.819
REMARK  Name = 
REMARK  5 active torsions:
REMARK  status: ('A' for Active; 'I' for Inactive)
REMARK    1  A    between atoms: C_2  and  C_3
REMARK    2  A    between atoms: C_3  and  C_4
REMARK    3  A    between atoms: C_4  and  C_5
REMARK    4  A    between atoms: C_5  and  C_6
REMARK    5  A    between atoms: C_6  and  C_7
REMARK                            x       y       z     vdW  Elec       q    Type
REMARK                         _______ _______ _______ _____ _____    ______ ____
ROOT
ATOM      1  C   UNL     1      18.428  -9.303  26.502  0.00  0.00    +0.000 C 
ATOM      2  C   UNL     1      18.619  -9.866  25.106  0.00  0.00    +0.000 C 
ATOM      3  O   UNL     1      19.589 -10.618  24.825  0.00  0.00    +0.000 OA
ATOM      4  N   UNL     1      17.695  -9.542  24.105  0.00  0.00    +0.000 NA
ATOM      5  C   UNL     1      16.354  -9.230  24.441  0.00  0.00    +0.000 C 
ATOM      6  O   UNL     1      15.474  -8.932  23.593  0.00  0.00    +0.000 OA
ATOM      7  N   UNL     1      15.966  -9.253  25.829  0.00  0.00    +0.000 N 
ATOM      8  C   UNL     1      14.602  -8.942  26.173  0.00  0.00    +0.000 C 
ATOM      9  C   UNL     1      16.960  -9.586  26.770  0.00  0.00    +0.000 C 
ATOM     10  O   UNL     1      16.667 -10.121  27.850  0.00  0.00    +0.000 OA
ENDROOT
BRANCH   1  11
ATOM     11  C   UNL     1      18.645  -7.846  26.479  0.00  0.00    +0.000 A 
ATOM     12  C   UNL     1      19.762  -7.358  25.769  0.00  0.00    +0.000 A 
ATOM     13  C   UNL     1      20.043  -6.015  25.712  0.00  0.00    +0.000 A 
ATOM     14  C   UNL     1      19.248  -5.103  26.341  0.00  0.00    +0.000 A 
ATOM     15  C   UNL     1      18.134  -5.546  27.055  0.00  0.00    +0.000 A 
ATOM     16  C   UNL     1      17.896  -6.900  27.082  0.00  0.00    +0.000 A 
ENDBRANCH   1  11
BRANCH   1  17
ATOM     17  C   UNL     1      19.294 -10.081  27.384  0.00  0.00    +0.000 C 
BRANCH  17  18
ATOM     18  C   UNL     1      19.945  -9.573  28.551  0.00  0.00    +0.000 C 
BRANCH  18  19
ATOM     19  C   UNL     1      19.953 -10.244  29.850  0.00  0.00    +0.000 C 
BRANCH  19  21
ATOM     20  C   UNL     1      17.864 -10.332  31.151  0.00  0.00    +0.000 C 
ATOM     21  C   UNL     1      19.084  -9.496  30.832  0.00  0.00    +0.000 C 
ENDBRANCH  19  21
ENDBRANCH  18  19
ENDBRANCH  17  18
ENDBRANCH   1  17
TORSDOF 5
ENDMDL
MODEL 5
REMARK VINA RESULT:      -5.1      1.890      4.049
REMARK  Name = 
REMARK  5 active torsions:
REMARK  status: ('A' for Active; 'I' for Inactive)
REMARK    1  A    between atoms: C_2  and  C_3
REMARK    2  A    between atoms: C_3  and  C_4
REMARK    3  A    between atoms: C_4  and  C_5
REMARK    4  A    between atoms: C_5  and  C_6
REMARK    5  A    between atoms: C_6  and  C_7
REMARK                            x       y       z     vdW  Elec       q    Type
REMARK                         _______ _______ _______ _____ _____    ______ ____
ROOT
ATOM      1  C   UNL     1      29.428  24.684  23.592  0.00  0.00    +0.000 C 
ATOM      2  C   UNL     1      30.187  25.813  24.265  0.00  0.00    +0.000 C 
ATOM      3  O   UNL     1      31.121  25.586  25.079  0.00  0.00    +0.000 OA
ATOM      4  N   UNL     1      29.841  27.139  23.975  0.00  0.00    +0.000 NA
ATOM      5  C   UNL     1      29.269  27.472  22.722  0.00  0.00    +0.000 C 
ATOM      6  O   UNL     1      28.937  28.641  22.397  0.00  0.00    +0.000 OA
ATOM      7  N   UNL     1      29.050  26.421  21.761  0.00  0.00    +0.000 N 
ATOM      8  C   UNL     1      28.473  26.759  20.485  0.00  0.00    +0.000 C 
ATOM      9  C   UNL     1      29.424  25.116  22.137  0.00  0.00    +0.000 C 
ATOM     10  O   UNL     1      29.760  24.277  21.288  0.00  0.00    +0.000 OA
ENDROOT
BRANCH   1  11
ATOM     11  C   UNL     1      28.043  24.656  24.095  0.00  0.00    +0.000 A 
ATOM     12  C   UNL     1      27.111  23.847  23.411  0.00  0.00    +0.000 A 
ATOM     13  C   UNL     1      25.798  23.778  23.807  0.00  0.00    +0.000 A 
ATOM     14  C   UNL     1      25.348  24.489  24.879  0.00  0.00    +0.000 A 
ATOM     15  C   UNL     1      26.239  25.301  25.583  0.00  0.00    +0.000 A 
ATOM     16  C   UNL     1      27.543  25.338  25.147  0.00  0.00    +0.000 A 
ENDBRANCH   1  11
BRANCH   1  17
ATOM     17  C   UNL     1      30.222  23.475  23.791  0.00  0.00    +0.000 C 
BRANCH  17  18
ATOM     18  C   UNL     1      29.902  22.425  24.706  0.00  0.00    +0.000 C 
BRANCH  18  19
ATOM     19  C   UNL     1      30.458  22.305  26.053  0.00  0.00    +0.000 C 
BRANCH  19  21
ATOM     20  C   UNL     1      28.147  22.193  26.898  0.00  0.00    +0.000 C 
ATOM     21  C   UNL     1      29.493  22.863  27.071  0.00  0.00    +0.000 C 
ENDBRANCH  19  21
ENDBRANCH  18  19
ENDBRANCH  17  18
ENDBRANCH   1  17
TORSDOF 5
ENDMDL
MODEL 6
REMARK VINA RESULT:      -5.0     33.294     34.758
REMARK  Name = 
REMARK  5 active torsions:
REMARK  status: ('A' for Active; 'I' for Inactive)
REMARK    1  A    between atoms: C_2  and  C_3
REMARK    2  A    between atoms: C_3  and  C_4
REMARK    3  A    between atoms: C_4  and  C_5
REMARK    4  A    between atoms: C_5  and  C_6
REMARK    5  A    between atoms: C_6  and  C_7
REMARK                            x       y       z     vdW  Elec       q    Type
REMARK                         _______ _______ _______ _____ _____    ______ ____
ROOT
ATOM      1  C   UNL     1      17.735  -8.592  26.671  0.00  0.00    +0.000 C 
ATOM      2  C   UNL     1      18.409  -8.741  25.319  0.00  0.00    +0.000 C 
ATOM      3  O   UNL     1      17.973  -9.543  24.451  0.00  0.00    +0.000 OA
ATOM      4  N   UNL     1      19.541  -7.970  25.029  0.00  0.00    +0.000 NA
ATOM      5  C   UNL     1      19.728  -6.709  25.649  0.00  0.00    +0.000 C 
ATOM      6  O   UNL     1      20.719  -5.967  25.434  0.00  0.00    +0.000 OA
ATOM      7  N   UNL     1      18.731  -6.243  26.580  0.00  0.00    +0.000 N 
ATOM      8  C   UNL     1      18.915  -4.959  27.207  0.00  0.00    +0.000 C 
ATOM      9  C   UNL     1      17.625  -7.084  26.815  0.00  0.00    +0.000 C 
ATOM     10  O   UNL     1      16.526  -6.618  27.150  0.00  0.00    +0.000 OA
ENDROOT
BRANCH   1  11
ATOM     11  C   UNL     1      18.622  -9.117  27.723  0.00  0.00    +0.000 A 
ATOM     12  C   UNL     1      18.271  -8.868  29.066  0.00  0.00    +0.000 A 
ATOM     13  C   UNL     1      19.053  -9.311  30.104  0.00  0.00    +0.000 A 
ATOM     14  C   UNL     1      20.200 -10.011  29.872  0.00  0.00    +0.000 A 
ATOM     15  C   UNL     1      20.582 -10.278  28.557  0.00  0.00    +0.000 A 
ATOM     16  C   UNL     1      19.766  -9.813  27.553  0.00  0.00    +0.000 A 
ENDBRANCH   1  11
BRANCH   1  17
ATOM     17  C   UNL     1      16.420  -9.216  26.550  0.00  0.00    +0.000 C 
BRANCH  17  18
ATOM     18  C   UNL     1      16.038 -10.447  27.165  0.00  0.00    +0.000 C 
BRANCH  18  19
ATOM     19  C   UNL     1      16.438 -11.770  26.686  0.00  0.00    +0.000 C 
BRANCH  19  21
ATOM     20  C   UNL     1      16.626 -12.067  29.124  0.00  0.00    +0.000 C 
ATOM     21  C   UNL     1      17.145 -12.532  27.781  0.00  0.00    +0.000 C 
ENDBRANCH  19  21
ENDBRANCH  18  19
ENDBRANCH  17  18
ENDBRANCH   1  17
TORSDOF 5
ENDMDL
MODEL 7
REMARK VINA RESULT:      -4.9     19.031     21.424
REMARK  Name = 
REMARK  5 active torsions:
REMARK  status: ('A' for Active; 'I' for Inactive)
REMARK    1  A    between atoms: C_2  and  C_3
REMARK    2  A    between atoms: C_3  and  C_4
REMARK    3  A    between atoms: C_4  and  C_5
REMARK    4  A    between atoms: C_5  and  C_6
REMARK    5  A    between atoms: C_6  and  C_7
REMARK                            x       y       z     vdW  Elec       q    Type
REMARK                         _______ _______ _______ _____ _____    ______ ____
ROOT
ATOM      1  C   UNL     1      20.262  10.112  38.110  0.00  0.00    +0.000 C 
ATOM      2  C   UNL     1      19.016   9.893  37.272  0.00  0.00    +0.000 C 
ATOM      3  O   UNL     1      19.088   9.605  36.048  0.00  0.00    +0.000 OA
ATOM      4  N   UNL     1      17.757  10.015  37.871  0.00  0.00    +0.000 NA
ATOM      5  C   UNL     1      17.594   9.756  39.255  0.00  0.00    +0.000 C 
ATOM      6  O   UNL     1      16.493   9.845  39.856  0.00  0.00    +0.000 OA
ATOM      7  N   UNL     1      18.749   9.367  40.026  0.00  0.00    +0.000 N 
ATOM      8  C   UNL     1      18.585   9.097  41.431  0.00  0.00    +0.000 C 
ATOM      9  C   UNL     1      19.977   9.272  39.342  0.00  0.00    +0.000 C 
ATOM     10  O   UNL     1      20.867   8.499  39.728  0.00  0.00    +0.000 OA
ENDROOT
BRANCH   1  11
ATOM     11  C   UNL     1      20.350  11.531  38.498  0.00  0.00    +0.000 A 
ATOM     12  C   UNL     1      21.218  11.871  39.557  0.00  0.00    +0.000 A 
ATOM     13  C   UNL     1      21.346  13.169  39.988  0.00  0.00    +0.000 A 
ATOM     14  C   UNL     1      20.636  14.177  39.406  0.00  0.00    +0.000 A 
ATOM     15  C   UNL     1      19.767  13.881  38.355  0.00  0.00    +0.000 A 
ATOM     16  C   UNL     1      19.674  12.567  37.960  0.00  0.00    +0.000 A 
ENDBRANCH   1  11
BRANCH   1  17
ATOM     17  C   UNL     1      21.380   9.573  37.340  0.00  0.00    +0.000 C 
BRANCH  17  18
ATOM     18  C   UNL     1      22.285  10.351  36.554  0.00  0.00    +0.000 C 
BRANCH  18  19
ATOM     19  C   UNL     1      23.619   9.908  36.151  0.00  0.00    +0.000 C 
BRANCH  19  21
ATOM     20  C   UNL     1      24.328  11.900  37.415  0.00  0.00    +0.000 C 
ATOM     21  C   UNL     1      24.586  11.067  36.178  0.00  0.00    +0.000 C 
ENDBRANCH  19  21
ENDBRANCH  18  19
ENDBRANCH  17  18
ENDBRANCH   1  17
TORSDOF 5
ENDMDL
MODEL 8
REMARK VINA RESULT:      -4.9      4.512      6.585
REMARK  Name = 
REMARK  5 active torsions:
REMARK  status: ('A' for Active; 'I' for Inactive)
REMARK    1  A    between atoms: C_2  and  C_3
REMARK    2  A    between atoms: C_3  and  C_4
REMARK    3  A    between atoms: C_4  and  C_5
REMARK    4  A    between atoms: C_5  and  C_6
REMARK    5  A    between atoms: C_6  and  C_7
REMARK                            x       y       z     vdW  Elec       q    Type
REMARK                         _______ _______ _______ _____ _____    ______ ____
ROOT
ATOM      1  C   UNL     1      28.072  23.746  29.279  0.00  0.00    +0.000 C 
ATOM      2  C   UNL     1      27.128  22.890  30.103  0.00  0.00    +0.000 C 
ATOM      3  O   UNL     1      27.343  21.663  30.287  0.00  0.00    +0.000 OA
ATOM      4  N   UNL     1      25.991  23.477  30.672  0.00  0.00    +0.000 NA
ATOM      5  C   UNL     1      25.986  24.854  31.005  0.00  0.00    +0.000 C 
ATOM      6  O   UNL     1      25.001  25.443  31.518  0.00  0.00    +0.000 OA
ATOM      7  N   UNL     1      27.171  25.632  30.744  0.00  0.00    +0.000 N 
ATOM      8  C   UNL     1      27.170  27.031  31.087  0.00  0.00    +0.000 C 
ATOM      9  C   UNL     1      28.267  24.962  30.167  0.00  0.00    +0.000 C 
ATOM     10  O   UNL     1      29.430  25.347  30.365  0.00  0.00    +0.000 OA
ENDROOT
BRANCH   1  11
ATOM     11  C   UNL     1      27.401  24.157  28.033  0.00  0.00    +0.000 A 
ATOM     12  C   UNL     1      27.705  25.432  27.511  0.00  0.00    +0.000 A 
ATOM     13  C   UNL     1      27.111  25.895  26.362  0.00  0.00    +0.000 A 
ATOM     14  C   UNL     1      26.205  25.135  25.684  0.00  0.00    +0.000 A 
ATOM     15  C   UNL     1      25.878  23.868  26.167  0.00  0.00    +0.000 A 
ATOM     16  C   UNL     1      26.499  23.450  27.321  0.00  0.00    +0.000 A 
ENDBRANCH   1  11
BRANCH   1  17
ATOM     17  C   UNL     1      29.308  22.981  29.136  0.00  0.00    +0.000 C 
BRANCH  17  18
ATOM     18  C   UNL     1      30.116  22.942  27.959  0.00  0.00    +0.000 C 
BRANCH  18  19
ATOM     19  C   UNL     1      30.046  21.892  26.944  0.00  0.00    +0.000 C 
BRANCH  19  21
ATOM     20  C   UNL     1      30.351  23.858  25.491  0.00  0.00    +0.000 C 
ATOM     21  C   UNL     1      29.719  22.487  25.595  0.00  0.00    +0.000 C 
ENDBRANCH  19  21
ENDBRANCH  18  19
ENDBRANCH  17  18
ENDBRANCH   1  17
TORSDOF 5
ENDMDL
MODEL 9
REMARK VINA RESULT:      -4.9     13.615     16.663
REMARK  Name = 
REMARK  5 active torsions:
REMARK  status: ('A' for Active; 'I' for Inactive)
REMARK    1  A    between atoms: C_2  and  C_3
REMARK    2  A    between atoms: C_3  and  C_4
REMARK    3  A    between atoms: C_4  and  C_5
REMARK    4  A    between atoms: C_5  and  C_6
REMARK    5  A    between atoms: C_6  and  C_7
REMARK                            x       y       z     vdW  Elec       q    Type
REMARK                         _______ _______ _______ _____ _____    ______ ____
ROOT
ATOM      1  C   UNL     1      32.935  21.048   9.269  0.00  0.00    +0.000 C 
ATOM      2  C   UNL     1      33.953  19.930   9.407  0.00  0.00    +0.000 C 
ATOM      3  O   UNL     1      33.840  18.855   8.762  0.00  0.00    +0.000 OA
ATOM      4  N   UNL     1      35.042  20.098  10.271  0.00  0.00    +0.000 NA
ATOM      5  C   UNL     1      35.543  21.393  10.549  0.00  0.00    +0.000 C 
ATOM      6  O   UNL     1      36.517  21.614  11.313  0.00  0.00    +0.000 OA
ATOM      7  N   UNL     1      34.908  22.528   9.926  0.00  0.00    +0.000 N 
ATOM      8  C   UNL     1      35.420  23.846  10.203  0.00  0.00    +0.000 C 
ATOM      9  C   UNL     1      33.818  22.269   9.074  0.00  0.00    +0.000 C 
ATOM     10  O   UNL     1      33.542  23.032   8.136  0.00  0.00    +0.000 OA
ENDROOT
BRANCH   1  11
ATOM     11  C   UNL     1      32.185  21.188  10.529  0.00  0.00    +0.000 A 
ATOM     12  C   UNL     1      31.694  22.467  10.866  0.00  0.00    +0.000 A 
ATOM     13  C   UNL     1      30.998  22.682  12.030  0.00  0.00    +0.000 A 
ATOM     14  C   UNL     1      30.755  21.664  12.903  0.00  0.00    +0.000 A 
ATOM     15  C   UNL     1      31.224  20.384  12.607  0.00  0.00    +0.000 A 
ATOM     16  C   UNL     1      31.916  20.219  11.430  0.00  0.00    +0.000 A 
ENDBRANCH   1  11
BRANCH   1  17
ATOM     17  C   UNL     1      32.155  20.754   8.071  0.00  0.00    +0.000 C 
BRANCH  17  18
ATOM     18  C   UNL     1      30.765  20.420   8.059  0.00  0.00    +0.000 C 
BRANCH  18  19
ATOM     19  C   UNL     1      30.106  19.664   6.995  0.00  0.00    +0.000 C 
BRANCH  19  21
ATOM     20  C   UNL     1      29.265  20.382   4.794  0.00  0.00    +0.000 C 
ATOM     21  C   UNL     1      30.505  20.203   5.643  0.00  0.00    +0.000 C 
ENDBRANCH  19  21
ENDBRANCH  18  19
ENDBRANCH  17  18
ENDBRANCH   1  17
TORSDOF 5
ENDMDL
MODEL 10
REMARK VINA RESULT:      -4.8     19.524     21.670
REMARK  Name = 
REMARK  5 active torsions:
REMARK  status: ('A' for Active; 'I' for Inactive)
REMARK    1  A    between atoms: C_2  and  C_3
REMARK    2  A    between atoms: C_3  and  C_4
REMARK    3  A    between atoms: C_4  and  C_5
REMARK    4  A    between atoms: C_5  and  C_6
REMARK    5  A    between atoms: C_6  and  C_7
REMARK                            x       y       z     vdW  Elec       q    Type
REMARK                         _______ _______ _______ _____ _____    ______ ____
ROOT
ATOM      1  C   UNL     1      18.779  10.604  37.859  0.00  0.00    +0.000 C 
ATOM      2  C   UNL     1      19.462   9.879  36.714  0.00  0.00    +0.000 C 
ATOM      3  O   UNL     1      18.805   9.401  35.752  0.00  0.00    +0.000 OA
ATOM      4  N   UNL     1      20.855   9.737  36.728  0.00  0.00    +0.000 NA
ATOM      5  C   UNL     1      21.665  10.688  37.395  0.00  0.00    +0.000 C 
ATOM      6  O   UNL     1      22.920  10.621  37.445  0.00  0.00    +0.000 OA
ATOM      7  N   UNL     1      21.027  11.797  38.058  0.00  0.00    +0.000 N 
ATOM      8  C   UNL     1      21.849  12.768  38.733  0.00  0.00    +0.000 C 
ATOM      9  C   UNL     1      19.621  11.860  37.997  0.00  0.00    +0.000 C 
ATOM     10  O   UNL     1      19.025  12.947  38.057  0.00  0.00    +0.000 OA
ENDROOT
BRANCH   1  11
ATOM     11  C   UNL     1      18.896   9.802  39.089  0.00  0.00    +0.000 A 
ATOM     12  C   UNL     1      18.681   8.412  38.992  0.00  0.00    +0.000 A 
ATOM     13  C   UNL     1      18.757   7.597  40.095  0.00  0.00    +0.000 A 
ATOM     14  C   UNL     1      19.046   8.106  41.326  0.00  0.00    +0.000 A 
ATOM     15  C   UNL     1      19.266   9.477  41.465  0.00  0.00    +0.000 A 
ATOM     16  C   UNL     1      19.177  10.250  40.331  0.00  0.00    +0.000 A 
ENDBRANCH   1  11
BRANCH   1  17
ATOM     17  C   UNL     1      17.425  10.913  37.405  0.00  0.00    +0.000 C 
BRANCH  17  18
ATOM     18  C   UNL     1      16.226  10.516  38.073  0.00  0.00    +0.000 C 
BRANCH  18  19
ATOM     19  C   UNL     1      14.979  11.280  38.056  0.00  0.00    +0.000 C 
BRANCH  19  21
ATOM     20  C   UNL     1      13.464  12.547  36.585  0.00  0.00    +0.000 C 
ATOM     21  C   UNL     1      14.901  12.129  36.810  0.00  0.00    +0.000 C 
ENDBRANCH  19  21
ENDBRANCH  18  19
ENDBRANCH  17  18
ENDBRANCH   1  17
TORSDOF 5
ENDMDL
