MODEL 1
REMARK VINA RESULT:      -6.0      0.000      0.000
REMARK  Name = 
REMARK  2 active torsions:
REMARK  status: ('A' for Active; 'I' for Inactive)
REMARK    1  A    between atoms: C_6  and  C_7
REMARK    2  A    between atoms: N_11  and  C_12
REMARK                            x       y       z     vdW  Elec       q    Type
REMARK                         _______ _______ _______ _____ _____    ______ ____
ROOT
ATOM      1  C   UNL     1      20.752  13.104  38.329  0.00  0.00    +0.000 C 
ATOM      2  C   UNL     1      20.097  11.857  38.844  0.00  0.00    +0.000 A 
ATOM      3  C   UNL     1      20.389  11.316  40.060  0.00  0.00    +0.000 A 
ATOM      4  C   UNL     1      19.745  10.180  40.450  0.00  0.00    +0.000 A 
ATOM      5  C   UNL     1      20.033   9.554  41.770  0.00  0.00    +0.000 C 
ATOM      6  C   UNL     1      18.814   9.597  39.619  0.00  0.00    +0.000 A 
ATOM      7  C   UNL     1      18.527  10.153  38.391  0.00  0.00    +0.000 A 
ATOM      8  N   UNL     1      17.569   9.562  37.524  0.00  0.00    +0.000 NA
ATOM      9  N   UNL     1      19.181  11.275  38.036  0.00  0.00    +0.000 NA
ENDROOT
BRANCH   8  10
ATOM     10  C   UNL     1      17.274  10.141  36.252  0.00  0.00    +0.000 A 
ATOM     11  C   UNL     1      16.368  11.177  36.147  0.00  0.00    +0.000 A 
ATOM     12  C   UNL     1      16.079  11.744  34.900  0.00  0.00    +0.000 A 
ATOM     13  C   UNL     1      16.679  11.299  33.752  0.00  0.00    +0.000 A 
ATOM     14  F   UNL     1      16.445  11.803  32.516  0.00  0.00    +0.000 F 
ATOM     15  C   UNL     1      17.584  10.265  33.854  0.00  0.00    +0.000 A 
ATOM     16  C   UNL     1      17.874   9.700  35.091  0.00  0.00    +0.000 A 
ENDBRANCH   8  10
BRANCH   6  17
ATOM     17  C   UNL     1      18.134   8.383  40.048  0.00  0.00    +0.000 C 
ATOM     18  N   UNL     1      18.684   7.107  39.786  0.00  0.00    +0.000 NA
ATOM     19  O   UNL     1      17.036   8.446  40.667  0.00  0.00    +0.000 OA
ENDBRANCH   6  17
TORSDOF 2
ENDMDL
MODEL 2
REMARK VINA RESULT:      -5.9     21.286     22.639
REMARK  Name = 
REMARK  2 active torsions:
REMARK  status: ('A' for Active; 'I' for Inactive)
REMARK    1  A    between atoms: C_6  and  C_7
REMARK    2  A    between atoms: N_11  and  C_12
REMARK                            x       y       z     vdW  Elec       q    Type
REMARK                         _______ _______ _______ _____ _____    ______ ____
ROOT
ATOM      1  C   UNL     1      22.364 -10.790  27.963  0.00  0.00    +0.000 C 
ATOM      2  C   UNL     1      21.255  -9.871  27.544  0.00  0.00    +0.000 A 
ATOM      3  C   UNL     1      20.036  -9.857  28.153  0.00  0.00    +0.000 A 
ATOM      4  C   UNL     1      19.085  -8.988  27.708  0.00  0.00    +0.000 A 
ATOM      5  C   UNL     1      17.740  -8.938  28.344  0.00  0.00    +0.000 C 
ATOM      6  C   UNL     1      19.364  -8.141  26.658  0.00  0.00    +0.000 A 
ATOM      7  C   UNL     1      20.601  -8.165  26.051  0.00  0.00    +0.000 A 
ATOM      8  N   UNL     1      20.902  -7.297  24.966  0.00  0.00    +0.000 NA
ATOM      9  N   UNL     1      21.518  -9.035  26.514  0.00  0.00    +0.000 NA
ENDROOT
BRANCH   8  10
ATOM     10  C   UNL     1      22.184  -7.324  24.338  0.00  0.00    +0.000 A 
ATOM     11  C   UNL     1      22.453  -8.228  23.330  0.00  0.00    +0.000 A 
ATOM     12  C   UNL     1      23.709  -8.254  22.715  0.00  0.00    +0.000 A 
ATOM     13  C   UNL     1      24.708  -7.392  23.085  0.00  0.00    +0.000 A 
ATOM     14  F   UNL     1      25.945  -7.364  22.532  0.00  0.00    +0.000 F 
ATOM     15  C   UNL     1      24.443  -6.489  24.091  0.00  0.00    +0.000 A 
ATOM     16  C   UNL     1      23.196  -6.460  24.704  0.00  0.00    +0.000 A 
ENDBRANCH   8  10
BRANCH   6  17
ATOM     17  C   UNL     1      18.339  -7.219  26.193  0.00  0.00    +0.000 C 
ATOM     18  N   UNL     1      18.295  -5.882  26.653  0.00  0.00    +0.000 NA
ATOM     19  O   UNL     1      17.464  -7.595  25.364  0.00  0.00    +0.000 OA
ENDBRANCH   6  17
TORSDOF 2
ENDMDL
MODEL 3
REMARK VINA RESULT:      -5.7     17.219     19.036
REMARK  Name = 
REMARK  2 active torsions:
REMARK  status: ('A' for Active; 'I' for Inactive)
REMARK    1  A    between atoms: C_6  and  C_7
REMARK    2  A    between atoms: N_11  and  C_12
REMARK                            x       y       z     vdW  Elec       q    Type
REMARK                         _______ _______ _______ _____ _____    ______ ____
ROOT
ATOM      1  C   UNL     1      31.384  23.104  27.319  0.00  0.00    +0.000 C 
ATOM      2  C   UNL     1      30.157  23.005  28.177  0.00  0.00    +0.000 A 
ATOM      3  C   UNL     1      30.206  22.706  29.505  0.00  0.00    +0.000 A 
ATOM      4  C   UNL     1      29.041  22.637  30.210  0.00  0.00    +0.000 A 
ATOM      5  C   UNL     1      29.046  22.314  31.663  0.00  0.00    +0.000 C 
ATOM      6  C   UNL     1      27.839  22.866  29.577  0.00  0.00    +0.000 A 
ATOM      7  C   UNL     1      27.803  23.167  28.233  0.00  0.00    +0.000 A 
ATOM      8  N   UNL     1      26.570  23.406  27.567  0.00  0.00    +0.000 NA
ATOM      9  N   UNL     1      28.971  23.228  27.565  0.00  0.00    +0.000 NA
ENDROOT
BRANCH   8  10
ATOM     10  C   UNL     1      26.536  23.717  26.174  0.00  0.00    +0.000 A 
ATOM     11  C   UNL     1      26.739  25.011  25.739  0.00  0.00    +0.000 A 
ATOM     12  C   UNL     1      26.706  25.315  24.373  0.00  0.00    +0.000 A 
ATOM     13  C   UNL     1      26.474  24.350  23.428  0.00  0.00    +0.000 A 
ATOM     14  F   UNL     1      26.429  24.577  22.092  0.00  0.00    +0.000 F 
ATOM     15  C   UNL     1      26.271  23.058  23.859  0.00  0.00    +0.000 A 
ATOM     16  C   UNL     1      26.304  22.752  25.215  0.00  0.00    +0.000 A 
ENDBRANCH   8  10
BRANCH   6  17
ATOM     17  C   UNL     1      26.603  22.788  30.342  0.00  0.00    +0.000 C 
ATOM     18  N   UNL     1      25.935  21.555  30.525  0.00  0.00    +0.000 NA
ATOM     19  O   UNL     1      26.101  23.823  30.860  0.00  0.00    +0.000 OA
ENDBRANCH   6  17
TORSDOF 2
ENDMDL
MODEL 4
REMARK VINA RESULT:      -5.6      4.288      5.962
REMARK  Name = 
REMARK  2 active torsions:
REMARK  status: ('A' for Active; 'I' for Inactive)
REMARK    1  A    between atoms: C_6  and  C_7
REMARK    2  A    between atoms: N_11  and  C_12
REMARK                            x       y       z     vdW  Elec       q    Type
REMARK                         _______ _______ _______ _____ _____    ______ ____
ROOT
ATOM      1  C   UNL     1      21.480  14.167  38.904  0.00  0.00    +0.000 C 
ATOM      2  C   UNL     1      20.691  13.017  38.350  0.00  0.00    +0.000 A 
ATOM      3  C   UNL     1      19.332  13.031  38.253  0.00  0.00    +0.000 A 
ATOM      4  C   UNL     1      18.696  11.942  37.738  0.00  0.00    +0.000 A 
ATOM      5  C   UNL     1      17.212  11.913  37.612  0.00  0.00    +0.000 C 
ATOM      6  C   UNL     1      19.426  10.849  37.324  0.00  0.00    +0.000 A 
ATOM      7  C   UNL     1      20.800  10.847  37.427  0.00  0.00    +0.000 A 
ATOM      8  N   UNL     1      21.566   9.727  37.005  0.00  0.00    +0.000 NA
ATOM      9  N   UNL     1      21.398  11.939  37.942  0.00  0.00    +0.000 NA
ENDROOT
BRANCH   8  10
ATOM     10  C   UNL     1      22.990   9.728  37.114  0.00  0.00    +0.000 A 
ATOM     11  C   UNL     1      23.768  10.309  36.133  0.00  0.00    +0.000 A 
ATOM     12  C   UNL     1      25.163  10.310  36.241  0.00  0.00    +0.000 A 
ATOM     13  C   UNL     1      25.802   9.741  37.312  0.00  0.00    +0.000 A 
ATOM     14  F   UNL     1      27.146   9.708  37.477  0.00  0.00    +0.000 F 
ATOM     15  C   UNL     1      25.028   9.160  38.292  0.00  0.00    +0.000 A 
ATOM     16  C   UNL     1      23.641   9.159  38.189  0.00  0.00    +0.000 A 
ENDBRANCH   8  10
BRANCH   6  17
ATOM     17  C   UNL     1      18.733   9.693  36.776  0.00  0.00    +0.000 C 
ATOM     18  N   UNL     1      18.558   9.539  35.381  0.00  0.00    +0.000 NA
ATOM     19  O   UNL     1      18.272   8.799  37.538  0.00  0.00    +0.000 OA
ENDBRANCH   6  17
TORSDOF 2
ENDMDL
MODEL 5
REMARK VINA RESULT:      -5.6     21.135     22.883
REMARK  Name = 
REMARK  2 active torsions:
REMARK  status: ('A' for Active; 'I' for Inactive)
REMARK    1  A    between atoms: C_6  and  C_7
REMARK    2  A    between atoms: N_11  and  C_12
REMARK                            x       y       z     vdW  Elec       q    Type
REMARK                         _______ _______ _______ _____ _____    ______ ____
ROOT
ATOM      1  C   UNL     1      22.178 -11.149  27.432  0.00  0.00    +0.000 C 
ATOM      2  C   UNL     1      22.711 -10.233  26.370  0.00  0.00    +0.000 A 
ATOM      3  C   UNL     1      23.896 -10.451  25.732  0.00  0.00    +0.000 A 
ATOM      4  C   UNL     1      24.305  -9.568  24.778  0.00  0.00    +0.000 A 
ATOM      5  C   UNL     1      25.591  -9.766  24.056  0.00  0.00    +0.000 C 
ATOM      6  C   UNL     1      23.524  -8.475  24.472  0.00  0.00    +0.000 A 
ATOM      7  C   UNL     1      22.328  -8.265  25.124  0.00  0.00    +0.000 A 
ATOM      8  N   UNL     1      21.513  -7.142  24.819  0.00  0.00    +0.000 NA
ATOM      9  N   UNL     1      21.953  -9.156  26.061  0.00  0.00    +0.000 NA
ENDROOT
BRANCH   8  10
ATOM     10  C   UNL     1      20.275  -6.927  25.496  0.00  0.00    +0.000 A 
ATOM     11  C   UNL     1      19.383  -7.966  25.674  0.00  0.00    +0.000 A 
ATOM     12  C   UNL     1      18.170  -7.755  26.339  0.00  0.00    +0.000 A 
ATOM     13  C   UNL     1      17.826  -6.524  26.833  0.00  0.00    +0.000 A 
ATOM     14  F   UNL     1      16.669  -6.252  27.485  0.00  0.00    +0.000 F 
ATOM     15  C   UNL     1      18.714  -5.485  26.657  0.00  0.00    +0.000 A 
ATOM     16  C   UNL     1      19.920  -5.692  25.998  0.00  0.00    +0.000 A 
ENDBRANCH   8  10
BRANCH   6  17
ATOM     17  C   UNL     1      23.974  -7.540  23.452  0.00  0.00    +0.000 C 
ATOM     18  N   UNL     1      23.587  -7.691  22.100  0.00  0.00    +0.000 NA
ATOM     19  O   UNL     1      24.721  -6.568  23.755  0.00  0.00    +0.000 OA
ENDBRANCH   6  17
TORSDOF 2
ENDMDL
MODEL 6
REMARK VINA RESULT:      -5.5     21.621     23.344
REMARK  Name = 
REMARK  2 active torsions:
REMARK  status: ('A' for Active; 'I' for Inactive)
REMARK    1  A    between atoms: C_6  and  C_7
REMARK    2  A    between atoms: N_11  and  C_12
REMARK                            x       y       z     vdW  Elec       q    Type
REMARK                         _______ _______ _______ _____ _____    ______ ____
ROOT
ATOM      1  C   UNL     1      25.039   5.318  13.262  0.00  0.00    +0.000 C 
ATOM      2  C   UNL     1      25.912   5.586  14.452  0.00  0.00    +0.000 A 
ATOM      3  C   UNL     1      26.980   6.430  14.410  0.00  0.00    +0.000 A 
ATOM      4  C   UNL     1      27.720   6.616  15.540  0.00  0.00    +0.000 A 
ATOM      5  C   UNL     1      28.895   7.530  15.541  0.00  0.00    +0.000 C 
ATOM      6  C   UNL     1      27.382   5.955  16.700  0.00  0.00    +0.000 A 
ATOM      7  C   UNL     1      26.299   5.103  16.730  0.00  0.00    +0.000 A 
ATOM      8  N   UNL     1      25.940   4.413  17.919  0.00  0.00    +0.000 NA
ATOM      9  N   UNL     1      25.590   4.941  15.597  0.00  0.00    +0.000 NA
ENDROOT
BRANCH   8  10
ATOM     10  C   UNL     1      24.818   3.531  17.947  0.00  0.00    +0.000 A 
ATOM     11  C   UNL     1      23.551   4.016  18.200  0.00  0.00    +0.000 A 
ATOM     12  C   UNL     1      22.451   3.151  18.225  0.00  0.00    +0.000 A 
ATOM     13  C   UNL     1      22.589   1.806  18.003  0.00  0.00    +0.000 A 
ATOM     14  F   UNL     1      21.568   0.915  18.014  0.00  0.00    +0.000 F 
ATOM     15  C   UNL     1      23.853   1.319  17.751  0.00  0.00    +0.000 A 
ATOM     16  C   UNL     1      24.947   2.176  17.723  0.00  0.00    +0.000 A 
ENDBRANCH   8  10
BRANCH   6  17
ATOM     17  C   UNL     1      28.182   6.162  17.899  0.00  0.00    +0.000 C 
ATOM     18  N   UNL     1      27.919   7.240  18.775  0.00  0.00    +0.000 NA
ATOM     19  O   UNL     1      29.130   5.378  18.183  0.00  0.00    +0.000 OA
ENDBRANCH   6  17
TORSDOF 2
ENDMDL
MODEL 7
REMARK VINA RESULT:      -5.5     17.864     19.531
REMARK  Name = 
REMARK  2 active torsions:
REMARK  status: ('A' for Active; 'I' for Inactive)
REMARK    1  A    between atoms: C_6  and  C_7
REMARK    2  A    between atoms: N_11  and  C_12
REMARK                            x       y       z     vdW  Elec       q    Type
REMARK                         _______ _______ _______ _____ _____    ______ ____
ROOT
ATOM      1  C   UNL     1      23.599  27.571  27.026  0.00  0.00    +0.000 C 
ATOM      2  C   UNL     1      24.364  26.610  27.887  0.00  0.00    +0.000 A 
ATOM      3  C   UNL     1      24.328  26.647  29.249  0.00  0.00    +0.000 A 
ATOM      4  C   UNL     1      25.054  25.735  29.954  0.00  0.00    +0.000 A 
ATOM      5  C   UNL     1      25.045  25.738  31.443  0.00  0.00    +0.000 C 
ATOM      6  C   UNL     1      25.809  24.794  29.289  0.00  0.00    +0.000 A 
ATOM      7  C   UNL     1      25.837  24.766  27.912  0.00  0.00    +0.000 A 
ATOM      8  N   UNL     1      26.612  23.802  27.213  0.00  0.00    +0.000 NA
ATOM      9  N   UNL     1      25.109  25.682  27.245  0.00  0.00    +0.000 NA
ENDROOT
BRANCH   8  10
ATOM     10  C   UNL     1      26.640  23.776  25.785  0.00  0.00    +0.000 A 
ATOM     11  C   UNL     1      25.659  23.113  25.077  0.00  0.00    +0.000 A 
ATOM     12  C   UNL     1      25.686  23.089  23.678  0.00  0.00    +0.000 A 
ATOM     13  C   UNL     1      26.675  23.716  22.967  0.00  0.00    +0.000 A 
ATOM     14  F   UNL     1      26.760  23.731  21.615  0.00  0.00    +0.000 F 
ATOM     15  C   UNL     1      27.656  24.379  23.672  0.00  0.00    +0.000 A 
ATOM     16  C   UNL     1      27.632  24.406  25.061  0.00  0.00    +0.000 A 
ENDBRANCH   8  10
BRANCH   6  17
ATOM     17  C   UNL     1      26.581  23.826  30.055  0.00  0.00    +0.000 C 
ATOM     18  N   UNL     1      25.991  22.630  30.526  0.00  0.00    +0.000 NA
ATOM     19  O   UNL     1      27.798  24.036  30.315  0.00  0.00    +0.000 OA
ENDBRANCH   6  17
TORSDOF 2
ENDMDL
MODEL 8
REMARK VINA RESULT:      -5.4     19.315     21.546
REMARK  Name = 
REMARK  2 active torsions:
REMARK  status: ('A' for Active; 'I' for Inactive)
REMARK    1  A    between atoms: C_6  and  C_7
REMARK    2  A    between atoms: N_11  and  C_12
REMARK                            x       y       z     vdW  Elec       q    Type
REMARK                         _______ _______ _______ _____ _____    ______ ____
ROOT
ATOM      1  C   UNL     1      27.760  28.176  25.786  0.00  0.00    +0.000 C 
ATOM      2  C   UNL     1      27.602  27.027  24.836  0.00  0.00    +0.000 A 
ATOM      3  C   UNL     1      27.667  27.172  23.482  0.00  0.00    +0.000 A 
ATOM      4  C   UNL     1      27.512  26.073  22.692  0.00  0.00    +0.000 A 
ATOM      5  C   UNL     1      27.576  26.184  21.208  0.00  0.00    +0.000 C 
ATOM      6  C   UNL     1      27.294  24.839  23.264  0.00  0.00    +0.000 A 
ATOM      7  C   UNL     1      27.230  24.705  24.634  0.00  0.00    +0.000 A 
ATOM      8  N   UNL     1      27.005  23.438  25.237  0.00  0.00    +0.000 NA
ATOM      9  N   UNL     1      27.387  25.810  25.386  0.00  0.00    +0.000 NA
ENDROOT
BRANCH   8  10
ATOM     10  C   UNL     1      26.939  23.303  26.657  0.00  0.00    +0.000 A 
ATOM     11  C   UNL     1      27.887  22.564  27.336  0.00  0.00    +0.000 A 
ATOM     12  C   UNL     1      27.822  22.432  28.728  0.00  0.00    +0.000 A 
ATOM     13  C   UNL     1      26.827  23.025  29.460  0.00  0.00    +0.000 A 
ATOM     14  F   UNL     1      26.707  22.937  30.807  0.00  0.00    +0.000 F 
ATOM     15  C   UNL     1      25.879  23.762  28.786  0.00  0.00    +0.000 A 
ATOM     16  C   UNL     1      25.941  23.896  27.403  0.00  0.00    +0.000 A 
ENDBRANCH   8  10
BRANCH   6  17
ATOM     17  C   UNL     1      27.130  23.673  22.407  0.00  0.00    +0.000 C 
ATOM     18  N   UNL     1      25.855  23.294  21.926  0.00  0.00    +0.000 NA
ATOM     19  O   UNL     1      28.127  22.975  22.073  0.00  0.00    +0.000 OA
ENDBRANCH   6  17
TORSDOF 2
ENDMDL
MODEL 9
REMARK VINA RESULT:      -5.3     20.397     22.673
REMARK  Name = 
REMARK  2 active torsions:
REMARK  status: ('A' for Active; 'I' for Inactive)
REMARK    1  A    between atoms: C_6  and  C_7
REMARK    2  A    between atoms: N_11  and  C_12
REMARK                            x       y       z     vdW  Elec       q    Type
REMARK                         _______ _______ _______ _____ _____    ______ ____
ROOT
ATOM      1  C   UNL     1      27.650  27.826  26.144  0.00  0.00    +0.000 C 
ATOM      2  C   UNL     1      27.852  26.926  24.961  0.00  0.00    +0.000 A 
ATOM      3  C   UNL     1      27.474  27.270  23.697  0.00  0.00    +0.000 A 
ATOM      4  C   UNL     1      27.695  26.391  22.679  0.00  0.00    +0.000 A 
ATOM      5  C   UNL     1      27.300  26.725  21.283  0.00  0.00    +0.000 C 
ATOM      6  C   UNL     1      28.293  25.177  22.936  0.00  0.00    +0.000 A 
ATOM      7  C   UNL     1      28.670  24.841  24.218  0.00  0.00    +0.000 A 
ATOM      8  N   UNL     1      29.287  23.591  24.498  0.00  0.00    +0.000 NA
ATOM      9  N   UNL     1      28.437  25.731  25.201  0.00  0.00    +0.000 NA
ENDROOT
BRANCH   8  10
ATOM     10  C   UNL     1      29.676  23.246  25.827  0.00  0.00    +0.000 A 
ATOM     11  C   UNL     1      28.740  22.802  26.739  0.00  0.00    +0.000 A 
ATOM     12  C   UNL     1      29.123  22.462  28.042  0.00  0.00    +0.000 A 
ATOM     13  C   UNL     1      30.425  22.557  28.456  0.00  0.00    +0.000 A 
ATOM     14  F   UNL     1      30.862  22.245  29.700  0.00  0.00    +0.000 F 
ATOM     15  C   UNL     1      31.362  23.000  27.548  0.00  0.00    +0.000 A 
ATOM     16  C   UNL     1      30.986  23.337  26.253  0.00  0.00    +0.000 A 
ENDBRANCH   8  10
BRANCH   6  17
ATOM     17  C   UNL     1      28.522  24.248  21.840  0.00  0.00    +0.000 C 
ATOM     18  N   UNL     1      29.651  24.377  20.997  0.00  0.00    +0.000 NA
ATOM     19  O   UNL     1      27.715  23.303  21.618  0.00  0.00    +0.000 OA
ENDBRANCH   6  17
TORSDOF 2
ENDMDL
MODEL 10
REMARK VINA RESULT:      -5.2     21.728     23.340
REMARK  Name = 
REMARK  2 active torsions:
REMARK  status: ('A' for Active; 'I' for Inactive)
REMARK    1  A    between atoms: C_6  and  C_7
REMARK    2  A    between atoms: N_11  and  C_12
REMARK                            x       y       z     vdW  Elec       q    Type
REMARK                         _______ _______ _______ _____ _____    ______ ____
ROOT
ATOM      1  C   UNL     1      27.835   0.408  16.914  0.00  0.00    +0.000 C 
ATOM      2  C   UNL     1      26.375   0.751  16.874  0.00  0.00    +0.000 A 
ATOM      3  C   UNL     1      25.404  -0.177  16.638  0.00  0.00    +0.000 A 
ATOM      4  C   UNL     1      24.101   0.221  16.619  0.00  0.00    +0.000 A 
ATOM      5  C   UNL     1      23.008  -0.757  16.367  0.00  0.00    +0.000 C 
ATOM      6  C   UNL     1      23.782   1.544  16.836  0.00  0.00    +0.000 A 
ATOM      7  C   UNL     1      24.773   2.472  17.072  0.00  0.00    +0.000 A 
ATOM      8  N   UNL     1      24.458   3.840  17.296  0.00  0.00    +0.000 NA
ATOM      9  N   UNL     1      26.050   2.047  17.084  0.00  0.00    +0.000 NA
ENDROOT
BRANCH   8  10
ATOM     10  C   UNL     1      25.487   4.799  17.541  0.00  0.00    +0.000 A 
ATOM     11  C   UNL     1      25.757   5.788  16.617  0.00  0.00    +0.000 A 
ATOM     12  C   UNL     1      26.765   6.729  16.857  0.00  0.00    +0.000 A 
ATOM     13  C   UNL     1      27.512   6.704  18.006  0.00  0.00    +0.000 A 
ATOM     14  F   UNL     1      28.501   7.583  18.300  0.00  0.00    +0.000 F 
ATOM     15  C   UNL     1      27.245   5.718  18.930  0.00  0.00    +0.000 A 
ATOM     16  C   UNL     1      26.244   4.782  18.694  0.00  0.00    +0.000 A 
ENDBRANCH   8  10
BRANCH   6  17
ATOM     17  C   UNL     1      22.386   1.955  16.811  0.00  0.00    +0.000 C 
ATOM     18  N   UNL     1      21.774   2.393  15.614  0.00  0.00    +0.000 NA
ATOM     19  O   UNL     1      21.689   1.927  17.864  0.00  0.00    +0.000 OA
ENDBRANCH   6  17
TORSDOF 2
ENDMDL
