MODEL 1
REMARK VINA RESULT:      -7.6      0.000      0.000
REMARK  Name = 
REMARK  3 active torsions:
REMARK  status: ('A' for Active; 'I' for Inactive)
REMARK    1  A    between atoms: C_4  and  N_5
REMARK    2  A    between atoms: N_5  and  N_6
REMARK    3  A    between atoms: C_7  and  C_9
REMARK                            x       y       z     vdW  Elec       q    Type
REMARK                         _______ _______ _______ _____ _____    ______ ____
ROOT
ATOM      1  N   UNL     1      15.808  11.331  34.545  0.00  0.00    +0.000 NA
ENDROOT
BRANCH   1   5
ATOM      2  C   UNL     1      14.513   9.774  32.400  0.00  0.00    +0.000 C 
ATOM      3  C   UNL     1      15.315  10.443  31.137  0.00  0.00    +0.000 C 
ATOM      4  C   UNL     1      16.352  11.275  32.076  0.00  0.00    +0.000 C 
ATOM      5  C   UNL     1      15.606  11.780  33.267  0.00  0.00    +0.000 C 
ATOM      6  C   UNL     1      14.709  12.715  32.888  0.00  0.00    +0.000 C 
ATOM      7  C   UNL     1      14.773  12.917  31.409  0.00  0.00    +0.000 C 
ATOM      8  C   UNL     1      13.941  14.026  30.902  0.00  0.00    +0.000 C 
ATOM      9  C   UNL     1      16.198  12.994  30.919  0.00  0.00    +0.000 C 
ATOM     10  C   UNL     1      14.198  11.605  30.897  0.00  0.00    +0.000 C 
ENDBRANCH   1   5
BRANCH   1  11
ATOM     11  N   UNL     1      16.685  11.069  35.461  0.00  0.00    +0.000 NA
ATOM     12  C   UNL     1      17.364   9.913  35.830  0.00  0.00    +0.000 C 
ATOM     13  O   UNL     1      17.166   8.839  35.219  0.00  0.00    +0.000 OA
BRANCH  12  14
ATOM     14  C   UNL     1      18.308   9.978  36.946  0.00  0.00    +0.000 A 
ATOM     15  C   UNL     1      19.667   9.850  36.743  0.00  0.00    +0.000 A 
ATOM     16  C   UNL     1      20.549   9.906  37.795  0.00  0.00    +0.000 A 
ATOM     17  C   UNL     1      20.094  10.092  39.082  0.00  0.00    +0.000 A 
ATOM     18  C   UNL     1      18.741  10.223  39.318  0.00  0.00    +0.000 A 
ATOM     19  C   UNL     1      17.879  10.161  38.233  0.00  0.00    +0.000 A 
ATOM     20  O   UNL     1      16.518  10.289  38.468  0.00  0.00    +0.000 OA
ENDBRANCH  12  14
ENDBRANCH   1  11
TORSDOF 3
ENDMDL
MODEL 2
REMARK VINA RESULT:      -7.4      1.837      7.222
REMARK  Name = 
REMARK  3 active torsions:
REMARK  status: ('A' for Active; 'I' for Inactive)
REMARK    1  A    between atoms: C_4  and  N_5
REMARK    2  A    between atoms: N_5  and  N_6
REMARK    3  A    between atoms: C_7  and  C_9
REMARK                            x       y       z     vdW  Elec       q    Type
REMARK                         _______ _______ _______ _____ _____    ______ ____
ROOT
ATOM      1  N   UNL     1      16.602  12.317  37.120  0.00  0.00    +0.000 NA
ENDROOT
BRANCH   1   5
ATOM      2  C   UNL     1      17.959  10.043  35.821  0.00  0.00    +0.000 C 
ATOM      3  C   UNL     1      18.402   9.251  37.186  0.00  0.00    +0.000 C 
ATOM      4  C   UNL     1      17.550  10.223  38.174  0.00  0.00    +0.000 C 
ATOM      5  C   UNL     1      17.651  11.622  37.660  0.00  0.00    +0.000 C 
ATOM      6  C   UNL     1      18.917  12.073  37.793  0.00  0.00    +0.000 C 
ATOM      7  C   UNL     1      19.776  11.015  38.406  0.00  0.00    +0.000 C 
ATOM      8  C   UNL     1      21.146  11.451  38.738  0.00  0.00    +0.000 C 
ATOM      9  C   UNL     1      19.087  10.343  39.568  0.00  0.00    +0.000 C 
ATOM     10  C   UNL     1      19.850   9.993  37.282  0.00  0.00    +0.000 C 
ENDBRANCH   1   5
BRANCH   1  11
ATOM     11  N   UNL     1      16.008  12.681  36.029  0.00  0.00    +0.000 NA
ATOM     12  C   UNL     1      14.740  12.445  35.508  0.00  0.00    +0.000 C 
ATOM     13  O   UNL     1      13.915  11.748  36.139  0.00  0.00    +0.000 OA
BRANCH  12  14
ATOM     14  C   UNL     1      14.395  13.026  34.209  0.00  0.00    +0.000 A 
ATOM     15  C   UNL     1      13.680  14.202  34.118  0.00  0.00    +0.000 A 
ATOM     16  C   UNL     1      13.353  14.739  32.896  0.00  0.00    +0.000 A 
ATOM     17  C   UNL     1      13.733  14.113  31.731  0.00  0.00    +0.000 A 
ATOM     18  C   UNL     1      14.449  12.934  31.788  0.00  0.00    +0.000 A 
ATOM     19  C   UNL     1      14.761  12.419  33.038  0.00  0.00    +0.000 A 
ATOM     20  O   UNL     1      15.478  11.233  33.099  0.00  0.00    +0.000 OA
ENDBRANCH  12  14
ENDBRANCH   1  11
TORSDOF 3
ENDMDL
MODEL 3
REMARK VINA RESULT:      -7.0      1.686      7.399
REMARK  Name = 
REMARK  3 active torsions:
REMARK  status: ('A' for Active; 'I' for Inactive)
REMARK    1  A    between atoms: C_4  and  N_5
REMARK    2  A    between atoms: N_5  and  N_6
REMARK    3  A    between atoms: C_7  and  C_9
REMARK                            x       y       z     vdW  Elec       q    Type
REMARK                         _______ _______ _______ _____ _____    ______ ____
ROOT
ATOM      1  N   UNL     1      16.918  11.961  36.367  0.00  0.00    +0.000 NA
ENDROOT
BRANCH   1   5
ATOM      2  C   UNL     1      19.299  12.557  38.004  0.00  0.00    +0.000 C 
ATOM      3  C   UNL     1      19.902  11.034  38.065  0.00  0.00    +0.000 C 
ATOM      4  C   UNL     1      18.838  10.436  36.989  0.00  0.00    +0.000 C 
ATOM      5  C   UNL     1      17.512  11.080  37.231  0.00  0.00    +0.000 C 
ATOM      6  C   UNL     1      17.014  10.678  38.420  0.00  0.00    +0.000 C 
ATOM      7  C   UNL     1      17.963   9.731  39.080  0.00  0.00    +0.000 C 
ATOM      8  C   UNL     1      17.452   9.109  40.317  0.00  0.00    +0.000 C 
ATOM      9  C   UNL     1      18.504   8.715  38.103  0.00  0.00    +0.000 C 
ATOM     10  C   UNL     1      19.115  10.656  39.440  0.00  0.00    +0.000 C 
ENDBRANCH   1   5
BRANCH   1  11
ATOM     11  N   UNL     1      16.391  12.120  35.195  0.00  0.00    +0.000 NA
ATOM     12  C   UNL     1      15.079  12.136  34.733  0.00  0.00    +0.000 C 
ATOM     13  O   UNL     1      14.125  11.975  35.527  0.00  0.00    +0.000 OA
BRANCH  12  14
ATOM     14  C   UNL     1      14.840  12.343  33.304  0.00  0.00    +0.000 A 
ATOM     15  C   UNL     1      14.171  13.458  32.844  0.00  0.00    +0.000 A 
ATOM     16  C   UNL     1      13.944  13.645  31.502  0.00  0.00    +0.000 A 
ATOM     17  C   UNL     1      14.381  12.718  30.582  0.00  0.00    +0.000 A 
ATOM     18  C   UNL     1      15.053  11.591  31.010  0.00  0.00    +0.000 A 
ATOM     19  C   UNL     1      15.264  11.435  32.372  0.00  0.00    +0.000 A 
ATOM     20  O   UNL     1      15.937  10.302  32.806  0.00  0.00    +0.000 OA
ENDBRANCH  12  14
ENDBRANCH   1  11
TORSDOF 3
ENDMDL
MODEL 4
REMARK VINA RESULT:      -6.5      1.563      7.359
REMARK  Name = 
REMARK  3 active torsions:
REMARK  status: ('A' for Active; 'I' for Inactive)
REMARK    1  A    between atoms: C_4  and  N_5
REMARK    2  A    between atoms: N_5  and  N_6
REMARK    3  A    between atoms: C_7  and  C_9
REMARK                            x       y       z     vdW  Elec       q    Type
REMARK                         _______ _______ _______ _____ _____    ______ ____
ROOT
ATOM      1  N   UNL     1      17.273  10.684  36.414  0.00  0.00    +0.000 NA
ENDROOT
BRANCH   1   5
ATOM      2  C   UNL     1      17.782   9.348  38.994  0.00  0.00    +0.000 C 
ATOM      3  C   UNL     1      18.976  10.343  39.517  0.00  0.00    +0.000 C 
ATOM      4  C   UNL     1      18.785  11.413  38.306  0.00  0.00    +0.000 C 
ATOM      5  C   UNL     1      18.483  10.656  37.053  0.00  0.00    +0.000 C 
ATOM      6  C   UNL     1      19.565   9.945  36.673  0.00  0.00    +0.000 C 
ATOM      7  C   UNL     1      20.686  10.158  37.637  0.00  0.00    +0.000 C 
ATOM      8  C   UNL     1      21.968   9.547  37.237  0.00  0.00    +0.000 C 
ATOM      9  C   UNL     1      20.831  11.615  38.007  0.00  0.00    +0.000 C 
ATOM     10  C   UNL     1      20.168   9.437  38.872  0.00  0.00    +0.000 C 
ENDBRANCH   1   5
BRANCH   1  11
ATOM     11  N   UNL     1      16.608  11.137  35.400  0.00  0.00    +0.000 NA
ATOM     12  C   UNL     1      16.682  10.906  34.030  0.00  0.00    +0.000 C 
ATOM     13  O   UNL     1      17.532  10.113  33.566  0.00  0.00    +0.000 OA
BRANCH  12  14
ATOM     14  C   UNL     1      15.751  11.610  33.147  0.00  0.00    +0.000 A 
ATOM     15  C   UNL     1      14.980  12.658  33.608  0.00  0.00    +0.000 A 
ATOM     16  C   UNL     1      14.103  13.311  32.776  0.00  0.00    +0.000 A 
ATOM     17  C   UNL     1      13.973  12.933  31.458  0.00  0.00    +0.000 A 
ATOM     18  C   UNL     1      14.730  11.889  30.967  0.00  0.00    +0.000 A 
ATOM     19  C   UNL     1      15.605  11.251  31.834  0.00  0.00    +0.000 A 
ATOM     20  O   UNL     1      16.365  10.199  31.344  0.00  0.00    +0.000 OA
ENDBRANCH  12  14
ENDBRANCH   1  11
TORSDOF 3
ENDMDL
MODEL 5
REMARK VINA RESULT:      -6.4      2.122      7.572
REMARK  Name = 
REMARK  3 active torsions:
REMARK  status: ('A' for Active; 'I' for Inactive)
REMARK    1  A    between atoms: C_4  and  N_5
REMARK    2  A    between atoms: N_5  and  N_6
REMARK    3  A    between atoms: C_7  and  C_9
REMARK                            x       y       z     vdW  Elec       q    Type
REMARK                         _______ _______ _______ _____ _____    ______ ____
ROOT
ATOM      1  N   UNL     1      18.089   9.947  37.189  0.00  0.00    +0.000 NA
ENDROOT
BRANCH   1   5
ATOM      2  C   UNL     1      19.800  10.708  39.468  0.00  0.00    +0.000 C 
ATOM      3  C   UNL     1      19.657   9.313  40.317  0.00  0.00    +0.000 C 
ATOM      4  C   UNL     1      18.869   8.526  39.130  0.00  0.00    +0.000 C 
ATOM      5  C   UNL     1      17.935   9.486  38.469  0.00  0.00    +0.000 C 
ATOM      6  C   UNL     1      16.948   9.831  39.323  0.00  0.00    +0.000 C 
ATOM      7  C   UNL     1      17.135   9.136  40.632  0.00  0.00    +0.000 C 
ATOM      8  C   UNL     1      16.030   9.322  41.592  0.00  0.00    +0.000 C 
ATOM      9  C   UNL     1      17.497   7.683  40.443  0.00  0.00    +0.000 C 
ATOM     10  C   UNL     1      18.373   9.834  41.174  0.00  0.00    +0.000 C 
ENDBRANCH   1   5
BRANCH   1  11
ATOM     11  N   UNL     1      17.496  10.221  36.072  0.00  0.00    +0.000 NA
ATOM     12  C   UNL     1      17.053  11.404  35.490  0.00  0.00    +0.000 C 
ATOM     13  O   UNL     1      17.209  12.497  36.080  0.00  0.00    +0.000 OA
BRANCH  12  14
ATOM     14  C   UNL     1      16.403  11.344  34.180  0.00  0.00    +0.000 A 
ATOM     15  C   UNL     1      16.930  10.589  33.153  0.00  0.00    +0.000 A 
ATOM     16  C   UNL     1      16.319  10.541  31.924  0.00  0.00    +0.000 A 
ATOM     17  C   UNL     1      15.162  11.250  31.688  0.00  0.00    +0.000 A 
ATOM     18  C   UNL     1      14.610  12.016  32.694  0.00  0.00    +0.000 A 
ATOM     19  C   UNL     1      15.254  12.042  33.923  0.00  0.00    +0.000 A 
ATOM     20  O   UNL     1      14.704  12.814  34.936  0.00  0.00    +0.000 OA
ENDBRANCH  12  14
ENDBRANCH   1  11
TORSDOF 3
ENDMDL
MODEL 6
REMARK VINA RESULT:      -6.4      3.090      8.128
REMARK  Name = 
REMARK  3 active torsions:
REMARK  status: ('A' for Active; 'I' for Inactive)
REMARK    1  A    between atoms: C_4  and  N_5
REMARK    2  A    between atoms: N_5  and  N_6
REMARK    3  A    between atoms: C_7  and  C_9
REMARK                            x       y       z     vdW  Elec       q    Type
REMARK                         _______ _______ _______ _____ _____    ______ ____
ROOT
ATOM      1  N   UNL     1      17.955   9.699  39.162  0.00  0.00    +0.000 NA
ENDROOT
BRANCH   1   5
ATOM      2  C   UNL     1      15.477   9.572  40.757  0.00  0.00    +0.000 C 
ATOM      3  C   UNL     1      16.171   9.222  42.200  0.00  0.00    +0.000 C 
ATOM      4  C   UNL     1      17.691   9.443  41.663  0.00  0.00    +0.000 C 
ATOM      5  C   UNL     1      17.779   8.914  40.269  0.00  0.00    +0.000 C 
ATOM      6  C   UNL     1      17.643   7.571  40.276  0.00  0.00    +0.000 C 
ATOM      7  C   UNL     1      17.448   7.082  41.674  0.00  0.00    +0.000 C 
ATOM      8  C   UNL     1      17.439   5.613  41.817  0.00  0.00    +0.000 C 
ATOM      9  C   UNL     1      18.402   7.750  42.635  0.00  0.00    +0.000 C 
ATOM     10  C   UNL     1      16.058   7.610  41.992  0.00  0.00    +0.000 C 
ENDBRANCH   1   5
BRANCH   1  11
ATOM     11  N   UNL     1      17.514  10.001  37.983  0.00  0.00    +0.000 NA
ATOM     12  C   UNL     1      17.680  11.107  37.155  0.00  0.00    +0.000 C 
ATOM     13  O   UNL     1      18.384  12.074  37.522  0.00  0.00    +0.000 OA
BRANCH  12  14
ATOM     14  C   UNL     1      17.015  11.115  35.851  0.00  0.00    +0.000 A 
ATOM     15  C   UNL     1      17.544  10.436  34.773  0.00  0.00    +0.000 A 
ATOM     16  C   UNL     1      16.918  10.453  33.549  0.00  0.00    +0.000 A 
ATOM     17  C   UNL     1      15.744  11.150  33.371  0.00  0.00    +0.000 A 
ATOM     18  C   UNL     1      15.189  11.840  34.430  0.00  0.00    +0.000 A 
ATOM     19  C   UNL     1      15.848  11.802  35.651  0.00  0.00    +0.000 A 
ATOM     20  O   UNL     1      15.294  12.497  36.717  0.00  0.00    +0.000 OA
ENDBRANCH  12  14
ENDBRANCH   1  11
TORSDOF 3
ENDMDL
MODEL 7
REMARK VINA RESULT:      -6.4     20.593     23.482
REMARK  Name = 
REMARK  3 active torsions:
REMARK  status: ('A' for Active; 'I' for Inactive)
REMARK    1  A    between atoms: C_4  and  N_5
REMARK    2  A    between atoms: N_5  and  N_6
REMARK    3  A    between atoms: C_7  and  C_9
REMARK                            x       y       z     vdW  Elec       q    Type
REMARK                         _______ _______ _______ _____ _____    ______ ____
ROOT
ATOM      1  N   UNL     1      33.759  -3.846  33.493  0.00  0.00    +0.000 NA
ENDROOT
BRANCH   1   5
ATOM      2  C   UNL     1      35.252  -2.673  35.751  0.00  0.00    +0.000 C 
ATOM      3  C   UNL     1      34.028  -1.776  36.372  0.00  0.00    +0.000 C 
ATOM      4  C   UNL     1      32.897  -2.414  35.391  0.00  0.00    +0.000 C 
ATOM      5  C   UNL     1      33.506  -2.617  34.042  0.00  0.00    +0.000 C 
ATOM      6  C   UNL     1      33.777  -1.423  33.473  0.00  0.00    +0.000 C 
ATOM      7  C   UNL     1      33.376  -0.315  34.391  0.00  0.00    +0.000 C 
ATOM      8  C   UNL     1      33.486   1.037  33.809  0.00  0.00    +0.000 C 
ATOM      9  C   UNL     1      32.023  -0.567  35.010  0.00  0.00    +0.000 C 
ATOM     10  C   UNL     1      34.405  -0.451  35.502  0.00  0.00    +0.000 C 
ENDBRANCH   1   5
BRANCH   1  11
ATOM     11  N   UNL     1      33.876  -4.524  32.397  0.00  0.00    +0.000 NA
ATOM     12  C   UNL     1      33.123  -5.541  31.818  0.00  0.00    +0.000 C 
ATOM     13  O   UNL     1      32.093  -5.969  32.386  0.00  0.00    +0.000 OA
BRANCH  12  14
ATOM     14  C   UNL     1      33.560  -6.097  30.537  0.00  0.00    +0.000 A 
ATOM     15  C   UNL     1      33.116  -5.574  29.340  0.00  0.00    +0.000 A 
ATOM     16  C   UNL     1      33.525  -6.103  28.140  0.00  0.00    +0.000 A 
ATOM     17  C   UNL     1      34.390  -7.174  28.105  0.00  0.00    +0.000 A 
ATOM     18  C   UNL     1      34.852  -7.721  29.285  0.00  0.00    +0.000 A 
ATOM     19  C   UNL     1      34.419  -7.161  30.478  0.00  0.00    +0.000 A 
ATOM     20  O   UNL     1      34.879  -7.711  31.666  0.00  0.00    +0.000 OA
ENDBRANCH  12  14
ENDBRANCH   1  11
TORSDOF 3
ENDMDL
MODEL 8
REMARK VINA RESULT:      -6.4      3.045      7.628
REMARK  Name = 
REMARK  3 active torsions:
REMARK  status: ('A' for Active; 'I' for Inactive)
REMARK    1  A    between atoms: C_4  and  N_5
REMARK    2  A    between atoms: N_5  and  N_6
REMARK    3  A    between atoms: C_7  and  C_9
REMARK                            x       y       z     vdW  Elec       q    Type
REMARK                         _______ _______ _______ _____ _____    ______ ____
ROOT
ATOM      1  N   UNL     1      19.847  10.826  38.335  0.00  0.00    +0.000 NA
ENDROOT
BRANCH   1   5
ATOM      2  C   UNL     1      21.686   8.924  39.640  0.00  0.00    +0.000 C 
ATOM      3  C   UNL     1      23.056   9.810  39.482  0.00  0.00    +0.000 C 
ATOM      4  C   UNL     1      22.284  11.134  38.935  0.00  0.00    +0.000 C 
ATOM      5  C   UNL     1      21.176  10.694  38.035  0.00  0.00    +0.000 C 
ATOM      6  C   UNL     1      21.685  10.143  36.912  0.00  0.00    +0.000 C 
ATOM      7  C   UNL     1      23.178  10.162  36.962  0.00  0.00    +0.000 C 
ATOM      8  C   UNL     1      23.842   9.722  35.720  0.00  0.00    +0.000 C 
ATOM      9  C   UNL     1      23.701  11.489  37.457  0.00  0.00    +0.000 C 
ATOM     10  C   UNL     1      23.460   9.140  38.052  0.00  0.00    +0.000 C 
ENDBRANCH   1   5
BRANCH   1  11
ATOM     11  N   UNL     1      18.669  11.103  37.877  0.00  0.00    +0.000 NA
ATOM     12  C   UNL     1      17.728  10.372  37.158  0.00  0.00    +0.000 C 
ATOM     13  O   UNL     1      17.961   9.187  36.830  0.00  0.00    +0.000 OA
BRANCH  12  14
ATOM     14  C   UNL     1      16.466  11.018  36.793  0.00  0.00    +0.000 A 
ATOM     15  C   UNL     1      15.451  11.178  37.713  0.00  0.00    +0.000 A 
ATOM     16  C   UNL     1      14.266  11.779  37.364  0.00  0.00    +0.000 A 
ATOM     17  C   UNL     1      14.064  12.237  36.080  0.00  0.00    +0.000 A 
ATOM     18  C   UNL     1      15.060  12.091  35.136  0.00  0.00    +0.000 A 
ATOM     19  C   UNL     1      16.243  11.479  35.523  0.00  0.00    +0.000 A 
ATOM     20  O   UNL     1      17.245  11.328  34.575  0.00  0.00    +0.000 OA
ENDBRANCH  12  14
ENDBRANCH   1  11
TORSDOF 3
ENDMDL
MODEL 9
REMARK VINA RESULT:      -6.4     22.296     24.995
REMARK  Name = 
REMARK  3 active torsions:
REMARK  status: ('A' for Active; 'I' for Inactive)
REMARK    1  A    between atoms: C_4  and  N_5
REMARK    2  A    between atoms: N_5  and  N_6
REMARK    3  A    between atoms: C_7  and  C_9
REMARK                            x       y       z     vdW  Elec       q    Type
REMARK                         _______ _______ _______ _____ _____    ______ ____
ROOT
ATOM      1  N   UNL     1      29.553  25.010  20.873  0.00  0.00    +0.000 NA
ENDROOT
BRANCH   1   5
ATOM      2  C   UNL     1      30.369  24.089  23.553  0.00  0.00    +0.000 C 
ATOM      3  C   UNL     1      29.047  23.174  23.876  0.00  0.00    +0.000 C 
ATOM      4  C   UNL     1      28.432  23.313  22.376  0.00  0.00    +0.000 C 
ATOM      5  C   UNL     1      28.689  24.702  21.889  0.00  0.00    +0.000 C 
ATOM      6  C   UNL     1      27.962  25.584  22.607  0.00  0.00    +0.000 C 
ATOM      7  C   UNL     1      27.157  24.865  23.640  0.00  0.00    +0.000 C 
ATOM      8  C   UNL     1      26.209  25.717  24.385  0.00  0.00    +0.000 C 
ATOM      9  C   UNL     1      26.501  23.630  23.074  0.00  0.00    +0.000 C 
ATOM     10  C   UNL     1      28.240  24.392  24.597  0.00  0.00    +0.000 C 
ENDBRANCH   1   5
BRANCH   1  11
ATOM     11  N   UNL     1      29.757  25.746  19.828  0.00  0.00    +0.000 NA
ATOM     12  C   UNL     1      29.836  27.121  19.629  0.00  0.00    +0.000 C 
ATOM     13  O   UNL     1      29.697  27.909  20.590  0.00  0.00    +0.000 OA
BRANCH  12  14
ATOM     14  C   UNL     1      30.082  27.622  18.276  0.00  0.00    +0.000 A 
ATOM     15  C   UNL     1      31.313  27.477  17.671  0.00  0.00    +0.000 A 
ATOM     16  C   UNL     1      31.540  27.955  16.403  0.00  0.00    +0.000 A 
ATOM     17  C   UNL     1      30.539  28.594  15.705  0.00  0.00    +0.000 A 
ATOM     18  C   UNL     1      29.297  28.756  16.283  0.00  0.00    +0.000 A 
ATOM     19  C   UNL     1      29.102  28.262  17.565  0.00  0.00    +0.000 A 
ATOM     20  O   UNL     1      27.855  28.426  18.150  0.00  0.00    +0.000 OA
ENDBRANCH  12  14
ENDBRANCH   1  11
TORSDOF 3
ENDMDL
MODEL 10
REMARK VINA RESULT:      -6.3     19.254     21.203
REMARK  Name = 
REMARK  3 active torsions:
REMARK  status: ('A' for Active; 'I' for Inactive)
REMARK    1  A    between atoms: C_4  and  N_5
REMARK    2  A    between atoms: N_5  and  N_6
REMARK    3  A    between atoms: C_7  and  C_9
REMARK                            x       y       z     vdW  Elec       q    Type
REMARK                         _______ _______ _______ _____ _____    ______ ____
ROOT
ATOM      1  N   UNL     1      24.878   5.044  17.760  0.00  0.00    +0.000 NA
ENDROOT
BRANCH   1   5
ATOM      2  C   UNL     1      27.360   5.708  19.209  0.00  0.00    +0.000 C 
ATOM      3  C   UNL     1      27.836   6.954  18.257  0.00  0.00    +0.000 C 
ATOM      4  C   UNL     1      26.453   6.989  17.399  0.00  0.00    +0.000 C 
ATOM      5  C   UNL     1      25.998   5.583  17.185  0.00  0.00    +0.000 C 
ATOM      6  C   UNL     1      26.857   4.939  16.367  0.00  0.00    +0.000 C 
ATOM      7  C   UNL     1      27.965   5.855  15.963  0.00  0.00    +0.000 C 
ATOM      8  C   UNL     1      28.883   5.302  14.947  0.00  0.00    +0.000 C 
ATOM      9  C   UNL     1      27.448   7.223  15.590  0.00  0.00    +0.000 C 
ATOM     10  C   UNL     1      28.725   6.010  17.271  0.00  0.00    +0.000 C 
ENDBRANCH   1   5
BRANCH   1  11
ATOM     11  N   UNL     1      23.843   4.286  17.584  0.00  0.00    +0.000 NA
ATOM     12  C   UNL     1      23.452   3.065  18.122  0.00  0.00    +0.000 C 
ATOM     13  O   UNL     1      24.172   2.483  18.964  0.00  0.00    +0.000 OA
BRANCH  12  14
ATOM     14  C   UNL     1      22.186   2.476  17.683  0.00  0.00    +0.000 A 
ATOM     15  C   UNL     1      20.978   2.924  18.178  0.00  0.00    +0.000 A 
ATOM     16  C   UNL     1      19.793   2.364  17.766  0.00  0.00    +0.000 A 
ATOM     17  C   UNL     1      19.784   1.338  16.848  0.00  0.00    +0.000 A 
ATOM     18  C   UNL     1      20.975   0.867  16.335  0.00  0.00    +0.000 A 
ATOM     19  C   UNL     1      22.153   1.455  16.773  0.00  0.00    +0.000 A 
ATOM     20  O   UNL     1      23.353   0.981  16.261  0.00  0.00    +0.000 OA
ENDBRANCH  12  14
ENDBRANCH   1  11
TORSDOF 3
ENDMDL
