MODEL 1
REMARK VINA RESULT:      -7.1      0.000      0.000
REMARK  Name = 
REMARK  4 active torsions:
REMARK  status: ('A' for Active; 'I' for Inactive)
REMARK    1  A    between atoms: C_2  and  N_3
REMARK    2  A    between atoms: C_2  and  N_10
REMARK    3  A    between atoms: N_3  and  C_4
REMARK    4  A    between atoms: N_10  and  C_11
REMARK                            x       y       z     vdW  Elec       q    Type
REMARK                         _______ _______ _______ _____ _____    ______ ____
ROOT
ATOM      1  S   UNL     1      17.072  10.313  34.238  0.00  0.00    +0.000 S 
ATOM      2  C   UNL     1      16.112  11.621  34.272  0.00  0.00    +0.000 C 
ENDROOT
BRANCH   2   3
ATOM      3  N   UNL     1      15.938  12.345  35.477  0.00  0.00    +0.000 NA
BRANCH   3   4
ATOM      4  C   UNL     1      15.033  11.867  36.477  0.00  0.00    +0.000 A 
ATOM      5  C   UNL     1      15.484  11.332  37.649  0.00  0.00    +0.000 A 
ATOM      6  C   UNL     1      14.557  10.894  38.566  0.00  0.00    +0.000 A 
ATOM      7  C   UNL     1      13.211  10.988  38.312  0.00  0.00    +0.000 A 
ATOM      8  N   UNL     1      12.784  11.516  37.155  0.00  0.00    +0.000 NA
ATOM      9  C   UNL     1      13.676  11.944  36.265  0.00  0.00    +0.000 A 
ENDBRANCH   3   4
ENDBRANCH   2   3
BRANCH   2  10
ATOM     10  N   UNL     1      15.452  12.047  33.120  0.00  0.00    +0.000 NA
BRANCH  10  11
ATOM     11  C   UNL     1      15.872  11.573  31.834  0.00  0.00    +0.000 C 
ATOM     12  C   UNL     1      14.688  11.113  31.025  0.00  0.00    +0.000 C 
ATOM     13  C   UNL     1      13.786  12.315  30.735  0.00  0.00    +0.000 C 
ATOM     14  C   UNL     1      13.792  13.283  31.885  0.00  0.00    +0.000 C 
ATOM     15  C   UNL     1      14.160  14.690  31.460  0.00  0.00    +0.000 C 
ATOM     16  C   UNL     1      15.512  14.751  30.800  0.00  0.00    +0.000 C 
ATOM     17  C   UNL     1      15.891  13.436  30.153  0.00  0.00    +0.000 C 
ATOM     18  C   UNL     1      16.689  12.625  31.164  0.00  0.00    +0.000 C 
ENDBRANCH  10  11
ENDBRANCH   2  10
TORSDOF 4
ENDMDL
MODEL 2
REMARK VINA RESULT:      -6.2      1.614      2.301
REMARK  Name = 
REMARK  4 active torsions:
REMARK  status: ('A' for Active; 'I' for Inactive)
REMARK    1  A    between atoms: C_2  and  N_3
REMARK    2  A    between atoms: C_2  and  N_10
REMARK    3  A    between atoms: N_3  and  C_4
REMARK    4  A    between atoms: N_10  and  C_11
REMARK                            x       y       z     vdW  Elec       q    Type
REMARK                         _______ _______ _______ _____ _____    ______ ____
ROOT
ATOM      1  S   UNL     1      17.296  10.287  33.886  0.00  0.00    +0.000 S 
ATOM      2  C   UNL     1      16.227  11.490  34.093  0.00  0.00    +0.000 C 
ENDROOT
BRANCH   2   3
ATOM      3  N   UNL     1      15.968  11.997  35.390  0.00  0.00    +0.000 NA
BRANCH   3   4
ATOM      4  C   UNL     1      16.789  11.600  36.493  0.00  0.00    +0.000 A 
ATOM      5  C   UNL     1      16.497  10.493  37.237  0.00  0.00    +0.000 A 
ATOM      6  C   UNL     1      17.331  10.170  38.282  0.00  0.00    +0.000 A 
ATOM      7  C   UNL     1      18.429  10.939  38.575  0.00  0.00    +0.000 A 
ATOM      8  N   UNL     1      18.703  12.025  37.835  0.00  0.00    +0.000 NA
ATOM      9  C   UNL     1      17.901  12.342  36.821  0.00  0.00    +0.000 A 
ENDBRANCH   3   4
ENDBRANCH   2   3
BRANCH   2  10
ATOM     10  N   UNL     1      15.553  12.037  33.001  0.00  0.00    +0.000 NA
BRANCH  10  11
ATOM     11  C   UNL     1      15.902  11.639  31.669  0.00  0.00    +0.000 C 
ATOM     12  C   UNL     1      14.677  11.207  30.907  0.00  0.00    +0.000 C 
ATOM     13  C   UNL     1      13.747  12.410  30.736  0.00  0.00    +0.000 C 
ATOM     14  C   UNL     1      13.811  13.315  31.935  0.00  0.00    +0.000 C 
ATOM     15  C   UNL     1      14.138  14.748  31.567  0.00  0.00    +0.000 C 
ATOM     16  C   UNL     1      15.448  14.863  30.833  0.00  0.00    +0.000 C 
ATOM     17  C   UNL     1      15.802  13.590  30.094  0.00  0.00    +0.000 C 
ATOM     18  C   UNL     1      16.667  12.737  31.011  0.00  0.00    +0.000 C 
ENDBRANCH  10  11
ENDBRANCH   2  10
TORSDOF 4
ENDMDL
MODEL 3
REMARK VINA RESULT:      -5.7     26.799     29.886
REMARK  Name = 
REMARK  4 active torsions:
REMARK  status: ('A' for Active; 'I' for Inactive)
REMARK    1  A    between atoms: C_2  and  N_3
REMARK    2  A    between atoms: C_2  and  N_10
REMARK    3  A    between atoms: N_3  and  C_4
REMARK    4  A    between atoms: N_10  and  C_11
REMARK                            x       y       z     vdW  Elec       q    Type
REMARK                         _______ _______ _______ _____ _____    ______ ____
ROOT
ATOM      1  S   UNL     1      31.406  21.188  13.008  0.00  0.00    +0.000 S 
ATOM      2  C   UNL     1      31.075  22.215  11.796  0.00  0.00    +0.000 C 
ENDROOT
BRANCH   2   3
ATOM      3  N   UNL     1      30.206  23.314  12.011  0.00  0.00    +0.000 NA
BRANCH   3   4
ATOM      4  C   UNL     1      28.807  23.093  12.212  0.00  0.00    +0.000 A 
ATOM      5  C   UNL     1      28.038  22.487  11.261  0.00  0.00    +0.000 A 
ATOM      6  C   UNL     1      26.699  22.306  11.521  0.00  0.00    +0.000 A 
ATOM      7  C   UNL     1      26.146  22.725  12.705  0.00  0.00    +0.000 A 
ATOM      8  N   UNL     1      26.916  23.321  13.631  0.00  0.00    +0.000 NA
ATOM      9  C   UNL     1      28.211  23.496  13.385  0.00  0.00    +0.000 A 
ENDBRANCH   3   4
ENDBRANCH   2   3
BRANCH   2  10
ATOM     10  N   UNL     1      31.642  22.032  10.535  0.00  0.00    +0.000 NA
BRANCH  10  11
ATOM     11  C   UNL     1      31.644  20.732   9.931  0.00  0.00    +0.000 C 
ATOM     12  C   UNL     1      30.692  20.688   8.764  0.00  0.00    +0.000 C 
ATOM     13  C   UNL     1      31.195  21.637   7.675  0.00  0.00    +0.000 C 
ATOM     14  C   UNL     1      31.854  22.847   8.277  0.00  0.00    +0.000 C 
ATOM     15  C   UNL     1      33.260  23.065   7.756  0.00  0.00    +0.000 C 
ATOM     16  C   UNL     1      34.153  21.880   8.011  0.00  0.00    +0.000 C 
ATOM     17  C   UNL     1      33.370  20.588   8.116  0.00  0.00    +0.000 C 
ATOM     18  C   UNL     1      33.043  20.352   9.584  0.00  0.00    +0.000 C 
ENDBRANCH  10  11
ENDBRANCH   2  10
TORSDOF 4
ENDMDL
MODEL 4
REMARK VINA RESULT:      -5.5     19.904     21.341
REMARK  Name = 
REMARK  4 active torsions:
REMARK  status: ('A' for Active; 'I' for Inactive)
REMARK    1  A    between atoms: C_2  and  N_3
REMARK    2  A    between atoms: C_2  and  N_10
REMARK    3  A    between atoms: N_3  and  C_4
REMARK    4  A    between atoms: N_10  and  C_11
REMARK                            x       y       z     vdW  Elec       q    Type
REMARK                         _______ _______ _______ _____ _____    ______ ____
ROOT
ATOM      1  S   UNL     1      27.376  26.421  27.432  0.00  0.00    +0.000 S 
ATOM      2  C   UNL     1      27.678  25.246  26.354  0.00  0.00    +0.000 C 
ENDROOT
BRANCH   2   3
ATOM      3  N   UNL     1      26.984  25.216  25.120  0.00  0.00    +0.000 NA
BRANCH   3   4
ATOM      4  C   UNL     1      27.684  24.914  23.909  0.00  0.00    +0.000 A 
ATOM      5  C   UNL     1      28.603  25.776  23.384  0.00  0.00    +0.000 A 
ATOM      6  C   UNL     1      29.240  25.421  22.217  0.00  0.00    +0.000 A 
ATOM      7  C   UNL     1      28.959  24.232  21.592  0.00  0.00    +0.000 A 
ATOM      8  N   UNL     1      28.052  23.395  22.121  0.00  0.00    +0.000 NA
ATOM      9  C   UNL     1      27.435  23.732  23.250  0.00  0.00    +0.000 A 
ENDBRANCH   3   4
ENDBRANCH   2   3
BRANCH   2  10
ATOM     10  N   UNL     1      28.623  24.257  26.629  0.00  0.00    +0.000 NA
BRANCH  10  11
ATOM     11  C   UNL     1      29.833  24.592  27.319  0.00  0.00    +0.000 C 
ATOM     12  C   UNL     1      30.348  23.406  28.092  0.00  0.00    +0.000 C 
ATOM     13  C   UNL     1      30.739  22.302  27.108  0.00  0.00    +0.000 C 
ATOM     14  C   UNL     1      29.823  22.292  25.916  0.00  0.00    +0.000 C 
ATOM     15  C   UNL     1      30.573  22.386  24.603  0.00  0.00    +0.000 C 
ATOM     16  C   UNL     1      31.425  23.625  24.521  0.00  0.00    +0.000 C 
ATOM     17  C   UNL     1      31.841  24.124  25.888  0.00  0.00    +0.000 C 
ATOM     18  C   UNL     1      30.816  25.152  26.347  0.00  0.00    +0.000 C 
ENDBRANCH  10  11
ENDBRANCH   2  10
TORSDOF 4
ENDMDL
MODEL 5
REMARK VINA RESULT:      -5.4     19.626     22.035
REMARK  Name = 
REMARK  4 active torsions:
REMARK  status: ('A' for Active; 'I' for Inactive)
REMARK    1  A    between atoms: C_2  and  N_3
REMARK    2  A    between atoms: C_2  and  N_10
REMARK    3  A    between atoms: N_3  and  C_4
REMARK    4  A    between atoms: N_10  and  C_11
REMARK                            x       y       z     vdW  Elec       q    Type
REMARK                         _______ _______ _______ _____ _____    ______ ____
ROOT
ATOM      1  S   UNL     1      26.886  25.897  25.896  0.00  0.00    +0.000 S 
ATOM      2  C   UNL     1      27.765  24.929  24.936  0.00  0.00    +0.000 C 
ENDROOT
BRANCH   2   3
ATOM      3  N   UNL     1      27.359  24.691  23.599  0.00  0.00    +0.000 NA
BRANCH   3   4
ATOM      4  C   UNL     1      28.115  25.234  22.512  0.00  0.00    +0.000 A 
ATOM      5  C   UNL     1      28.128  26.573  22.252  0.00  0.00    +0.000 A 
ATOM      6  C   UNL     1      28.877  27.025  21.190  0.00  0.00    +0.000 A 
ATOM      7  C   UNL     1      29.594  26.154  20.409  0.00  0.00    +0.000 A 
ATOM      8  N   UNL     1      29.571  24.839  20.678  0.00  0.00    +0.000 NA
ATOM      9  C   UNL     1      28.849  24.397  21.704  0.00  0.00    +0.000 A 
ENDBRANCH   3   4
ENDBRANCH   2   3
BRANCH   2  10
ATOM     10  N   UNL     1      28.927  24.322  25.412  0.00  0.00    +0.000 NA
BRANCH  10  11
ATOM     11  C   UNL     1      29.037  22.893  25.425  0.00  0.00    +0.000 C 
ATOM     12  C   UNL     1      30.058  22.430  24.419  0.00  0.00    +0.000 C 
ATOM     13  C   UNL     1      31.438  22.943  24.837  0.00  0.00    +0.000 C 
ATOM     14  C   UNL     1      31.336  24.296  25.486  0.00  0.00    +0.000 C 
ATOM     15  C   UNL     1      31.980  24.335  26.857  0.00  0.00    +0.000 C 
ATOM     16  C   UNL     1      31.379  23.325  27.798  0.00  0.00    +0.000 C 
ATOM     17  C   UNL     1      30.784  22.143  27.064  0.00  0.00    +0.000 C 
ATOM     18  C   UNL     1      29.310  22.433  26.817  0.00  0.00    +0.000 C 
ENDBRANCH  10  11
ENDBRANCH   2  10
TORSDOF 4
ENDMDL
MODEL 6
REMARK VINA RESULT:      -5.4     17.106     19.320
REMARK  Name = 
REMARK  4 active torsions:
REMARK  status: ('A' for Active; 'I' for Inactive)
REMARK    1  A    between atoms: C_2  and  N_3
REMARK    2  A    between atoms: C_2  and  N_10
REMARK    3  A    between atoms: N_3  and  C_4
REMARK    4  A    between atoms: N_10  and  C_11
REMARK                            x       y       z     vdW  Elec       q    Type
REMARK                         _______ _______ _______ _____ _____    ______ ____
ROOT
ATOM      1  S   UNL     1      25.653  25.086  25.810  0.00  0.00    +0.000 S 
ATOM      2  C   UNL     1      27.173  24.922  26.356  0.00  0.00    +0.000 C 
ENDROOT
BRANCH   2   3
ATOM      3  N   UNL     1      27.455  25.081  27.735  0.00  0.00    +0.000 NA
BRANCH   3   4
ATOM      4  C   UNL     1      27.134  24.036  28.658  0.00  0.00    +0.000 A 
ATOM      5  C   UNL     1      27.721  22.807  28.576  0.00  0.00    +0.000 A 
ATOM      6  C   UNL     1      27.365  21.849  29.497  0.00  0.00    +0.000 A 
ATOM      7  C   UNL     1      26.442  22.119  30.476  0.00  0.00    +0.000 A 
ATOM      8  N   UNL     1      25.872  23.333  30.544  0.00  0.00    +0.000 NA
ATOM      9  C   UNL     1      26.214  24.263  29.657  0.00  0.00    +0.000 A 
ENDBRANCH   3   4
ENDBRANCH   2   3
BRANCH   2  10
ATOM     10  N   UNL     1      28.214  24.623  25.477  0.00  0.00    +0.000 NA
BRANCH  10  11
ATOM     11  C   UNL     1      28.283  23.332  24.859  0.00  0.00    +0.000 C 
ATOM     12  C   UNL     1      28.368  23.465  23.361  0.00  0.00    +0.000 C 
ATOM     13  C   UNL     1      29.683  24.156  22.996  0.00  0.00    +0.000 C 
ATOM     14  C   UNL     1      30.060  25.179  24.031  0.00  0.00    +0.000 C 
ATOM     15  C   UNL     1      31.454  24.963  24.584  0.00  0.00    +0.000 C 
ATOM     16  C   UNL     1      31.616  23.600  25.203  0.00  0.00    +0.000 C 
ATOM     17  C   UNL     1      30.665  22.584  24.606  0.00  0.00    +0.000 C 
ATOM     18  C   UNL     1      29.406  22.557  25.461  0.00  0.00    +0.000 C 
ENDBRANCH  10  11
ENDBRANCH   2  10
TORSDOF 4
ENDMDL
MODEL 7
REMARK VINA RESULT:      -5.3     16.806     19.002
REMARK  Name = 
REMARK  4 active torsions:
REMARK  status: ('A' for Active; 'I' for Inactive)
REMARK    1  A    between atoms: C_2  and  N_3
REMARK    2  A    between atoms: C_2  and  N_10
REMARK    3  A    between atoms: N_3  and  C_4
REMARK    4  A    between atoms: N_10  and  C_11
REMARK                            x       y       z     vdW  Elec       q    Type
REMARK                         _______ _______ _______ _____ _____    ______ ____
ROOT
ATOM      1  S   UNL     1      27.766  26.508  26.959  0.00  0.00    +0.000 S 
ATOM      2  C   UNL     1      26.737  25.424  26.327  0.00  0.00    +0.000 C 
ENDROOT
BRANCH   2   3
ATOM      3  N   UNL     1      25.736  24.835  27.139  0.00  0.00    +0.000 NA
BRANCH   3   4
ATOM      4  C   UNL     1      26.103  24.086  28.302  0.00  0.00    +0.000 A 
ATOM      5  C   UNL     1      26.913  22.991  28.218  0.00  0.00    +0.000 A 
ATOM      6  C   UNL     1      27.226  22.319  29.377  0.00  0.00    +0.000 A 
ATOM      7  C   UNL     1      26.736  22.735  30.589  0.00  0.00    +0.000 A 
ATOM      8  N   UNL     1      25.940  23.814  30.656  0.00  0.00    +0.000 NA
ATOM      9  C   UNL     1      25.636  24.468  29.538  0.00  0.00    +0.000 A 
ENDBRANCH   3   4
ENDBRANCH   2   3
BRANCH   2  10
ATOM     10  N   UNL     1      26.825  25.061  24.983  0.00  0.00    +0.000 NA
BRANCH  10  11
ATOM     11  C   UNL     1      26.849  23.676  24.614  0.00  0.00    +0.000 C 
ATOM     12  C   UNL     1      26.262  23.484  23.240  0.00  0.00    +0.000 C 
ATOM     13  C   UNL     1      27.151  24.189  22.215  0.00  0.00    +0.000 C 
ATOM     14  C   UNL     1      27.747  25.444  22.790  0.00  0.00    +0.000 C 
ATOM     15  C   UNL     1      29.258  25.476  22.678  0.00  0.00    +0.000 C 
ATOM     16  C   UNL     1      29.906  24.301  23.362  0.00  0.00    +0.000 C 
ATOM     17  C   UNL     1      28.985  23.101  23.429  0.00  0.00    +0.000 C 
ATOM     18  C   UNL     1      28.238  23.153  24.754  0.00  0.00    +0.000 C 
ENDBRANCH  10  11
ENDBRANCH   2  10
TORSDOF 4
ENDMDL
MODEL 8
REMARK VINA RESULT:      -5.2     17.662     19.075
REMARK  Name = 
REMARK  4 active torsions:
REMARK  status: ('A' for Active; 'I' for Inactive)
REMARK    1  A    between atoms: C_2  and  N_3
REMARK    2  A    between atoms: C_2  and  N_10
REMARK    3  A    between atoms: N_3  and  C_4
REMARK    4  A    between atoms: N_10  and  C_11
REMARK                            x       y       z     vdW  Elec       q    Type
REMARK                         _______ _______ _______ _____ _____    ______ ____
ROOT
ATOM      1  S   UNL     1      25.663  24.756  29.221  0.00  0.00    +0.000 S 
ATOM      2  C   UNL     1      26.519  23.951  28.102  0.00  0.00    +0.000 C 
ENDROOT
BRANCH   2   3
ATOM      3  N   UNL     1      27.197  22.756  28.448  0.00  0.00    +0.000 NA
BRANCH   3   4
ATOM      4  C   UNL     1      28.604  22.636  28.218  0.00  0.00    +0.000 A 
ATOM      5  C   UNL     1      29.095  22.176  27.030  0.00  0.00    +0.000 A 
ATOM      6  C   UNL     1      30.460  22.088  26.878  0.00  0.00    +0.000 A 
ATOM      7  C   UNL     1      31.310  22.450  27.893  0.00  0.00    +0.000 A 
ATOM      8  N   UNL     1      30.811  22.901  29.055  0.00  0.00    +0.000 NA
ATOM      9  C   UNL     1      29.493  22.990  29.207  0.00  0.00    +0.000 A 
ENDBRANCH   3   4
ENDBRANCH   2   3
BRANCH   2  10
ATOM     10  N   UNL     1      26.597  24.423  26.791  0.00  0.00    +0.000 NA
BRANCH  10  11
ATOM     11  C   UNL     1      25.555  24.118  25.856  0.00  0.00    +0.000 C 
ATOM     12  C   UNL     1      25.187  25.339  25.055  0.00  0.00    +0.000 C 
ATOM     13  C   UNL     1      26.386  25.753  24.199  0.00  0.00    +0.000 C 
ATOM     14  C   UNL     1      27.679  25.481  24.916  0.00  0.00    +0.000 C 
ATOM     15  C   UNL     1      28.629  24.626  24.101  0.00  0.00    +0.000 C 
ATOM     16  C   UNL     1      28.022  23.301  23.725  0.00  0.00    +0.000 C 
ATOM     17  C   UNL     1      26.511  23.361  23.663  0.00  0.00    +0.000 C 
ATOM     18  C   UNL     1      25.965  22.951  25.023  0.00  0.00    +0.000 C 
ENDBRANCH  10  11
ENDBRANCH   2  10
TORSDOF 4
ENDMDL
MODEL 9
REMARK VINA RESULT:      -5.2     16.840     19.247
REMARK  Name = 
REMARK  4 active torsions:
REMARK  status: ('A' for Active; 'I' for Inactive)
REMARK    1  A    between atoms: C_2  and  N_3
REMARK    2  A    between atoms: C_2  and  N_10
REMARK    3  A    between atoms: N_3  and  C_4
REMARK    4  A    between atoms: N_10  and  C_11
REMARK                            x       y       z     vdW  Elec       q    Type
REMARK                         _______ _______ _______ _____ _____    ______ ____
ROOT
ATOM      1  S   UNL     1      24.916  25.639  25.803  0.00  0.00    +0.000 S 
ATOM      2  C   UNL     1      25.558  24.242  26.323  0.00  0.00    +0.000 C 
ENDROOT
BRANCH   2   3
ATOM      3  N   UNL     1      25.747  23.166  25.421  0.00  0.00    +0.000 NA
BRANCH   3   4
ATOM      4  C   UNL     1      26.677  23.289  24.341  0.00  0.00    +0.000 A 
ATOM      5  C   UNL     1      28.025  23.262  24.555  0.00  0.00    +0.000 A 
ATOM      6  C   UNL     1      28.861  23.385  23.469  0.00  0.00    +0.000 A 
ATOM      7  C   UNL     1      28.357  23.534  22.201  0.00  0.00    +0.000 A 
ATOM      8  N   UNL     1      27.029  23.559  22.008  0.00  0.00    +0.000 NA
ATOM      9  C   UNL     1      26.216  23.439  23.053  0.00  0.00    +0.000 A 
ENDBRANCH   3   4
ENDBRANCH   2   3
BRANCH   2  10
ATOM     10  N   UNL     1      25.932  24.086  27.658  0.00  0.00    +0.000 NA
BRANCH  10  11
ATOM     11  C   UNL     1      26.575  25.161  28.354  0.00  0.00    +0.000 C 
ATOM     12  C   UNL     1      25.961  25.354  29.716  0.00  0.00    +0.000 C 
ATOM     13  C   UNL     1      26.230  24.109  30.564  0.00  0.00    +0.000 C 
ATOM     14  C   UNL     1      26.215  22.866  29.717  0.00  0.00    +0.000 C 
ATOM     15  C   UNL     1      27.481  22.047  29.861  0.00  0.00    +0.000 C 
ATOM     16  C   UNL     1      28.713  22.835  29.501  0.00  0.00    +0.000 C 
ATOM     17  C   UNL     1      28.519  24.323  29.702  0.00  0.00    +0.000 C 
ATOM     18  C   UNL     1      28.046  24.919  28.384  0.00  0.00    +0.000 C 
ENDBRANCH  10  11
ENDBRANCH   2  10
TORSDOF 4
ENDMDL
MODEL 10
REMARK VINA RESULT:      -5.2     28.271     30.914
REMARK  Name = 
REMARK  4 active torsions:
REMARK  status: ('A' for Active; 'I' for Inactive)
REMARK    1  A    between atoms: C_2  and  N_3
REMARK    2  A    between atoms: C_2  and  N_10
REMARK    3  A    between atoms: N_3  and  C_4
REMARK    4  A    between atoms: N_10  and  C_11
REMARK                            x       y       z     vdW  Elec       q    Type
REMARK                         _______ _______ _______ _____ _____    ______ ____
ROOT
ATOM      1  S   UNL     1      30.568  20.183   7.239  0.00  0.00    +0.000 S 
ATOM      2  C   UNL     1      30.917  20.446   8.802  0.00  0.00    +0.000 C 
ENDROOT
BRANCH   2   3
ATOM      3  N   UNL     1      29.885  20.437   9.773  0.00  0.00    +0.000 NA
BRANCH   3   4
ATOM      4  C   UNL     1      29.958  21.308  10.906  0.00  0.00    +0.000 A 
ATOM      5  C   UNL     1      29.479  22.585  10.854  0.00  0.00    +0.000 A 
ATOM      6  C   UNL     1      29.581  23.367  11.981  0.00  0.00    +0.000 A 
ATOM      7  C   UNL     1      30.151  22.880  13.131  0.00  0.00    +0.000 A 
ATOM      8  N   UNL     1      30.618  21.622  13.166  0.00  0.00    +0.000 NA
ATOM      9  C   UNL     1      30.520  20.861  12.079  0.00  0.00    +0.000 A 
ENDBRANCH   3   4
ENDBRANCH   2   3
BRANCH   2  10
ATOM     10  N   UNL     1      32.231  20.682   9.206  0.00  0.00    +0.000 NA
BRANCH  10  11
ATOM     11  C   UNL     1      32.872  21.921   8.877  0.00  0.00    +0.000 C 
ATOM     12  C   UNL     1      33.208  22.693  10.126  0.00  0.00    +0.000 C 
ATOM     13  C   UNL     1      34.243  21.907  10.933  0.00  0.00    +0.000 C 
ATOM     14  C   UNL     1      34.018  20.426  10.802  0.00  0.00    +0.000 C 
ATOM     15  C   UNL     1      35.256  19.688  10.333  0.00  0.00    +0.000 C 
ATOM     16  C   UNL     1      35.755  20.198   9.007  0.00  0.00    +0.000 C 
ATOM     17  C   UNL     1      35.363  21.640   8.766  0.00  0.00    +0.000 C 
ATOM     18  C   UNL     1      34.047  21.650   8.000  0.00  0.00    +0.000 C 
ENDBRANCH  10  11
ENDBRANCH   2  10
TORSDOF 4
ENDMDL
