MODEL 1
REMARK VINA RESULT:      -7.3      0.000      0.000
REMARK  Name = 
REMARK  9 active torsions:
REMARK  status: ('A' for Active; 'I' for Inactive)
REMARK    1  A    between atoms: C_2  and  O_5
REMARK    2  A    between atoms: O_5  and  C_6
REMARK    3  A    between atoms: C_9  and  O_10
REMARK    4  A    between atoms: O_10  and  C_11
REMARK    5  A    between atoms: C_11  and  C_12
REMARK    6  A    between atoms: C_16  and  C_17
REMARK    7  A    between atoms: C_17  and  O_18
REMARK    8  A    between atoms: O_18  and  C_19
REMARK    9  A    between atoms: C_22  and  C_23
REMARK                            x       y       z     vdW  Elec       q    Type
REMARK                         _______ _______ _______ _____ _____    ______ ____
ROOT
ATOM      1  C   UNL     1      35.508   2.106  16.479  0.00  0.00    +0.000 A 
ATOM      2  C   UNL     1      34.754   2.584  15.429  0.00  0.00    +0.000 A 
ATOM      3  C   UNL     1      35.213   3.640  14.678  0.00  0.00    +0.000 A 
ATOM      4  C   UNL     1      36.415   4.192  14.994  0.00  0.00    +0.000 A 
ATOM      5  C   UNL     1      37.217   3.765  16.027  0.00  0.00    +0.000 A 
ATOM      6  C   UNL     1      36.735   2.697  16.774  0.00  0.00    +0.000 A 
ENDROOT
BRANCH   1   7
ATOM      7  C   UNL     1      35.015   0.975  17.284  0.00  0.00    +0.000 C 
BRANCH   7   8
ATOM      8  O   UNL     1      35.136  -0.268  16.652  0.00  0.00    +0.000 OA
BRANCH   8  12
ATOM      9  C   UNL     1      38.594  -1.913  14.959  0.00  0.00    +0.000 A 
ATOM     10  C   UNL     1      38.495  -1.705  16.327  0.00  0.00    +0.000 A 
ATOM     11  C   UNL     1      37.362  -1.165  16.896  0.00  0.00    +0.000 A 
ATOM     12  C   UNL     1      36.283  -0.808  16.135  0.00  0.00    +0.000 A 
ATOM     13  C   UNL     1      36.378  -1.014  14.767  0.00  0.00    +0.000 A 
ATOM     14  C   UNL     1      37.508  -1.555  14.189  0.00  0.00    +0.000 A 
BRANCH   9  15
ATOM     15  O   UNL     1      39.724  -2.455  14.367  0.00  0.00    +0.000 OA
BRANCH  15  17
ATOM     16  C   UNL     1      40.428  -0.138  14.312  0.00  0.00    +0.000 C 
ATOM     17  C   UNL     1      40.700  -1.542  13.866  0.00  0.00    +0.000 C 
ATOM     18  C   UNL     1      42.058  -2.044  14.341  0.00  0.00    +0.000 C 
ATOM     19  C   UNL     1      40.596  -1.596  12.352  0.00  0.00    +0.000 C 
ENDBRANCH  15  17
ENDBRANCH   9  15
ENDBRANCH   8  12
ENDBRANCH   7   8
ENDBRANCH   1   7
BRANCH   5  20
ATOM     20  C   UNL     1      38.525   4.384  16.352  0.00  0.00    +0.000 C 
BRANCH  20  21
ATOM     21  O   UNL     1      38.706   4.427  17.750  0.00  0.00    +0.000 OA
BRANCH  21  22
ATOM     22  C   UNL     1      38.930   5.630  18.428  0.00  0.00    +0.000 A 
ATOM     23  C   UNL     1      39.956   5.771  19.340  0.00  0.00    +0.000 A 
ATOM     24  C   UNL     1      40.178   6.956  20.009  0.00  0.00    +0.000 A 
ATOM     25  C   UNL     1      39.366   8.064  19.787  0.00  0.00    +0.000 A 
ATOM     26  C   UNL     1      38.339   7.931  18.877  0.00  0.00    +0.000 A 
ATOM     27  C   UNL     1      38.135   6.736  18.219  0.00  0.00    +0.000 A 
BRANCH  25  28
ATOM     28  C   UNL     1      39.607   9.342  20.509  0.00  0.00    +0.000 C 
ATOM     29  N   UNL     1      38.358   9.867  21.017  0.00  0.00    +0.000 NA
ENDBRANCH  25  28
ENDBRANCH  21  22
ENDBRANCH  20  21
ENDBRANCH   5  20
TORSDOF 9
ENDMDL
MODEL 2
REMARK VINA RESULT:      -7.1      3.588      9.188
REMARK  Name = 
REMARK  9 active torsions:
REMARK  status: ('A' for Active; 'I' for Inactive)
REMARK    1  A    between atoms: C_2  and  O_5
REMARK    2  A    between atoms: O_5  and  C_6
REMARK    3  A    between atoms: C_9  and  O_10
REMARK    4  A    between atoms: O_10  and  C_11
REMARK    5  A    between atoms: C_11  and  C_12
REMARK    6  A    between atoms: C_16  and  C_17
REMARK    7  A    between atoms: C_17  and  O_18
REMARK    8  A    between atoms: O_18  and  C_19
REMARK    9  A    between atoms: C_22  and  C_23
REMARK                            x       y       z     vdW  Elec       q    Type
REMARK                         _______ _______ _______ _____ _____    ______ ____
ROOT
ATOM      1  C   UNL     1      37.311   3.944  15.983  0.00  0.00    +0.000 A 
ATOM      2  C   UNL     1      36.639   4.575  14.957  0.00  0.00    +0.000 A 
ATOM      3  C   UNL     1      35.395   4.134  14.576  0.00  0.00    +0.000 A 
ATOM      4  C   UNL     1      34.850   3.072  15.229  0.00  0.00    +0.000 A 
ATOM      5  C   UNL     1      35.464   2.397  16.259  0.00  0.00    +0.000 A 
ATOM      6  C   UNL     1      36.721   2.859  16.629  0.00  0.00    +0.000 A 
ENDROOT
BRANCH   1   7
ATOM      7  C   UNL     1      38.644   4.417  16.390  0.00  0.00    +0.000 C 
BRANCH   7   8
ATOM      8  O   UNL     1      38.818   4.503  17.777  0.00  0.00    +0.000 OA
BRANCH   8  12
ATOM      9  C   UNL     1      39.313   8.055  19.936  0.00  0.00    +0.000 A 
ATOM     10  C   UNL     1      40.182   6.987  20.106  0.00  0.00    +0.000 A 
ATOM     11  C   UNL     1      40.030   5.813  19.400  0.00  0.00    +0.000 A 
ATOM     12  C   UNL     1      39.013   5.648  18.501  0.00  0.00    +0.000 A 
ATOM     13  C   UNL     1      38.142   6.713  18.328  0.00  0.00    +0.000 A 
ATOM     14  C   UNL     1      38.288   7.893  19.030  0.00  0.00    +0.000 A 
BRANCH   9  15
ATOM     15  O   UNL     1      39.449   9.245  20.636  0.00  0.00    +0.000 OA
BRANCH  15  17
ATOM     16  C   UNL     1      41.824   9.717  20.725  0.00  0.00    +0.000 C 
ATOM     17  C   UNL     1      40.480  10.136  20.212  0.00  0.00    +0.000 C 
ATOM     18  C   UNL     1      40.431  10.174  18.690  0.00  0.00    +0.000 C 
ATOM     19  C   UNL     1      40.139  11.493  20.805  0.00  0.00    +0.000 C 
ENDBRANCH  15  17
ENDBRANCH   9  15
ENDBRANCH   8  12
ENDBRANCH   7   8
ENDBRANCH   1   7
BRANCH   5  20
ATOM     20  C   UNL     1      34.849   1.241  16.956  0.00  0.00    +0.000 C 
BRANCH  20  21
ATOM     21  O   UNL     1      35.360   0.034  16.434  0.00  0.00    +0.000 OA
BRANCH  21  22
ATOM     22  C   UNL     1      36.180  -0.809  17.192  0.00  0.00    +0.000 A 
ATOM     23  C   UNL     1      36.344  -0.635  18.551  0.00  0.00    +0.000 A 
ATOM     24  C   UNL     1      37.152  -1.465  19.298  0.00  0.00    +0.000 A 
ATOM     25  C   UNL     1      37.838  -2.520  18.703  0.00  0.00    +0.000 A 
ATOM     26  C   UNL     1      37.679  -2.699  17.345  0.00  0.00    +0.000 A 
ATOM     27  C   UNL     1      36.866  -1.857  16.617  0.00  0.00    +0.000 A 
BRANCH  25  28
ATOM     28  C   UNL     1      38.710  -3.414  19.511  0.00  0.00    +0.000 C 
ATOM     29  N   UNL     1      38.993  -4.628  18.776  0.00  0.00    +0.000 NA
ENDBRANCH  25  28
ENDBRANCH  21  22
ENDBRANCH  20  21
ENDBRANCH   5  20
TORSDOF 9
ENDMDL
MODEL 3
REMARK VINA RESULT:      -7.0      4.908      6.208
REMARK  Name = 
REMARK  9 active torsions:
REMARK  status: ('A' for Active; 'I' for Inactive)
REMARK    1  A    between atoms: C_2  and  O_5
REMARK    2  A    between atoms: O_5  and  C_6
REMARK    3  A    between atoms: C_9  and  O_10
REMARK    4  A    between atoms: O_10  and  C_11
REMARK    5  A    between atoms: C_11  and  C_12
REMARK    6  A    between atoms: C_16  and  C_17
REMARK    7  A    between atoms: C_17  and  O_18
REMARK    8  A    between atoms: O_18  and  C_19
REMARK    9  A    between atoms: C_22  and  C_23
REMARK                            x       y       z     vdW  Elec       q    Type
REMARK                         _______ _______ _______ _____ _____    ______ ____
ROOT
ATOM      1  C   UNL     1      35.628  -1.728  17.157  0.00  0.00    +0.000 A 
ATOM      2  C   UNL     1      35.970  -1.453  18.465  0.00  0.00    +0.000 A 
ATOM      3  C   UNL     1      36.076  -0.150  18.888  0.00  0.00    +0.000 A 
ATOM      4  C   UNL     1      35.838   0.848  17.996  0.00  0.00    +0.000 A 
ATOM      5  C   UNL     1      35.494   0.646  16.679  0.00  0.00    +0.000 A 
ATOM      6  C   UNL     1      35.391  -0.679  16.271  0.00  0.00    +0.000 A 
ENDROOT
BRANCH   1   7
ATOM      7  C   UNL     1      35.514  -3.124  16.704  0.00  0.00    +0.000 C 
BRANCH   7   8
ATOM      8  O   UNL     1      36.742  -3.728  16.408  0.00  0.00    +0.000 OA
BRANCH   8  12
ATOM      9  C   UNL     1      39.843  -2.137  14.088  0.00  0.00    +0.000 A 
ATOM     10  C   UNL     1      38.609  -2.435  13.527  0.00  0.00    +0.000 A 
ATOM     11  C   UNL     1      37.581  -2.958  14.281  0.00  0.00    +0.000 A 
ATOM     12  C   UNL     1      37.731  -3.209  15.617  0.00  0.00    +0.000 A 
ATOM     13  C   UNL     1      38.963  -2.913  16.181  0.00  0.00    +0.000 A 
ATOM     14  C   UNL     1      39.998  -2.388  15.434  0.00  0.00    +0.000 A 
BRANCH   9  15
ATOM     15  O   UNL     1      40.890  -1.610  13.348  0.00  0.00    +0.000 OA
BRANCH  15  17
ATOM     16  C   UNL     1      40.120   0.458  14.346  0.00  0.00    +0.000 C 
ATOM     17  C   UNL     1      41.082  -0.197  13.403  0.00  0.00    +0.000 C 
ATOM     18  C   UNL     1      42.533   0.035  13.806  0.00  0.00    +0.000 C 
ATOM     19  C   UNL     1      40.813   0.323  12.001  0.00  0.00    +0.000 C 
ENDBRANCH  15  17
ENDBRANCH   9  15
ENDBRANCH   8  12
ENDBRANCH   7   8
ENDBRANCH   1   7
BRANCH   5  20
ATOM     20  C   UNL     1      35.239   1.752  15.724  0.00  0.00    +0.000 C 
BRANCH  20  21
ATOM     21  O   UNL     1      36.456   2.207  15.175  0.00  0.00    +0.000 OA
BRANCH  21  22
ATOM     22  C   UNL     1      36.777   2.012  13.827  0.00  0.00    +0.000 A 
ATOM     23  C   UNL     1      36.632   0.784  13.215  0.00  0.00    +0.000 A 
ATOM     24  C   UNL     1      36.949   0.591  11.887  0.00  0.00    +0.000 A 
ATOM     25  C   UNL     1      37.429   1.639  11.108  0.00  0.00    +0.000 A 
ATOM     26  C   UNL     1      37.577   2.869  11.713  0.00  0.00    +0.000 A 
ATOM     27  C   UNL     1      37.255   3.040  13.043  0.00  0.00    +0.000 A 
BRANCH  25  28
ATOM     28  C   UNL     1      37.770   1.430   9.676  0.00  0.00    +0.000 C 
ATOM     29  N   UNL     1      36.741   1.997   8.832  0.00  0.00    +0.000 NA
ENDBRANCH  25  28
ENDBRANCH  21  22
ENDBRANCH  20  21
ENDBRANCH   5  20
TORSDOF 9
ENDMDL
MODEL 4
REMARK VINA RESULT:      -6.9      4.488      5.780
REMARK  Name = 
REMARK  9 active torsions:
REMARK  status: ('A' for Active; 'I' for Inactive)
REMARK    1  A    between atoms: C_2  and  O_5
REMARK    2  A    between atoms: O_5  and  C_6
REMARK    3  A    between atoms: C_9  and  O_10
REMARK    4  A    between atoms: O_10  and  C_11
REMARK    5  A    between atoms: C_11  and  C_12
REMARK    6  A    between atoms: C_16  and  C_17
REMARK    7  A    between atoms: C_17  and  O_18
REMARK    8  A    between atoms: O_18  and  C_19
REMARK    9  A    between atoms: C_22  and  C_23
REMARK                            x       y       z     vdW  Elec       q    Type
REMARK                         _______ _______ _______ _____ _____    ______ ____
ROOT
ATOM      1  C   UNL     1      35.736  -1.962  17.315  0.00  0.00    +0.000 A 
ATOM      2  C   UNL     1      36.369  -1.894  18.538  0.00  0.00    +0.000 A 
ATOM      3  C   UNL     1      36.541  -0.678  19.156  0.00  0.00    +0.000 A 
ATOM      4  C   UNL     1      36.076   0.440  18.538  0.00  0.00    +0.000 A 
ATOM      5  C   UNL     1      35.437   0.444  17.319  0.00  0.00    +0.000 A 
ATOM      6  C   UNL     1      35.273  -0.794  16.711  0.00  0.00    +0.000 A 
ENDROOT
BRANCH   1   7
ATOM      7  C   UNL     1      35.553  -3.264  16.653  0.00  0.00    +0.000 C 
BRANCH   7   8
ATOM      8  O   UNL     1      36.745  -3.854  16.216  0.00  0.00    +0.000 OA
BRANCH   8  12
ATOM      9  C   UNL     1      39.637  -2.011  13.815  0.00  0.00    +0.000 A 
ATOM     10  C   UNL     1      39.933  -2.419  15.108  0.00  0.00    +0.000 A 
ATOM     11  C   UNL     1      38.990  -3.027  15.907  0.00  0.00    +0.000 A 
ATOM     12  C   UNL     1      37.717  -3.254  15.462  0.00  0.00    +0.000 A 
ATOM     13  C   UNL     1      37.417  -2.849  14.170  0.00  0.00    +0.000 A 
ATOM     14  C   UNL     1      38.356  -2.239  13.362  0.00  0.00    +0.000 A 
BRANCH   9  15
ATOM     15  O   UNL     1      40.572  -1.398  12.994  0.00  0.00    +0.000 OA
BRANCH  15  17
ATOM     16  C   UNL     1      41.843  -3.419  12.586  0.00  0.00    +0.000 C 
ATOM     17  C   UNL     1      41.192  -2.206  11.995  0.00  0.00    +0.000 C 
ATOM     18  C   UNL     1      40.109  -2.568  10.986  0.00  0.00    +0.000 C 
ATOM     19  C   UNL     1      42.268  -1.344  11.358  0.00  0.00    +0.000 C 
ENDBRANCH  15  17
ENDBRANCH   9  15
ENDBRANCH   8  12
ENDBRANCH   7   8
ENDBRANCH   1   7
BRANCH   5  20
ATOM     20  C   UNL     1      34.939   1.678  16.665  0.00  0.00    +0.000 C 
BRANCH  20  21
ATOM     21  O   UNL     1      36.022   2.437  16.173  0.00  0.00    +0.000 OA
BRANCH  21  22
ATOM     22  C   UNL     1      36.713   2.070  15.014  0.00  0.00    +0.000 A 
ATOM     23  C   UNL     1      38.087   2.162  14.926  0.00  0.00    +0.000 A 
ATOM     24  C   UNL     1      38.769   1.802  13.783  0.00  0.00    +0.000 A 
ATOM     25  C   UNL     1      38.089   1.326  12.666  0.00  0.00    +0.000 A 
ATOM     26  C   UNL     1      36.716   1.232  12.746  0.00  0.00    +0.000 A 
ATOM     27  C   UNL     1      36.054   1.598  13.899  0.00  0.00    +0.000 A 
BRANCH  25  28
ATOM     28  C   UNL     1      38.826   0.937  11.434  0.00  0.00    +0.000 C 
ATOM     29  N   UNL     1      40.072   1.667  11.349  0.00  0.00    +0.000 NA
ENDBRANCH  25  28
ENDBRANCH  21  22
ENDBRANCH  20  21
ENDBRANCH   5  20
TORSDOF 9
ENDMDL
MODEL 5
REMARK VINA RESULT:      -6.8      4.598      7.796
REMARK  Name = 
REMARK  9 active torsions:
REMARK  status: ('A' for Active; 'I' for Inactive)
REMARK    1  A    between atoms: C_2  and  O_5
REMARK    2  A    between atoms: O_5  and  C_6
REMARK    3  A    between atoms: C_9  and  O_10
REMARK    4  A    between atoms: O_10  and  C_11
REMARK    5  A    between atoms: C_11  and  C_12
REMARK    6  A    between atoms: C_16  and  C_17
REMARK    7  A    between atoms: C_17  and  O_18
REMARK    8  A    between atoms: O_18  and  C_19
REMARK    9  A    between atoms: C_22  and  C_23
REMARK                            x       y       z     vdW  Elec       q    Type
REMARK                         _______ _______ _______ _____ _____    ______ ____
ROOT
ATOM      1  C   UNL     1      35.770  -1.297  17.810  0.00  0.00    +0.000 A 
ATOM      2  C   UNL     1      36.148  -0.870  19.066  0.00  0.00    +0.000 A 
ATOM      3  C   UNL     1      37.285  -1.374  19.650  0.00  0.00    +0.000 A 
ATOM      4  C   UNL     1      38.019  -2.292  18.965  0.00  0.00    +0.000 A 
ATOM      5  C   UNL     1      37.700  -2.760  17.711  0.00  0.00    +0.000 A 
ATOM      6  C   UNL     1      36.546  -2.238  17.138  0.00  0.00    +0.000 A 
ENDROOT
BRANCH   1   7
ATOM      7  C   UNL     1      34.551  -0.757  17.186  0.00  0.00    +0.000 C 
BRANCH   7   8
ATOM      8  O   UNL     1      34.609   0.616  16.917  0.00  0.00    +0.000 OA
BRANCH   8  12
ATOM      9  C   UNL     1      37.460   2.497  14.496  0.00  0.00    +0.000 A 
ATOM     10  C   UNL     1      37.290   2.868  15.822  0.00  0.00    +0.000 A 
ATOM     11  C   UNL     1      36.355   2.255  16.629  0.00  0.00    +0.000 A 
ATOM     12  C   UNL     1      35.552   1.255  16.157  0.00  0.00    +0.000 A 
ATOM     13  C   UNL     1      35.719   0.881  14.833  0.00  0.00    +0.000 A 
ATOM     14  C   UNL     1      36.653   1.488  14.017  0.00  0.00    +0.000 A 
BRANCH   9  15
ATOM     15  O   UNL     1      38.394   3.100  13.668  0.00  0.00    +0.000 OA
BRANCH  15  17
ATOM     16  C   UNL     1      39.297   1.545  12.044  0.00  0.00    +0.000 C 
ATOM     17  C   UNL     1      39.535   2.326  13.300  0.00  0.00    +0.000 C 
ATOM     18  C   UNL     1      40.700   3.298  13.161  0.00  0.00    +0.000 C 
ATOM     19  C   UNL     1      39.772   1.348  14.439  0.00  0.00    +0.000 C 
ENDBRANCH  15  17
ENDBRANCH   9  15
ENDBRANCH   8  12
ENDBRANCH   7   8
ENDBRANCH   1   7
BRANCH   5  20
ATOM     20  C   UNL     1      38.517  -3.762  16.984  0.00  0.00    +0.000 C 
BRANCH  20  21
ATOM     21  O   UNL     1      39.695  -3.162  16.493  0.00  0.00    +0.000 OA
BRANCH  21  22
ATOM     22  C   UNL     1      39.840  -2.811  15.147  0.00  0.00    +0.000 A 
ATOM     23  C   UNL     1      38.755  -2.710  14.301  0.00  0.00    +0.000 A 
ATOM     24  C   UNL     1      38.896  -2.365  12.974  0.00  0.00    +0.000 A 
ATOM     25  C   UNL     1      40.151  -2.103  12.434  0.00  0.00    +0.000 A 
ATOM     26  C   UNL     1      41.241  -2.204  13.273  0.00  0.00    +0.000 A 
ATOM     27  C   UNL     1      41.076  -2.551  14.597  0.00  0.00    +0.000 A 
BRANCH  25  28
ATOM     28  C   UNL     1      40.302  -1.731  11.001  0.00  0.00    +0.000 C 
ATOM     29  N   UNL     1      40.269  -2.917  10.174  0.00  0.00    +0.000 NA
ENDBRANCH  25  28
ENDBRANCH  21  22
ENDBRANCH  20  21
ENDBRANCH   5  20
TORSDOF 9
ENDMDL
MODEL 6
REMARK VINA RESULT:      -6.8      3.754      8.865
REMARK  Name = 
REMARK  9 active torsions:
REMARK  status: ('A' for Active; 'I' for Inactive)
REMARK    1  A    between atoms: C_2  and  O_5
REMARK    2  A    between atoms: O_5  and  C_6
REMARK    3  A    between atoms: C_9  and  O_10
REMARK    4  A    between atoms: O_10  and  C_11
REMARK    5  A    between atoms: C_11  and  C_12
REMARK    6  A    between atoms: C_16  and  C_17
REMARK    7  A    between atoms: C_17  and  O_18
REMARK    8  A    between atoms: O_18  and  C_19
REMARK    9  A    between atoms: C_22  and  C_23
REMARK                            x       y       z     vdW  Elec       q    Type
REMARK                         _______ _______ _______ _____ _____    ______ ____
ROOT
ATOM      1  C   UNL     1      37.519   4.132  16.614  0.00  0.00    +0.000 A 
ATOM      2  C   UNL     1      37.575   4.704  15.361  0.00  0.00    +0.000 A 
ATOM      3  C   UNL     1      36.879   4.142  14.317  0.00  0.00    +0.000 A 
ATOM      4  C   UNL     1      36.144   3.023  14.550  0.00  0.00    +0.000 A 
ATOM      5  C   UNL     1      36.044   2.401  15.774  0.00  0.00    +0.000 A 
ATOM      6  C   UNL     1      36.754   2.985  16.816  0.00  0.00    +0.000 A 
ENDROOT
BRANCH   1   7
ATOM      7  C   UNL     1      38.265   4.734  17.731  0.00  0.00    +0.000 C 
BRANCH   7   8
ATOM      8  O   UNL     1      39.423   5.416  17.341  0.00  0.00    +0.000 OA
BRANCH   8  12
ATOM      9  C   UNL     1      42.258   7.290  19.786  0.00  0.00    +0.000 A 
ATOM     10  C   UNL     1      40.991   6.987  20.262  0.00  0.00    +0.000 A 
ATOM     11  C   UNL     1      40.049   6.369  19.467  0.00  0.00    +0.000 A 
ATOM     12  C   UNL     1      40.323   6.029  18.171  0.00  0.00    +0.000 A 
ATOM     13  C   UNL     1      41.589   6.330  17.692  0.00  0.00    +0.000 A 
ATOM     14  C   UNL     1      42.538   6.948  18.481  0.00  0.00    +0.000 A 
BRANCH   9  15
ATOM     15  O   UNL     1      43.220   7.910  20.570  0.00  0.00    +0.000 OA
BRANCH  15  17
ATOM     16  C   UNL     1      43.495   5.704  21.532  0.00  0.00    +0.000 C 
ATOM     17  C   UNL     1      44.083   7.068  21.332  0.00  0.00    +0.000 C 
ATOM     18  C   UNL     1      45.414   7.018  20.593  0.00  0.00    +0.000 C 
ATOM     19  C   UNL     1      44.235   7.732  22.690  0.00  0.00    +0.000 C 
ENDBRANCH  15  17
ENDBRANCH   9  15
ENDBRANCH   8  12
ENDBRANCH   7   8
ENDBRANCH   1   7
BRANCH   5  20
ATOM     20  C   UNL     1      35.234   1.180  16.004  0.00  0.00    +0.000 C 
BRANCH  20  21
ATOM     21  O   UNL     1      35.303   0.802  17.361  0.00  0.00    +0.000 OA
BRANCH  21  22
ATOM     22  C   UNL     1      36.140  -0.230  17.798  0.00  0.00    +0.000 A 
ATOM     23  C   UNL     1      36.220  -0.589  19.127  0.00  0.00    +0.000 A 
ATOM     24  C   UNL     1      37.046  -1.605  19.559  0.00  0.00    +0.000 A 
ATOM     25  C   UNL     1      37.836  -2.314  18.659  0.00  0.00    +0.000 A 
ATOM     26  C   UNL     1      37.762  -1.961  17.329  0.00  0.00    +0.000 A 
ATOM     27  C   UNL     1      36.930  -0.941  16.919  0.00  0.00    +0.000 A 
BRANCH  25  28
ATOM     28  C   UNL     1      38.726  -3.410  19.126  0.00  0.00    +0.000 C 
ATOM     29  N   UNL     1      38.947  -4.359  18.057  0.00  0.00    +0.000 NA
ENDBRANCH  25  28
ENDBRANCH  21  22
ENDBRANCH  20  21
ENDBRANCH   5  20
TORSDOF 9
ENDMDL
MODEL 7
REMARK VINA RESULT:      -6.8      1.989      3.057
REMARK  Name = 
REMARK  9 active torsions:
REMARK  status: ('A' for Active; 'I' for Inactive)
REMARK    1  A    between atoms: C_2  and  O_5
REMARK    2  A    between atoms: O_5  and  C_6
REMARK    3  A    between atoms: C_9  and  O_10
REMARK    4  A    between atoms: O_10  and  C_11
REMARK    5  A    between atoms: C_11  and  C_12
REMARK    6  A    between atoms: C_16  and  C_17
REMARK    7  A    between atoms: C_17  and  O_18
REMARK    8  A    between atoms: O_18  and  C_19
REMARK    9  A    between atoms: C_22  and  C_23
REMARK                            x       y       z     vdW  Elec       q    Type
REMARK                         _______ _______ _______ _____ _____    ______ ____
ROOT
ATOM      1  C   UNL     1      35.324   4.457  14.490  0.00  0.00    +0.000 A 
ATOM      2  C   UNL     1      34.651   5.547  13.979  0.00  0.00    +0.000 A 
ATOM      3  C   UNL     1      35.353   6.608  13.461  0.00  0.00    +0.000 A 
ATOM      4  C   UNL     1      36.712   6.555  13.464  0.00  0.00    +0.000 A 
ATOM      5  C   UNL     1      37.447   5.501  13.956  0.00  0.00    +0.000 A 
ATOM      6  C   UNL     1      36.717   4.438  14.476  0.00  0.00    +0.000 A 
ENDROOT
BRANCH   1   7
ATOM      7  C   UNL     1      34.570   3.321  15.045  0.00  0.00    +0.000 C 
BRANCH   7   8
ATOM      8  O   UNL     1      34.949   2.078  14.525  0.00  0.00    +0.000 OA
BRANCH   8  12
ATOM      9  C   UNL     1      37.498  -0.675  16.383  0.00  0.00    +0.000 A 
ATOM     10  C   UNL     1      37.877  -0.020  15.219  0.00  0.00    +0.000 A 
ATOM     11  C   UNL     1      37.047   0.889  14.599  0.00  0.00    +0.000 A 
ATOM     12  C   UNL     1      35.810   1.185  15.103  0.00  0.00    +0.000 A 
ATOM     13  C   UNL     1      35.428   0.532  16.265  0.00  0.00    +0.000 A 
ATOM     14  C   UNL     1      36.253  -0.378  16.893  0.00  0.00    +0.000 A 
BRANCH   9  15
ATOM     15  O   UNL     1      38.318  -1.592  17.022  0.00  0.00    +0.000 OA
BRANCH  15  17
ATOM     16  C   UNL     1      37.350  -3.211  15.502  0.00  0.00    +0.000 C 
ATOM     17  C   UNL     1      38.508  -2.854  16.383  0.00  0.00    +0.000 C 
ATOM     18  C   UNL     1      39.816  -2.762  15.608  0.00  0.00    +0.000 C 
ATOM     19  C   UNL     1      38.602  -3.884  17.496  0.00  0.00    +0.000 C 
ENDBRANCH  15  17
ENDBRANCH   9  15
ENDBRANCH   8  12
ENDBRANCH   7   8
ENDBRANCH   1   7
BRANCH   5  20
ATOM     20  C   UNL     1      38.929   5.467  13.949  0.00  0.00    +0.000 C 
BRANCH  20  21
ATOM     21  O   UNL     1      39.400   4.662  15.007  0.00  0.00    +0.000 OA
BRANCH  21  22
ATOM     22  C   UNL     1      39.643   5.186  16.281  0.00  0.00    +0.000 A 
ATOM     23  C   UNL     1      38.846   4.869  17.362  0.00  0.00    +0.000 A 
ATOM     24  C   UNL     1      39.084   5.386  18.618  0.00  0.00    +0.000 A 
ATOM     25  C   UNL     1      40.148   6.254  18.843  0.00  0.00    +0.000 A 
ATOM     26  C   UNL     1      40.949   6.575  17.767  0.00  0.00    +0.000 A 
ATOM     27  C   UNL     1      40.692   6.047  16.519  0.00  0.00    +0.000 A 
BRANCH  25  28
ATOM     28  C   UNL     1      40.404   6.811  20.198  0.00  0.00    +0.000 C 
ATOM     29  N   UNL     1      39.228   7.500  20.682  0.00  0.00    +0.000 NA
ENDBRANCH  25  28
ENDBRANCH  21  22
ENDBRANCH  20  21
ENDBRANCH   5  20
TORSDOF 9
ENDMDL
MODEL 8
REMARK VINA RESULT:      -6.8      3.626      5.524
REMARK  Name = 
REMARK  9 active torsions:
REMARK  status: ('A' for Active; 'I' for Inactive)
REMARK    1  A    between atoms: C_2  and  O_5
REMARK    2  A    between atoms: O_5  and  C_6
REMARK    3  A    between atoms: C_9  and  O_10
REMARK    4  A    between atoms: O_10  and  C_11
REMARK    5  A    between atoms: C_11  and  C_12
REMARK    6  A    between atoms: C_16  and  C_17
REMARK    7  A    between atoms: C_17  and  O_18
REMARK    8  A    between atoms: O_18  and  C_19
REMARK    9  A    between atoms: C_22  and  C_23
REMARK                            x       y       z     vdW  Elec       q    Type
REMARK                         _______ _______ _______ _____ _____    ______ ____
ROOT
ATOM      1  C   UNL     1      37.490  -2.606  17.234  0.00  0.00    +0.000 A 
ATOM      2  C   UNL     1      36.519  -3.431  16.708  0.00  0.00    +0.000 A 
ATOM      3  C   UNL     1      35.222  -2.987  16.604  0.00  0.00    +0.000 A 
ATOM      4  C   UNL     1      34.927  -1.729  17.028  0.00  0.00    +0.000 A 
ATOM      5  C   UNL     1      35.846  -0.855  17.562  0.00  0.00    +0.000 A 
ATOM      6  C   UNL     1      37.151  -1.323  17.658  0.00  0.00    +0.000 A 
ENDROOT
BRANCH   1   7
ATOM      7  C   UNL     1      38.879  -3.083  17.345  0.00  0.00    +0.000 C 
BRANCH   7   8
ATOM      8  O   UNL     1      39.570  -3.110  16.128  0.00  0.00    +0.000 OA
BRANCH   8  12
ATOM      9  C   UNL     1      39.031  -0.533  12.872  0.00  0.00    +0.000 A 
ATOM     10  C   UNL     1      39.634  -0.093  14.042  0.00  0.00    +0.000 A 
ATOM     11  C   UNL     1      39.818  -0.932  15.120  0.00  0.00    +0.000 A 
ATOM     12  C   UNL     1      39.411  -2.237  15.085  0.00  0.00    +0.000 A 
ATOM     13  C   UNL     1      38.808  -2.681  13.918  0.00  0.00    +0.000 A 
ATOM     14  C   UNL     1      38.621  -1.848  12.834  0.00  0.00    +0.000 A 
BRANCH   9  15
ATOM     15  O   UNL     1      38.838   0.295  11.777  0.00  0.00    +0.000 OA
BRANCH  15  17
ATOM     16  C   UNL     1      38.255   2.588  12.293  0.00  0.00    +0.000 C 
ATOM     17  C   UNL     1      37.772   1.240  11.854  0.00  0.00    +0.000 C 
ATOM     18  C   UNL     1      37.120   1.281  10.478  0.00  0.00    +0.000 C 
ATOM     19  C   UNL     1      36.807   0.709  12.901  0.00  0.00    +0.000 C 
ENDBRANCH  15  17
ENDBRANCH   9  15
ENDBRANCH   8  12
ENDBRANCH   7   8
ENDBRANCH   1   7
BRANCH   5  20
ATOM     20  C   UNL     1      35.499   0.513  18.018  0.00  0.00    +0.000 C 
BRANCH  20  21
ATOM     21  O   UNL     1      34.736   1.173  17.033  0.00  0.00    +0.000 OA
BRANCH  21  22
ATOM     22  C   UNL     1      35.249   2.248  16.299  0.00  0.00    +0.000 A 
ATOM     23  C   UNL     1      34.486   2.924  15.369  0.00  0.00    +0.000 A 
ATOM     24  C   UNL     1      34.991   3.983  14.645  0.00  0.00    +0.000 A 
ATOM     25  C   UNL     1      36.302   4.412  14.827  0.00  0.00    +0.000 A 
ATOM     26  C   UNL     1      37.071   3.741  15.754  0.00  0.00    +0.000 A 
ATOM     27  C   UNL     1      36.545   2.684  16.467  0.00  0.00    +0.000 A 
BRANCH  25  28
ATOM     28  C   UNL     1      36.845   5.555  14.045  0.00  0.00    +0.000 C 
ATOM     29  N   UNL     1      36.150   5.667  12.782  0.00  0.00    +0.000 NA
ENDBRANCH  25  28
ENDBRANCH  21  22
ENDBRANCH  20  21
ENDBRANCH   5  20
TORSDOF 9
ENDMDL
MODEL 9
REMARK VINA RESULT:      -6.8      3.660      7.485
REMARK  Name = 
REMARK  9 active torsions:
REMARK  status: ('A' for Active; 'I' for Inactive)
REMARK    1  A    between atoms: C_2  and  O_5
REMARK    2  A    between atoms: O_5  and  C_6
REMARK    3  A    between atoms: C_9  and  O_10
REMARK    4  A    between atoms: O_10  and  C_11
REMARK    5  A    between atoms: C_11  and  C_12
REMARK    6  A    between atoms: C_16  and  C_17
REMARK    7  A    between atoms: C_17  and  O_18
REMARK    8  A    between atoms: O_18  and  C_19
REMARK    9  A    between atoms: C_22  and  C_23
REMARK                            x       y       z     vdW  Elec       q    Type
REMARK                         _______ _______ _______ _____ _____    ______ ____
ROOT
ATOM      1  C   UNL     1      35.332  -2.330  17.087  0.00  0.00    +0.000 A 
ATOM      2  C   UNL     1      34.498  -2.925  16.164  0.00  0.00    +0.000 A 
ATOM      3  C   UNL     1      34.915  -4.041  15.479  0.00  0.00    +0.000 A 
ATOM      4  C   UNL     1      36.156  -4.536  15.732  0.00  0.00    +0.000 A 
ATOM      5  C   UNL     1      37.039  -3.993  16.638  0.00  0.00    +0.000 A 
ATOM      6  C   UNL     1      36.597  -2.866  17.321  0.00  0.00    +0.000 A 
ENDROOT
BRANCH   1   7
ATOM      7  C   UNL     1      34.884  -1.135  17.821  0.00  0.00    +0.000 C 
BRANCH   7   8
ATOM      8  O   UNL     1      34.346  -0.134  17.003  0.00  0.00    +0.000 OA
BRANCH   8  12
ATOM      9  C   UNL     1      36.565   2.680  14.838  0.00  0.00    +0.000 A 
ATOM     10  C   UNL     1      35.589   3.078  15.741  0.00  0.00    +0.000 A 
ATOM     11  C   UNL     1      34.853   2.161  16.460  0.00  0.00    +0.000 A 
ATOM     12  C   UNL     1      35.051   0.816  16.314  0.00  0.00    +0.000 A 
ATOM     13  C   UNL     1      36.025   0.414  15.413  0.00  0.00    +0.000 A 
ATOM     14  C   UNL     1      36.768   1.326  14.690  0.00  0.00    +0.000 A 
BRANCH   9  15
ATOM     15  O   UNL     1      37.317   3.586  14.106  0.00  0.00    +0.000 OA
BRANCH  15  17
ATOM     16  C   UNL     1      38.523   4.052  16.154  0.00  0.00    +0.000 C 
ATOM     17  C   UNL     1      38.568   3.993  14.658  0.00  0.00    +0.000 C 
ATOM     18  C   UNL     1      39.614   3.006  14.152  0.00  0.00    +0.000 C 
ATOM     19  C   UNL     1      38.834   5.391  14.128  0.00  0.00    +0.000 C 
ENDBRANCH  15  17
ENDBRANCH   9  15
ENDBRANCH   8  12
ENDBRANCH   7   8
ENDBRANCH   1   7
BRANCH   5  20
ATOM     20  C   UNL     1      38.388  -4.552  16.897  0.00  0.00    +0.000 C 
BRANCH  20  21
ATOM     21  O   UNL     1      39.317  -3.507  17.080  0.00  0.00    +0.000 OA
BRANCH  21  22
ATOM     22  C   UNL     1      39.776  -2.732  16.010  0.00  0.00    +0.000 A 
ATOM     23  C   UNL     1      40.720  -3.204  15.121  0.00  0.00    +0.000 A 
ATOM     24  C   UNL     1      41.174  -2.440  14.067  0.00  0.00    +0.000 A 
ATOM     25  C   UNL     1      40.690  -1.152  13.858  0.00  0.00    +0.000 A 
ATOM     26  C   UNL     1      39.746  -0.674  14.742  0.00  0.00    +0.000 A 
ATOM     27  C   UNL     1      39.307  -1.455  15.790  0.00  0.00    +0.000 A 
BRANCH  25  28
ATOM     28  C   UNL     1      41.179  -0.330  12.720  0.00  0.00    +0.000 C 
ATOM     29  N   UNL     1      42.413   0.334  13.081  0.00  0.00    +0.000 NA
ENDBRANCH  25  28
ENDBRANCH  21  22
ENDBRANCH  20  21
ENDBRANCH   5  20
TORSDOF 9
ENDMDL
MODEL 10
REMARK VINA RESULT:      -6.7      3.111      4.558
REMARK  Name = 
REMARK  9 active torsions:
REMARK  status: ('A' for Active; 'I' for Inactive)
REMARK    1  A    between atoms: C_2  and  O_5
REMARK    2  A    between atoms: O_5  and  C_6
REMARK    3  A    between atoms: C_9  and  O_10
REMARK    4  A    between atoms: O_10  and  C_11
REMARK    5  A    between atoms: C_11  and  C_12
REMARK    6  A    between atoms: C_16  and  C_17
REMARK    7  A    between atoms: C_17  and  O_18
REMARK    8  A    between atoms: O_18  and  C_19
REMARK    9  A    between atoms: C_22  and  C_23
REMARK                            x       y       z     vdW  Elec       q    Type
REMARK                         _______ _______ _______ _____ _____    ______ ____
ROOT
ATOM      1  C   UNL     1      37.970   4.260  16.589  0.00  0.00    +0.000 A 
ATOM      2  C   UNL     1      38.746   4.546  15.485  0.00  0.00    +0.000 A 
ATOM      3  C   UNL     1      39.878   5.313  15.621  0.00  0.00    +0.000 A 
ATOM      4  C   UNL     1      40.208   5.776  16.856  0.00  0.00    +0.000 A 
ATOM      5  C   UNL     1      39.481   5.530  17.998  0.00  0.00    +0.000 A 
ATOM      6  C   UNL     1      38.340   4.752  17.839  0.00  0.00    +0.000 A 
ENDROOT
BRANCH   1   7
ATOM      7  C   UNL     1      36.757   3.438  16.442  0.00  0.00    +0.000 C 
BRANCH   7   8
ATOM      8  O   UNL     1      36.699   2.348  17.319  0.00  0.00    +0.000 OA
BRANCH   8  12
ATOM      9  C   UNL     1      35.676  -1.558  16.212  0.00  0.00    +0.000 A 
ATOM     10  C   UNL     1      35.479  -1.106  17.509  0.00  0.00    +0.000 A 
ATOM     11  C   UNL     1      35.810   0.178  17.885  0.00  0.00    +0.000 A 
ATOM     12  C   UNL     1      36.352   1.064  16.995  0.00  0.00    +0.000 A 
ATOM     13  C   UNL     1      36.551   0.616  15.698  0.00  0.00    +0.000 A 
ATOM     14  C   UNL     1      36.221  -0.667  15.313  0.00  0.00    +0.000 A 
BRANCH   9  15
ATOM     15  O   UNL     1      35.349  -2.845  15.814  0.00  0.00    +0.000 OA
BRANCH  15  17
ATOM     16  C   UNL     1      37.582  -3.415  16.561  0.00  0.00    +0.000 C 
ATOM     17  C   UNL     1      36.419  -3.782  15.692  0.00  0.00    +0.000 C 
ATOM     18  C   UNL     1      35.847  -5.150  16.042  0.00  0.00    +0.000 C 
ATOM     19  C   UNL     1      36.865  -3.730  14.241  0.00  0.00    +0.000 C 
ENDBRANCH  15  17
ENDBRANCH   9  15
ENDBRANCH   8  12
ENDBRANCH   7   8
ENDBRANCH   1   7
BRANCH   5  20
ATOM     20  C   UNL     1      39.862   6.046  19.335  0.00  0.00    +0.000 C 
BRANCH  20  21
ATOM     21  O   UNL     1      40.911   6.980  19.212  0.00  0.00    +0.000 OA
BRANCH  21  22
ATOM     22  C   UNL     1      42.194   6.718  19.703  0.00  0.00    +0.000 A 
ATOM     23  C   UNL     1      43.327   7.000  18.968  0.00  0.00    +0.000 A 
ATOM     24  C   UNL     1      44.592   6.741  19.451  0.00  0.00    +0.000 A 
ATOM     25  C   UNL     1      44.773   6.180  20.712  0.00  0.00    +0.000 A 
ATOM     26  C   UNL     1      43.646   5.894  21.452  0.00  0.00    +0.000 A 
ATOM     27  C   UNL     1      42.390   6.161  20.949  0.00  0.00    +0.000 A 
BRANCH  25  28
ATOM     28  C   UNL     1      46.139   5.901  21.232  0.00  0.00    +0.000 C 
ATOM     29  N   UNL     1      46.577   6.984  22.084  0.00  0.00    +0.000 NA
ENDBRANCH  25  28
ENDBRANCH  21  22
ENDBRANCH  20  21
ENDBRANCH   5  20
TORSDOF 9
ENDMDL
