MODEL 1
REMARK VINA RESULT:      -5.7      0.000      0.000
REMARK  Name = 
REMARK  3 active torsions:
REMARK  status: ('A' for Active; 'I' for Inactive)
REMARK    1  A    between atoms: C_6  and  C_7
REMARK    2  A    between atoms: N_9  and  C_10
REMARK    3  A    between atoms: C_10  and  C_11
REMARK                            x       y       z     vdW  Elec       q    Type
REMARK                         _______ _______ _______ _____ _____    ______ ____
ROOT
ATOM      1  N   UNL     1      38.360   6.181  39.299  0.00  0.00    +0.000 NA
ATOM      2  C   UNL     1      37.838   7.276  38.517  0.00  0.00    +0.000 A 
ATOM      3  S   UNL     1      38.054   8.942  38.784  0.00  0.00    +0.000 S 
ATOM      4  C   UNL     1      37.158   9.556  37.476  0.00  0.00    +0.000 A 
ATOM      5  C   UNL     1      36.705   8.420  36.853  0.00  0.00    +0.000 A 
ATOM      6  C   UNL     1      37.055   7.243  37.388  0.00  0.00    +0.000 A 
ATOM      7  C   UNL     1      35.837   8.313  35.604  0.00  0.00    +0.000 C 
ATOM      8  C   UNL     1      34.577   9.127  35.773  0.00  0.00    +0.000 C 
ATOM      9  C   UNL     1      34.874  10.605  35.668  0.00  0.00    +0.000 C 
ATOM     10  C   UNL     1      36.213  10.748  34.972  0.00  0.00    +0.000 C 
ATOM     11  C   UNL     1      37.143  11.474  35.893  0.00  0.00    +0.000 C 
ATOM     12  C   UNL     1      37.074  11.034  37.315  0.00  0.00    +0.000 C 
ENDROOT
BRANCH   6  13
ATOM     13  C   UNL     1      36.651   5.914  36.841  0.00  0.00    +0.000 C 
ATOM     14  O   UNL     1      37.388   5.255  36.099  0.00  0.00    +0.000 OA
ATOM     15  N   UNL     1      35.381   5.365  37.170  0.00  0.00    +0.000 NA
BRANCH  15  16
ATOM     16  C   UNL     1      34.905   4.092  36.691  0.00  0.00    +0.000 C 
BRANCH  16  17
ATOM     17  C   UNL     1      34.076   4.341  35.489  0.00  0.00    +0.000 A 
ATOM     18  C   UNL     1      33.281   5.417  35.180  0.00  0.00    +0.000 A 
ATOM     19  C   UNL     1      32.729   5.153  33.946  0.00  0.00    +0.000 A 
ATOM     20  C   UNL     1      33.197   3.940  33.544  0.00  0.00    +0.000 A 
ATOM     21  O   UNL     1      33.981   3.511  34.483  0.00  0.00    +0.000 OA
ENDBRANCH  16  17
ENDBRANCH  15  16
ENDBRANCH   6  13
TORSDOF 3
ENDMDL
MODEL 2
REMARK VINA RESULT:      -5.6     17.703     20.117
REMARK  Name = 
REMARK  3 active torsions:
REMARK  status: ('A' for Active; 'I' for Inactive)
REMARK    1  A    between atoms: C_6  and  C_7
REMARK    2  A    between atoms: N_9  and  C_10
REMARK    3  A    between atoms: C_10  and  C_11
REMARK                            x       y       z     vdW  Elec       q    Type
REMARK                         _______ _______ _______ _____ _____    ______ ____
ROOT
ATOM      1  N   UNL     1      25.332  24.460  28.189  0.00  0.00    +0.000 NA
ATOM      2  C   UNL     1      26.358  24.174  27.216  0.00  0.00    +0.000 A 
ATOM      3  S   UNL     1      26.170  23.962  25.538  0.00  0.00    +0.000 S 
ATOM      4  C   UNL     1      27.789  23.667  25.108  0.00  0.00    +0.000 A 
ATOM      5  C   UNL     1      28.446  23.744  26.311  0.00  0.00    +0.000 A 
ATOM      6  C   UNL     1      27.709  24.005  27.399  0.00  0.00    +0.000 A 
ATOM      7  C   UNL     1      29.935  23.567  26.584  0.00  0.00    +0.000 C 
ATOM      8  C   UNL     1      30.416  22.252  26.023  0.00  0.00    +0.000 C 
ATOM      9  C   UNL     1      30.509  22.310  24.517  0.00  0.00    +0.000 C 
ATOM     10  C   UNL     1      30.546  23.774  24.123  0.00  0.00    +0.000 C 
ATOM     11  C   UNL     1      29.376  24.049  23.232  0.00  0.00    +0.000 C 
ATOM     12  C   UNL     1      28.100  23.418  23.674  0.00  0.00    +0.000 C 
ENDROOT
BRANCH   6  13
ATOM     13  C   UNL     1      28.259  24.123  28.782  0.00  0.00    +0.000 C 
ATOM     14  O   UNL     1      28.519  25.217  29.297  0.00  0.00    +0.000 OA
ATOM     15  N   UNL     1      28.501  22.953  29.554  0.00  0.00    +0.000 NA
BRANCH  15  16
ATOM     16  C   UNL     1      29.028  22.968  30.895  0.00  0.00    +0.000 C 
BRANCH  16  17
ATOM     17  C   UNL     1      30.353  22.307  30.867  0.00  0.00    +0.000 A 
ATOM     18  C   UNL     1      31.297  22.276  29.871  0.00  0.00    +0.000 A 
ATOM     19  C   UNL     1      32.348  21.525  30.351  0.00  0.00    +0.000 A 
ATOM     20  C   UNL     1      32.018  21.126  31.609  0.00  0.00    +0.000 A 
ATOM     21  O   UNL     1      30.842  21.611  31.861  0.00  0.00    +0.000 OA
ENDBRANCH  16  17
ENDBRANCH  15  16
ENDBRANCH   6  13
TORSDOF 3
ENDMDL
MODEL 3
REMARK VINA RESULT:      -5.6     17.003     19.439
REMARK  Name = 
REMARK  3 active torsions:
REMARK  status: ('A' for Active; 'I' for Inactive)
REMARK    1  A    between atoms: C_6  and  C_7
REMARK    2  A    between atoms: N_9  and  C_10
REMARK    3  A    between atoms: C_10  and  C_11
REMARK                            x       y       z     vdW  Elec       q    Type
REMARK                         _______ _______ _______ _____ _____    ______ ____
ROOT
ATOM      1  N   UNL     1      25.803  24.097  30.101  0.00  0.00    +0.000 NA
ATOM      2  C   UNL     1      26.571  23.918  28.893  0.00  0.00    +0.000 A 
ATOM      3  S   UNL     1      25.999  23.896  27.290  0.00  0.00    +0.000 S 
ATOM      4  C   UNL     1      27.467  23.644  26.470  0.00  0.00    +0.000 A 
ATOM      5  C   UNL     1      28.383  23.583  27.491  0.00  0.00    +0.000 A 
ATOM      6  C   UNL     1      27.922  23.724  28.740  0.00  0.00    +0.000 A 
ATOM      7  C   UNL     1      29.890  23.371  27.393  0.00  0.00    +0.000 C 
ATOM      8  C   UNL     1      30.191  22.125  26.598  0.00  0.00    +0.000 C 
ATOM      9  C   UNL     1      29.938  22.352  25.126  0.00  0.00    +0.000 C 
ATOM     10  C   UNL     1      29.929  23.850  24.895  0.00  0.00    +0.000 C 
ATOM     11  C   UNL     1      28.595  24.228  24.332  0.00  0.00    +0.000 C 
ATOM     12  C   UNL     1      27.435  23.557  24.984  0.00  0.00    +0.000 C 
ENDROOT
BRANCH   6  13
ATOM     13  C   UNL     1      28.777  23.683  29.965  0.00  0.00    +0.000 C 
ATOM     14  O   UNL     1      29.192  24.711  30.513  0.00  0.00    +0.000 OA
ATOM     15  N   UNL     1      29.139  22.434  30.538  0.00  0.00    +0.000 NA
BRANCH  15  16
ATOM     16  C   UNL     1      29.958  22.296  31.716  0.00  0.00    +0.000 C 
BRANCH  16  17
ATOM     17  C   UNL     1      31.300  21.844  31.284  0.00  0.00    +0.000 A 
ATOM     18  C   UNL     1      31.879  21.879  30.039  0.00  0.00    +0.000 A 
ATOM     19  C   UNL     1      33.138  21.337  30.178  0.00  0.00    +0.000 A 
ATOM     20  C   UNL     1      33.288  20.991  31.485  0.00  0.00    +0.000 A 
ATOM     21  O   UNL     1      32.184  21.310  32.087  0.00  0.00    +0.000 OA
ENDBRANCH  16  17
ENDBRANCH  15  16
ENDBRANCH   6  13
TORSDOF 3
ENDMDL
MODEL 4
REMARK VINA RESULT:      -5.5     21.497     23.698
REMARK  Name = 
REMARK  3 active torsions:
REMARK  status: ('A' for Active; 'I' for Inactive)
REMARK    1  A    between atoms: C_6  and  C_7
REMARK    2  A    between atoms: N_9  and  C_10
REMARK    3  A    between atoms: C_10  and  C_11
REMARK                            x       y       z     vdW  Elec       q    Type
REMARK                         _______ _______ _______ _____ _____    ______ ____
ROOT
ATOM      1  N   UNL     1      25.666  24.579  31.031  0.00  0.00    +0.000 NA
ATOM      2  C   UNL     1      25.787  24.461  29.598  0.00  0.00    +0.000 A 
ATOM      3  S   UNL     1      26.692  23.318  28.721  0.00  0.00    +0.000 S 
ATOM      4  C   UNL     1      26.331  23.826  27.139  0.00  0.00    +0.000 A 
ATOM      5  C   UNL     1      25.496  24.896  27.342  0.00  0.00    +0.000 A 
ATOM      6  C   UNL     1      25.215  25.225  28.610  0.00  0.00    +0.000 A 
ATOM      7  C   UNL     1      24.830  25.784  26.297  0.00  0.00    +0.000 C 
ATOM      8  C   UNL     1      25.864  26.341  25.350  0.00  0.00    +0.000 C 
ATOM      9  C   UNL     1      26.357  25.274  24.402  0.00  0.00    +0.000 C 
ATOM     10  C   UNL     1      25.331  24.158  24.406  0.00  0.00    +0.000 C 
ATOM     11  C   UNL     1      26.008  22.901  24.853  0.00  0.00    +0.000 C 
ATOM     12  C   UNL     1      26.938  23.075  26.005  0.00  0.00    +0.000 C 
ENDROOT
BRANCH   6  13
ATOM     13  C   UNL     1      24.327  26.357  29.011  0.00  0.00    +0.000 C 
ATOM     14  O   UNL     1      24.775  27.466  29.326  0.00  0.00    +0.000 OA
ATOM     15  N   UNL     1      22.917  26.180  29.040  0.00  0.00    +0.000 NA
BRANCH  15  16
ATOM     16  C   UNL     1      21.983  27.213  29.413  0.00  0.00    +0.000 C 
BRANCH  16  17
ATOM     17  C   UNL     1      20.616  26.689  29.190  0.00  0.00    +0.000 A 
ATOM     18  C   UNL     1      19.941  26.475  28.013  0.00  0.00    +0.000 A 
ATOM     19  C   UNL     1      18.703  25.977  28.358  0.00  0.00    +0.000 A 
ATOM     20  C   UNL     1      18.660  25.904  29.716  0.00  0.00    +0.000 A 
ATOM     21  O   UNL     1      19.805  26.331  30.151  0.00  0.00    +0.000 OA
ENDBRANCH  16  17
ENDBRANCH  15  16
ENDBRANCH   6  13
TORSDOF 3
ENDMDL
MODEL 5
REMARK VINA RESULT:      -5.4     18.883     21.227
REMARK  Name = 
REMARK  3 active torsions:
REMARK  status: ('A' for Active; 'I' for Inactive)
REMARK    1  A    between atoms: C_6  and  C_7
REMARK    2  A    between atoms: N_9  and  C_10
REMARK    3  A    between atoms: C_10  and  C_11
REMARK                            x       y       z     vdW  Elec       q    Type
REMARK                         _______ _______ _______ _____ _____    ______ ____
ROOT
ATOM      1  N   UNL     1      24.893  25.436  30.738  0.00  0.00    +0.000 NA
ATOM      2  C   UNL     1      25.079  25.345  29.310  0.00  0.00    +0.000 A 
ATOM      3  S   UNL     1      24.312  26.263  28.100  0.00  0.00    +0.000 S 
ATOM      4  C   UNL     1      25.043  25.582  26.723  0.00  0.00    +0.000 A 
ATOM      5  C   UNL     1      25.884  24.638  27.257  0.00  0.00    +0.000 A 
ATOM      6  C   UNL     1      25.903  24.514  28.591  0.00  0.00    +0.000 A 
ATOM      7  C   UNL     1      26.820  23.686  26.521  0.00  0.00    +0.000 C 
ATOM      8  C   UNL     1      26.057  22.906  25.479  0.00  0.00    +0.000 C 
ATOM      9  C   UNL     1      25.712  23.781  24.296  0.00  0.00    +0.000 C 
ATOM     10  C   UNL     1      26.636  24.982  24.339  0.00  0.00    +0.000 C 
ATOM     11  C   UNL     1      25.794  26.215  24.439  0.00  0.00    +0.000 C 
ATOM     12  C   UNL     1      24.649  26.108  25.387  0.00  0.00    +0.000 C 
ENDROOT
BRANCH   6  13
ATOM     13  C   UNL     1      26.756  23.540  29.335  0.00  0.00    +0.000 C 
ATOM     14  O   UNL     1      26.370  22.396  29.603  0.00  0.00    +0.000 OA
ATOM     15  N   UNL     1      28.059  23.916  29.762  0.00  0.00    +0.000 NA
BRANCH  15  16
ATOM     16  C   UNL     1      28.952  23.046  30.485  0.00  0.00    +0.000 C 
BRANCH  16  17
ATOM     17  C   UNL     1      30.043  22.653  29.564  0.00  0.00    +0.000 A 
ATOM     18  C   UNL     1      30.098  22.710  28.193  0.00  0.00    +0.000 A 
ATOM     19  C   UNL     1      31.335  22.225  27.831  0.00  0.00    +0.000 A 
ATOM     20  C   UNL     1      31.990  21.889  28.975  0.00  0.00    +0.000 A 
ATOM     21  O   UNL     1      31.190  22.161  29.959  0.00  0.00    +0.000 OA
ENDBRANCH  16  17
ENDBRANCH  15  16
ENDBRANCH   6  13
TORSDOF 3
ENDMDL
MODEL 6
REMARK VINA RESULT:      -5.4     21.535     24.103
REMARK  Name = 
REMARK  3 active torsions:
REMARK  status: ('A' for Active; 'I' for Inactive)
REMARK    1  A    between atoms: C_6  and  C_7
REMARK    2  A    between atoms: N_9  and  C_10
REMARK    3  A    between atoms: C_10  and  C_11
REMARK                            x       y       z     vdW  Elec       q    Type
REMARK                         _______ _______ _______ _____ _____    ______ ____
ROOT
ATOM      1  N   UNL     1      23.714   1.266  14.230  0.00  0.00    +0.000 NA
ATOM      2  C   UNL     1      24.352   2.407  14.840  0.00  0.00    +0.000 A 
ATOM      3  S   UNL     1      25.539   3.421  14.162  0.00  0.00    +0.000 S 
ATOM      4  C   UNL     1      25.769   4.493  15.462  0.00  0.00    +0.000 A 
ATOM      5  C   UNL     1      24.894   4.022  16.409  0.00  0.00    +0.000 A 
ATOM      6  C   UNL     1      24.163   2.946  16.089  0.00  0.00    +0.000 A 
ATOM      7  C   UNL     1      24.636   4.568  17.808  0.00  0.00    +0.000 C 
ATOM      8  C   UNL     1      25.933   4.676  18.573  0.00  0.00    +0.000 C 
ATOM      9  C   UNL     1      26.760   5.835  18.070  0.00  0.00    +0.000 C 
ATOM     10  C   UNL     1      25.827   6.761  17.315  0.00  0.00    +0.000 C 
ATOM     11  C   UNL     1      26.320   6.877  15.908  0.00  0.00    +0.000 C 
ATOM     12  C   UNL     1      26.763   5.590  15.299  0.00  0.00    +0.000 C 
ENDROOT
BRANCH   6  13
ATOM     13  C   UNL     1      23.167   2.303  16.998  0.00  0.00    +0.000 C 
ATOM     14  O   UNL     1      23.492   1.457  17.839  0.00  0.00    +0.000 OA
ATOM     15  N   UNL     1      21.793   2.657  16.911  0.00  0.00    +0.000 NA
BRANCH  15  16
ATOM     16  C   UNL     1      20.761   2.092  17.744  0.00  0.00    +0.000 C 
BRANCH  16  17
ATOM     17  C   UNL     1      19.820   1.361  16.865  0.00  0.00    +0.000 A 
ATOM     18  C   UNL     1      18.447   1.374  16.847  0.00  0.00    +0.000 A 
ATOM     19  C   UNL     1      18.061   0.519  15.837  0.00  0.00    +0.000 A 
ATOM     20  C   UNL     1      19.195   0.017  15.277  0.00  0.00    +0.000 A 
ATOM     21  O   UNL     1      20.194   0.542  15.915  0.00  0.00    +0.000 OA
ENDBRANCH  16  17
ENDBRANCH  15  16
ENDBRANCH   6  13
TORSDOF 3
ENDMDL
MODEL 7
REMARK VINA RESULT:      -5.3      5.242      8.849
REMARK  Name = 
REMARK  3 active torsions:
REMARK  status: ('A' for Active; 'I' for Inactive)
REMARK    1  A    between atoms: C_6  and  C_7
REMARK    2  A    between atoms: N_9  and  C_10
REMARK    3  A    between atoms: C_10  and  C_11
REMARK                            x       y       z     vdW  Elec       q    Type
REMARK                         _______ _______ _______ _____ _____    ______ ____
ROOT
ATOM      1  N   UNL     1      36.769  -0.097  39.004  0.00  0.00    +0.000 NA
ATOM      2  C   UNL     1      36.054  -0.756  37.939  0.00  0.00    +0.000 A 
ATOM      3  S   UNL     1      36.332  -2.310  37.303  0.00  0.00    +0.000 S 
ATOM      4  C   UNL     1      35.115  -2.351  36.116  0.00  0.00    +0.000 A 
ATOM      5  C   UNL     1      34.511  -1.126  36.251  0.00  0.00    +0.000 A 
ATOM      6  C   UNL     1      34.994  -0.302  37.191  0.00  0.00    +0.000 A 
ATOM      7  C   UNL     1      33.338  -0.561  35.459  0.00  0.00    +0.000 C 
ATOM      8  C   UNL     1      33.627  -0.631  33.979  0.00  0.00    +0.000 C 
ATOM      9  C   UNL     1      33.524  -2.052  33.477  0.00  0.00    +0.000 C 
ATOM     10  C   UNL     1      32.722  -2.834  34.498  0.00  0.00    +0.000 C 
ATOM     11  C   UNL     1      33.574  -3.954  35.004  0.00  0.00    +0.000 C 
ATOM     12  C   UNL     1      34.989  -3.579  35.283  0.00  0.00    +0.000 C 
ENDROOT
BRANCH   6  13
ATOM     13  C   UNL     1      34.459   1.063  37.472  0.00  0.00    +0.000 C 
ATOM     14  O   UNL     1      33.544   1.259  38.282  0.00  0.00    +0.000 OA
ATOM     15  N   UNL     1      35.001   2.193  36.801  0.00  0.00    +0.000 NA
BRANCH  15  16
ATOM     16  C   UNL     1      34.550   3.546  37.007  0.00  0.00    +0.000 C 
BRANCH  16  17
ATOM     17  C   UNL     1      33.939   4.017  35.743  0.00  0.00    +0.000 A 
ATOM     18  C   UNL     1      33.321   5.210  35.460  0.00  0.00    +0.000 A 
ATOM     19  C   UNL     1      32.929   5.143  34.140  0.00  0.00    +0.000 A 
ATOM     20  C   UNL     1      33.314   3.928  33.665  0.00  0.00    +0.000 A 
ATOM     21  O   UNL     1      33.900   3.311  34.643  0.00  0.00    +0.000 OA
ENDBRANCH  16  17
ENDBRANCH  15  16
ENDBRANCH   6  13
TORSDOF 3
ENDMDL
MODEL 8
REMARK VINA RESULT:      -5.3     10.870     14.782
REMARK  Name = 
REMARK  3 active torsions:
REMARK  status: ('A' for Active; 'I' for Inactive)
REMARK    1  A    between atoms: C_6  and  C_7
REMARK    2  A    between atoms: N_9  and  C_10
REMARK    3  A    between atoms: C_10  and  C_11
REMARK                            x       y       z     vdW  Elec       q    Type
REMARK                         _______ _______ _______ _____ _____    ______ ____
ROOT
ATOM      1  N   UNL     1      33.490  -8.558  35.015  0.00  0.00    +0.000 NA
ATOM      2  C   UNL     1      33.627  -8.214  33.621  0.00  0.00    +0.000 A 
ATOM      3  S   UNL     1      34.515  -9.039  32.427  0.00  0.00    +0.000 S 
ATOM      4  C   UNL     1      34.187  -8.040  31.091  0.00  0.00    +0.000 A 
ATOM      5  C   UNL     1      33.376  -7.069  31.624  0.00  0.00    +0.000 A 
ATOM      6  C   UNL     1      33.087  -7.157  32.929  0.00  0.00    +0.000 A 
ATOM      7  C   UNL     1      32.746  -5.875  30.916  0.00  0.00    +0.000 C 
ATOM      8  C   UNL     1      33.806  -5.072  30.203  0.00  0.00    +0.000 C 
ATOM      9  C   UNL     1      34.285  -5.792  28.964  0.00  0.00    +0.000 C 
ATOM     10  C   UNL     1      33.231  -6.821  28.605  0.00  0.00    +0.000 C 
ATOM     11  C   UNL     1      33.870  -8.173  28.628  0.00  0.00    +0.000 C 
ATOM     12  C   UNL     1      34.789  -8.404  29.779  0.00  0.00    +0.000 C 
ENDROOT
BRANCH   6  13
ATOM     13  C   UNL     1      32.223  -6.189  33.669  0.00  0.00    +0.000 C 
ATOM     14  O   UNL     1      31.002  -6.351  33.787  0.00  0.00    +0.000 OA
ATOM     15  N   UNL     1      32.798  -5.035  34.266  0.00  0.00    +0.000 NA
BRANCH  15  16
ATOM     16  C   UNL     1      32.047  -4.047  34.999  0.00  0.00    +0.000 C 
BRANCH  16  17
ATOM     17  C   UNL     1      32.548  -2.711  34.604  0.00  0.00    +0.000 A 
ATOM     18  C   UNL     1      33.559  -2.375  33.737  0.00  0.00    +0.000 A 
ATOM     19  C   UNL     1      33.622  -0.999  33.724  0.00  0.00    +0.000 A 
ATOM     20  C   UNL     1      32.661  -0.542  34.572  0.00  0.00    +0.000 A 
ATOM     21  O   UNL     1      32.063  -1.585  35.058  0.00  0.00    +0.000 OA
ENDBRANCH  16  17
ENDBRANCH  15  16
ENDBRANCH   6  13
TORSDOF 3
ENDMDL
MODEL 9
REMARK VINA RESULT:      -5.3     21.517     24.130
REMARK  Name = 
REMARK  3 active torsions:
REMARK  status: ('A' for Active; 'I' for Inactive)
REMARK    1  A    between atoms: C_6  and  C_7
REMARK    2  A    between atoms: N_9  and  C_10
REMARK    3  A    between atoms: C_10  and  C_11
REMARK                            x       y       z     vdW  Elec       q    Type
REMARK                         _______ _______ _______ _____ _____    ______ ____
ROOT
ATOM      1  N   UNL     1      23.849   3.952  12.006  0.00  0.00    +0.000 NA
ATOM      2  C   UNL     1      23.700   3.685  13.415  0.00  0.00    +0.000 A 
ATOM      3  S   UNL     1      22.400   2.913  14.196  0.00  0.00    +0.000 S 
ATOM      4  C   UNL     1      22.956   2.980  15.802  0.00  0.00    +0.000 A 
ATOM      5  C   UNL     1      24.166   3.616  15.682  0.00  0.00    +0.000 A 
ATOM      6  C   UNL     1      24.551   3.980  14.452  0.00  0.00    +0.000 A 
ATOM      7  C   UNL     1      25.156   3.974  16.786  0.00  0.00    +0.000 C 
ATOM      8  C   UNL     1      24.466   4.767  17.868  0.00  0.00    +0.000 C 
ATOM      9  C   UNL     1      23.572   3.878  18.700  0.00  0.00    +0.000 C 
ATOM     10  C   UNL     1      24.024   2.449  18.477  0.00  0.00    +0.000 C 
ATOM     11  C   UNL     1      22.872   1.676  17.918  0.00  0.00    +0.000 C 
ATOM     12  C   UNL     1      22.096   2.395  16.867  0.00  0.00    +0.000 C 
ENDROOT
BRANCH   6  13
ATOM     13  C   UNL     1      25.834   4.680  14.142  0.00  0.00    +0.000 C 
ATOM     14  O   UNL     1      26.832   4.075  13.733  0.00  0.00    +0.000 OA
ATOM     15  N   UNL     1      25.936   6.087  14.313  0.00  0.00    +0.000 NA
BRANCH  15  16
ATOM     16  C   UNL     1      27.130   6.847  14.039  0.00  0.00    +0.000 C 
BRANCH  16  17
ATOM     17  C   UNL     1      27.875   6.994  15.311  0.00  0.00    +0.000 A 
ATOM     18  C   UNL     1      27.425   6.908  16.606  0.00  0.00    +0.000 A 
ATOM     19  C   UNL     1      28.520   7.122  17.414  0.00  0.00    +0.000 A 
ATOM     20  C   UNL     1      29.590   7.330  16.601  0.00  0.00    +0.000 A 
ATOM     21  O   UNL     1      29.157   7.243  15.381  0.00  0.00    +0.000 OA
ENDBRANCH  16  17
ENDBRANCH  15  16
ENDBRANCH   6  13
TORSDOF 3
ENDMDL
MODEL 10
REMARK VINA RESULT:      -5.2     21.688     25.239
REMARK  Name = 
REMARK  3 active torsions:
REMARK  status: ('A' for Active; 'I' for Inactive)
REMARK    1  A    between atoms: C_6  and  C_7
REMARK    2  A    between atoms: N_9  and  C_10
REMARK    3  A    between atoms: C_10  and  C_11
REMARK                            x       y       z     vdW  Elec       q    Type
REMARK                         _______ _______ _______ _____ _____    ______ ____
ROOT
ATOM      1  N   UNL     1      23.667   4.301  13.473  0.00  0.00    +0.000 NA
ATOM      2  C   UNL     1      22.509   3.647  14.031  0.00  0.00    +0.000 A 
ATOM      3  S   UNL     1      20.934   3.591  13.390  0.00  0.00    +0.000 S 
ATOM      4  C   UNL     1      20.171   2.663  14.594  0.00  0.00    +0.000 A 
ATOM      5  C   UNL     1      21.188   2.417  15.483  0.00  0.00    +0.000 A 
ATOM      6  C   UNL     1      22.394   2.924  15.194  0.00  0.00    +0.000 A 
ATOM      7  C   UNL     1      21.130   1.627  16.785  0.00  0.00    +0.000 C 
ATOM      8  C   UNL     1      20.033   2.162  17.672  0.00  0.00    +0.000 C 
ATOM      9  C   UNL     1      18.674   1.760  17.149  0.00  0.00    +0.000 C 
ATOM     10  C   UNL     1      18.881   0.588  16.209  0.00  0.00    +0.000 C 
ATOM     11  C   UNL     1      18.365   0.975  14.859  0.00  0.00    +0.000 C 
ATOM     12  C   UNL     1      18.723   2.357  14.432  0.00  0.00    +0.000 C 
ENDROOT
BRANCH   6  13
ATOM     13  C   UNL     1      23.608   2.753  16.048  0.00  0.00    +0.000 C 
ATOM     14  O   UNL     1      24.400   1.817  15.887  0.00  0.00    +0.000 OA
ATOM     15  N   UNL     1      23.884   3.683  17.086  0.00  0.00    +0.000 NA
BRANCH  15  16
ATOM     16  C   UNL     1      25.028   3.601  17.958  0.00  0.00    +0.000 C 
BRANCH  16  17
ATOM     17  C   UNL     1      25.743   4.896  17.891  0.00  0.00    +0.000 A 
ATOM     18  C   UNL     1      26.916   5.282  18.491  0.00  0.00    +0.000 A 
ATOM     19  C   UNL     1      27.142   6.585  18.105  0.00  0.00    +0.000 A 
ATOM     20  C   UNL     1      26.115   6.950  17.292  0.00  0.00    +0.000 A 
ATOM     21  O   UNL     1      25.326   5.925  17.201  0.00  0.00    +0.000 OA
ENDBRANCH  16  17
ENDBRANCH  15  16
ENDBRANCH   6  13
TORSDOF 3
ENDMDL
