MODEL 1
REMARK VINA RESULT:      -8.0      0.000      0.000
REMARK  Name = 
REMARK  9 active torsions:
REMARK  status: ('A' for Active; 'I' for Inactive)
REMARK    1  A    between atoms: C_6  and  N_7
REMARK    2  A    between atoms: C_8  and  C_10
REMARK    3  A    between atoms: C_10  and  O_12
REMARK    4  A    between atoms: O_12  and  C_13
REMARK    5  A    between atoms: C_13  and  C_15
REMARK    6  A    between atoms: C_15  and  C_16
REMARK    7  A    between atoms: C_16  and  C_17
REMARK    8  A    between atoms: C_17  and  O_18
REMARK    9  A    between atoms: O_18  and  C_19
REMARK                            x       y       z     vdW  Elec       q    Type
REMARK                         _______ _______ _______ _____ _____    ______ ____
ROOT
ATOM      1  C   UNL     1      35.738   2.040  17.003  0.00  0.00    +0.000 C 
ATOM      2  O   UNL     1      34.577   1.759  16.622  0.00  0.00    +0.000 OA
ENDROOT
BRANCH   1   3
ATOM      3  O   UNL     1      36.248   1.074  17.907  0.00  0.00    +0.000 OA
BRANCH   3   4
ATOM      4  C   UNL     1      35.841  -0.360  17.635  0.00  0.00    +0.000 C 
ATOM      5  C   UNL     1      36.039  -0.870  19.186  0.00  0.00    +0.000 C 
BRANCH   4   7
ATOM      6  N   UNL     1      37.525  -0.875  15.771  0.00  0.00    +0.000 NA
ATOM      7  C   UNL     1      37.272  -0.863  17.161  0.00  0.00    +0.000 C 
ATOM      8  O   UNL     1      38.148  -1.231  17.906  0.00  0.00    +0.000 OA
BRANCH   6  14
ATOM      9  C   UNL     1      41.824   0.262  13.758  0.00  0.00    +0.000 C 
ATOM     10  C   UNL     1      40.889  -0.734  14.391  0.00  0.00    +0.000 A 
ATOM     11  C   UNL     1      41.351  -2.011  14.538  0.00  0.00    +0.000 A 
ATOM     12  C   UNL     1      40.528  -2.964  15.113  0.00  0.00    +0.000 A 
ATOM     13  C   UNL     1      39.262  -2.608  15.527  0.00  0.00    +0.000 A 
ATOM     14  C   UNL     1      38.806  -1.325  15.377  0.00  0.00    +0.000 A 
ATOM     15  C   UNL     1      39.640  -0.380  14.798  0.00  0.00    +0.000 A 
ATOM     16  C   UNL     1      39.208   1.030  14.605  0.00  0.00    +0.000 C 
ENDBRANCH   6  14
ENDBRANCH   4   7
ENDBRANCH   3   4
ENDBRANCH   1   3
BRANCH   1  17
ATOM     17  C   UNL     1      36.561   3.161  16.648  0.00  0.00    +0.000 C 
BRANCH  17  18
ATOM     18  C   UNL     1      36.633   3.701  15.326  0.00  0.00    +0.000 C 
BRANCH  18  19
ATOM     19  C   UNL     1      37.343   4.929  14.991  0.00  0.00    +0.000 C 
BRANCH  19  20
ATOM     20  O   UNL     1      38.552   5.238  15.549  0.00  0.00    +0.000 OA
BRANCH  20  21
ATOM     21  C   UNL     1      38.717   5.842  16.807  0.00  0.00    +0.000 A 
ATOM     22  C   UNL     1      39.595   5.336  17.733  0.00  0.00    +0.000 A 
ATOM     23  C   UNL     1      39.759   5.936  18.983  0.00  0.00    +0.000 A 
ATOM     24  C   UNL     1      39.042   7.049  19.316  0.00  0.00    +0.000 A 
ATOM     25  C   UNL     1      39.193   7.653  20.548  0.00  0.00    +0.000 A 
ATOM     26  C   UNL     1      38.463   8.764  20.853  0.00  0.00    +0.000 A 
ATOM     27  C   UNL     1      37.585   9.288  19.957  0.00  0.00    +0.000 A 
ATOM     28  C   UNL     1      37.443   8.677  18.729  0.00  0.00    +0.000 A 
ATOM     29  C   UNL     1      38.157   7.563  18.392  0.00  0.00    +0.000 A 
ATOM     30  C   UNL     1      37.994   6.964  17.141  0.00  0.00    +0.000 A 
ENDBRANCH  20  21
ENDBRANCH  19  20
ENDBRANCH  18  19
ENDBRANCH  17  18
ENDBRANCH   1  17
TORSDOF 9
ENDMDL
MODEL 2
REMARK VINA RESULT:      -8.0      2.693      8.261
REMARK  Name = 
REMARK  9 active torsions:
REMARK  status: ('A' for Active; 'I' for Inactive)
REMARK    1  A    between atoms: C_6  and  N_7
REMARK    2  A    between atoms: C_8  and  C_10
REMARK    3  A    between atoms: C_10  and  O_12
REMARK    4  A    between atoms: O_12  and  C_13
REMARK    5  A    between atoms: C_13  and  C_15
REMARK    6  A    between atoms: C_15  and  C_16
REMARK    7  A    between atoms: C_16  and  C_17
REMARK    8  A    between atoms: C_17  and  O_18
REMARK    9  A    between atoms: O_18  and  C_19
REMARK                            x       y       z     vdW  Elec       q    Type
REMARK                         _______ _______ _______ _____ _____    ______ ____
ROOT
ATOM      1  C   UNL     1      37.616   1.768  15.062  0.00  0.00    +0.000 C 
ATOM      2  O   UNL     1      38.190   0.653  15.017  0.00  0.00    +0.000 OA
ENDROOT
BRANCH   1   3
ATOM      3  O   UNL     1      38.325   2.697  15.863  0.00  0.00    +0.000 OA
BRANCH   3   4
ATOM      4  C   UNL     1      38.075   4.159  15.555  0.00  0.00    +0.000 C 
ATOM      5  C   UNL     1      39.464   4.375  14.702  0.00  0.00    +0.000 C 
BRANCH   4   7
ATOM      6  N   UNL     1      39.299   5.998  16.856  0.00  0.00    +0.000 NA
ATOM      7  C   UNL     1      38.677   4.731  16.909  0.00  0.00    +0.000 C 
ATOM      8  O   UNL     1      38.635   4.158  17.971  0.00  0.00    +0.000 OA
BRANCH   6  14
ATOM      9  C   UNL     1      43.280   7.264  19.381  0.00  0.00    +0.000 C 
ATOM     10  C   UNL     1      41.789   7.092  19.275  0.00  0.00    +0.000 A 
ATOM     11  C   UNL     1      41.047   7.420  20.374  0.00  0.00    +0.000 A 
ATOM     12  C   UNL     1      39.670   7.278  20.326  0.00  0.00    +0.000 A 
ATOM     13  C   UNL     1      39.075   6.810  19.173  0.00  0.00    +0.000 A 
ATOM     14  C   UNL     1      39.825   6.484  18.075  0.00  0.00    +0.000 A 
ATOM     15  C   UNL     1      41.204   6.630  18.136  0.00  0.00    +0.000 A 
ATOM     16  C   UNL     1      42.078   6.294  16.981  0.00  0.00    +0.000 C 
ENDBRANCH   6  14
ENDBRANCH   4   7
ENDBRANCH   3   4
ENDBRANCH   1   3
BRANCH   1  17
ATOM     17  C   UNL     1      36.397   2.184  14.430  0.00  0.00    +0.000 C 
BRANCH  17  18
ATOM     18  C   UNL     1      35.115   2.108  15.058  0.00  0.00    +0.000 C 
BRANCH  18  19
ATOM     19  C   UNL     1      34.925   1.937  16.492  0.00  0.00    +0.000 C 
BRANCH  19  20
ATOM     20  O   UNL     1      34.562   0.737  17.035  0.00  0.00    +0.000 OA
BRANCH  20  21
ATOM     21  C   UNL     1      35.386  -0.400  17.075  0.00  0.00    +0.000 A 
ATOM     22  C   UNL     1      35.421  -1.295  16.035  0.00  0.00    +0.000 A 
ATOM     23  C   UNL     1      36.241  -2.425  16.075  0.00  0.00    +0.000 A 
ATOM     24  C   UNL     1      37.032  -2.668  17.160  0.00  0.00    +0.000 A 
ATOM     25  C   UNL     1      37.847  -3.781  17.214  0.00  0.00    +0.000 A 
ATOM     26  C   UNL     1      38.627  -3.997  18.311  0.00  0.00    +0.000 A 
ATOM     27  C   UNL     1      38.615  -3.129  19.358  0.00  0.00    +0.000 A 
ATOM     28  C   UNL     1      37.798  -2.020  19.293  0.00  0.00    +0.000 A 
ATOM     29  C   UNL     1      37.003  -1.774  18.209  0.00  0.00    +0.000 A 
ATOM     30  C   UNL     1      36.185  -0.643  18.169  0.00  0.00    +0.000 A 
ENDBRANCH  20  21
ENDBRANCH  19  20
ENDBRANCH  18  19
ENDBRANCH  17  18
ENDBRANCH   1  17
TORSDOF 9
ENDMDL
MODEL 3
REMARK VINA RESULT:      -7.8      1.924      2.822
REMARK  Name = 
REMARK  9 active torsions:
REMARK  status: ('A' for Active; 'I' for Inactive)
REMARK    1  A    between atoms: C_6  and  N_7
REMARK    2  A    between atoms: C_8  and  C_10
REMARK    3  A    between atoms: C_10  and  O_12
REMARK    4  A    between atoms: O_12  and  C_13
REMARK    5  A    between atoms: C_13  and  C_15
REMARK    6  A    between atoms: C_15  and  C_16
REMARK    7  A    between atoms: C_16  and  C_17
REMARK    8  A    between atoms: C_17  and  O_18
REMARK    9  A    between atoms: O_18  and  C_19
REMARK                            x       y       z     vdW  Elec       q    Type
REMARK                         _______ _______ _______ _____ _____    ______ ____
ROOT
ATOM      1  C   UNL     1      37.573   2.879  15.082  0.00  0.00    +0.000 C 
ATOM      2  O   UNL     1      38.796   2.825  15.356  0.00  0.00    +0.000 OA
ENDROOT
BRANCH   1   3
ATOM      3  O   UNL     1      36.788   2.172  16.026  0.00  0.00    +0.000 OA
BRANCH   3   4
ATOM      4  C   UNL     1      35.678   1.316  15.449  0.00  0.00    +0.000 C 
ATOM      5  C   UNL     1      34.949   1.019  16.893  0.00  0.00    +0.000 C 
BRANCH   4   7
ATOM      6  N   UNL     1      37.547  -0.177  16.375  0.00  0.00    +0.000 NA
ATOM      7  C   UNL     1      36.492  -0.049  15.444  0.00  0.00    +0.000 C 
ATOM      8  O   UNL     1      36.266  -0.975  14.703  0.00  0.00    +0.000 OA
BRANCH   6  14
ATOM      9  C   UNL     1      41.264  -2.719  14.491  0.00  0.00    +0.000 C 
ATOM     10  C   UNL     1      40.075  -2.609  15.409  0.00  0.00    +0.000 A 
ATOM     11  C   UNL     1      39.763  -3.711  16.154  0.00  0.00    +0.000 A 
ATOM     12  C   UNL     1      38.678  -3.660  17.012  0.00  0.00    +0.000 A 
ATOM     13  C   UNL     1      37.934  -2.502  17.099  0.00  0.00    +0.000 A 
ATOM     14  C   UNL     1      38.253  -1.401  16.349  0.00  0.00    +0.000 A 
ATOM     15  C   UNL     1      39.343  -1.465  15.492  0.00  0.00    +0.000 A 
ATOM     16  C   UNL     1      39.744  -0.308  14.649  0.00  0.00    +0.000 C 
ENDBRANCH   6  14
ENDBRANCH   4   7
ENDBRANCH   3   4
ENDBRANCH   1   3
BRANCH   1  17
ATOM     17  C   UNL     1      36.919   3.537  13.988  0.00  0.00    +0.000 C 
BRANCH  17  18
ATOM     18  C   UNL     1      36.957   4.952  13.779  0.00  0.00    +0.000 C 
BRANCH  18  19
ATOM     19  C   UNL     1      37.350   5.910  14.804  0.00  0.00    +0.000 C 
BRANCH  19  20
ATOM     20  O   UNL     1      38.662   6.182  15.073  0.00  0.00    +0.000 OA
BRANCH  20  21
ATOM     21  C   UNL     1      39.225   6.191  16.360  0.00  0.00    +0.000 A 
ATOM     22  C   UNL     1      38.459   5.973  17.477  0.00  0.00    +0.000 A 
ATOM     23  C   UNL     1      39.019   5.981  18.756  0.00  0.00    +0.000 A 
ATOM     24  C   UNL     1      40.354   6.209  18.926  0.00  0.00    +0.000 A 
ATOM     25  C   UNL     1      40.923   6.221  20.183  0.00  0.00    +0.000 A 
ATOM     26  C   UNL     1      42.259   6.451  20.321  0.00  0.00    +0.000 A 
ATOM     27  C   UNL     1      43.045   6.670  19.234  0.00  0.00    +0.000 A 
ATOM     28  C   UNL     1      42.467   6.656  17.982  0.00  0.00    +0.000 A 
ATOM     29  C   UNL     1      41.132   6.429  17.808  0.00  0.00    +0.000 A 
ATOM     30  C   UNL     1      40.572   6.420  16.529  0.00  0.00    +0.000 A 
ENDBRANCH  20  21
ENDBRANCH  19  20
ENDBRANCH  18  19
ENDBRANCH  17  18
ENDBRANCH   1  17
TORSDOF 9
ENDMDL
MODEL 4
REMARK VINA RESULT:      -7.7      3.030      8.854
REMARK  Name = 
REMARK  9 active torsions:
REMARK  status: ('A' for Active; 'I' for Inactive)
REMARK    1  A    between atoms: C_6  and  N_7
REMARK    2  A    between atoms: C_8  and  C_10
REMARK    3  A    between atoms: C_10  and  O_12
REMARK    4  A    between atoms: O_12  and  C_13
REMARK    5  A    between atoms: C_13  and  C_15
REMARK    6  A    between atoms: C_15  and  C_16
REMARK    7  A    between atoms: C_16  and  C_17
REMARK    8  A    between atoms: C_17  and  O_18
REMARK    9  A    between atoms: O_18  and  C_19
REMARK                            x       y       z     vdW  Elec       q    Type
REMARK                         _______ _______ _______ _____ _____    ______ ____
ROOT
ATOM      1  C   UNL     1      37.176   2.013  15.139  0.00  0.00    +0.000 C 
ATOM      2  O   UNL     1      37.752   1.159  14.424  0.00  0.00    +0.000 OA
ENDROOT
BRANCH   1   3
ATOM      3  O   UNL     1      38.087   2.959  15.671  0.00  0.00    +0.000 OA
BRANCH   3   4
ATOM      4  C   UNL     1      37.534   4.352  15.895  0.00  0.00    +0.000 C 
ATOM      5  C   UNL     1      38.477   5.076  14.759  0.00  0.00    +0.000 C 
BRANCH   4   7
ATOM      6  N   UNL     1      39.204   5.948  17.009  0.00  0.00    +0.000 NA
ATOM      7  C   UNL     1      38.492   4.731  17.104  0.00  0.00    +0.000 C 
ATOM      8  O   UNL     1      38.648   4.051  18.090  0.00  0.00    +0.000 OA
BRANCH   6  14
ATOM      9  C   UNL     1      43.738   6.938  18.521  0.00  0.00    +0.000 C 
ATOM     10  C   UNL     1      42.272   6.739  18.799  0.00  0.00    +0.000 A 
ATOM     11  C   UNL     1      41.862   6.877  20.095  0.00  0.00    +0.000 A 
ATOM     12  C   UNL     1      40.524   6.702  20.401  0.00  0.00    +0.000 A 
ATOM     13  C   UNL     1      39.630   6.396  19.397  0.00  0.00    +0.000 A 
ATOM     14  C   UNL     1      40.048   6.260  18.099  0.00  0.00    +0.000 A 
ATOM     15  C   UNL     1      41.393   6.436  17.805  0.00  0.00    +0.000 A 
ATOM     16  C   UNL     1      41.914   6.303  16.419  0.00  0.00    +0.000 C 
ENDBRANCH   6  14
ENDBRANCH   4   7
ENDBRANCH   3   4
ENDBRANCH   1   3
BRANCH   1  17
ATOM     17  C   UNL     1      35.783   2.134  15.460  0.00  0.00    +0.000 C 
BRANCH  17  18
ATOM     18  C   UNL     1      35.184   1.545  16.618  0.00  0.00    +0.000 C 
BRANCH  18  19
ATOM     19  C   UNL     1      35.941   1.082  17.773  0.00  0.00    +0.000 C 
BRANCH  19  20
ATOM     20  O   UNL     1      36.553  -0.140  17.793  0.00  0.00    +0.000 OA
BRANCH  20  21
ATOM     21  C   UNL     1      36.232  -1.205  16.934  0.00  0.00    +0.000 A 
ATOM     22  C   UNL     1      37.154  -1.718  16.057  0.00  0.00    +0.000 A 
ATOM     23  C   UNL     1      36.836  -2.776  15.204  0.00  0.00    +0.000 A 
ATOM     24  C   UNL     1      35.588  -3.329  15.222  0.00  0.00    +0.000 A 
ATOM     25  C   UNL     1      35.258  -4.375  14.384  0.00  0.00    +0.000 A 
ATOM     26  C   UNL     1      34.003  -4.906  14.425  0.00  0.00    +0.000 A 
ATOM     27  C   UNL     1      33.067  -4.420  15.283  0.00  0.00    +0.000 A 
ATOM     28  C   UNL     1      33.408  -3.375  16.116  0.00  0.00    +0.000 A 
ATOM     29  C   UNL     1      34.655  -2.819  16.101  0.00  0.00    +0.000 A 
ATOM     30  C   UNL     1      34.974  -1.761  16.955  0.00  0.00    +0.000 A 
ENDBRANCH  20  21
ENDBRANCH  19  20
ENDBRANCH  18  19
ENDBRANCH  17  18
ENDBRANCH   1  17
TORSDOF 9
ENDMDL
MODEL 5
REMARK VINA RESULT:      -7.5      2.542      7.864
REMARK  Name = 
REMARK  9 active torsions:
REMARK  status: ('A' for Active; 'I' for Inactive)
REMARK    1  A    between atoms: C_6  and  N_7
REMARK    2  A    between atoms: C_8  and  C_10
REMARK    3  A    between atoms: C_10  and  O_12
REMARK    4  A    between atoms: O_12  and  C_13
REMARK    5  A    between atoms: C_13  and  C_15
REMARK    6  A    between atoms: C_15  and  C_16
REMARK    7  A    between atoms: C_16  and  C_17
REMARK    8  A    between atoms: C_17  and  O_18
REMARK    9  A    between atoms: O_18  and  C_19
REMARK                            x       y       z     vdW  Elec       q    Type
REMARK                         _______ _______ _______ _____ _____    ______ ____
ROOT
ATOM      1  C   UNL     1      38.925   2.723  14.220  0.00  0.00    +0.000 C 
ATOM      2  O   UNL     1      39.538   1.991  15.033  0.00  0.00    +0.000 OA
ENDROOT
BRANCH   1   3
ATOM      3  O   UNL     1      38.776   4.046  14.706  0.00  0.00    +0.000 OA
BRANCH   3   4
ATOM      4  C   UNL     1      37.571   4.289  15.592  0.00  0.00    +0.000 C 
ATOM      5  C   UNL     1      37.297   5.821  15.060  0.00  0.00    +0.000 C 
BRANCH   4   7
ATOM      6  N   UNL     1      38.914   6.063  16.867  0.00  0.00    +0.000 NA
ATOM      7  C   UNL     1      38.386   4.753  16.875  0.00  0.00    +0.000 C 
ATOM      8  O   UNL     1      38.579   4.064  17.847  0.00  0.00    +0.000 OA
BRANCH   6  14
ATOM      9  C   UNL     1      43.278   6.968  18.857  0.00  0.00    +0.000 C 
ATOM     10  C   UNL     1      41.779   6.883  18.956  0.00  0.00    +0.000 A 
ATOM     11  C   UNL     1      41.219   7.188  20.164  0.00  0.00    +0.000 A 
ATOM     12  C   UNL     1      39.843   7.123  20.306  0.00  0.00    +0.000 A 
ATOM     13  C   UNL     1      39.065   6.754  19.229  0.00  0.00    +0.000 A 
ATOM     14  C   UNL     1      39.633   6.451  18.020  0.00  0.00    +0.000 A 
ATOM     15  C   UNL     1      41.013   6.518  17.891  0.00  0.00    +0.000 A 
ATOM     16  C   UNL     1      41.695   6.201  16.608  0.00  0.00    +0.000 C 
ENDBRANCH   6  14
ENDBRANCH   4   7
ENDBRANCH   3   4
ENDBRANCH   1   3
BRANCH   1  17
ATOM     17  C   UNL     1      38.390   2.393  12.930  0.00  0.00    +0.000 C 
BRANCH  17  18
ATOM     18  C   UNL     1      37.070   1.883  12.728  0.00  0.00    +0.000 C 
BRANCH  18  19
ATOM     19  C   UNL     1      36.711   0.480  12.888  0.00  0.00    +0.000 C 
BRANCH  19  20
ATOM     20  O   UNL     1      37.629  -0.462  13.263  0.00  0.00    +0.000 OA
BRANCH  20  21
ATOM     21  C   UNL     1      37.803  -0.924  14.577  0.00  0.00    +0.000 A 
ATOM     22  C   UNL     1      38.837  -1.764  14.909  0.00  0.00    +0.000 A 
ATOM     23  C   UNL     1      39.010  -2.224  16.216  0.00  0.00    +0.000 A 
ATOM     24  C   UNL     1      38.147  -1.845  17.203  0.00  0.00    +0.000 A 
ATOM     25  C   UNL     1      38.305  -2.291  18.499  0.00  0.00    +0.000 A 
ATOM     26  C   UNL     1      37.428  -1.895  19.465  0.00  0.00    +0.000 A 
ATOM     27  C   UNL     1      36.393  -1.064  19.168  0.00  0.00    +0.000 A 
ATOM     28  C   UNL     1      36.245  -0.624  17.870  0.00  0.00    +0.000 A 
ATOM     29  C   UNL     1      37.106  -1.001  16.879  0.00  0.00    +0.000 A 
ATOM     30  C   UNL     1      36.932  -0.541  15.572  0.00  0.00    +0.000 A 
ENDBRANCH  20  21
ENDBRANCH  19  20
ENDBRANCH  18  19
ENDBRANCH  17  18
ENDBRANCH   1  17
TORSDOF 9
ENDMDL
MODEL 6
REMARK VINA RESULT:      -7.5      2.342      8.364
REMARK  Name = 
REMARK  9 active torsions:
REMARK  status: ('A' for Active; 'I' for Inactive)
REMARK    1  A    between atoms: C_6  and  N_7
REMARK    2  A    between atoms: C_8  and  C_10
REMARK    3  A    between atoms: C_10  and  O_12
REMARK    4  A    between atoms: O_12  and  C_13
REMARK    5  A    between atoms: C_13  and  C_15
REMARK    6  A    between atoms: C_15  and  C_16
REMARK    7  A    between atoms: C_16  and  C_17
REMARK    8  A    between atoms: C_17  and  O_18
REMARK    9  A    between atoms: O_18  and  C_19
REMARK                            x       y       z     vdW  Elec       q    Type
REMARK                         _______ _______ _______ _____ _____    ______ ____
ROOT
ATOM      1  C   UNL     1      36.440   2.924  14.118  0.00  0.00    +0.000 C 
ATOM      2  O   UNL     1      36.690   1.949  13.370  0.00  0.00    +0.000 OA
ENDROOT
BRANCH   1   3
ATOM      3  O   UNL     1      37.619   3.603  14.514  0.00  0.00    +0.000 OA
BRANCH   3   4
ATOM      4  C   UNL     1      37.550   5.116  14.481  0.00  0.00    +0.000 C 
ATOM      5  C   UNL     1      39.076   5.326  13.906  0.00  0.00    +0.000 C 
BRANCH   4   7
ATOM      6  N   UNL     1      38.645   6.542  16.310  0.00  0.00    +0.000 NA
ATOM      7  C   UNL     1      37.963   5.345  15.998  0.00  0.00    +0.000 C 
ATOM      8  O   UNL     1      37.731   4.568  16.893  0.00  0.00    +0.000 OA
BRANCH   6  14
ATOM      9  C   UNL     1      37.898   9.031  20.441  0.00  0.00    +0.000 C 
ATOM     10  C   UNL     1      38.607   7.956  19.663  0.00  0.00    +0.000 A 
ATOM     11  C   UNL     1      39.550   7.227  20.330  0.00  0.00    +0.000 A 
ATOM     12  C   UNL     1      40.231   6.227  19.657  0.00  0.00    +0.000 A 
ATOM     13  C   UNL     1      39.946   5.985  18.329  0.00  0.00    +0.000 A 
ATOM     14  C   UNL     1      38.999   6.721  17.667  0.00  0.00    +0.000 A 
ATOM     15  C   UNL     1      38.324   7.720  18.352  0.00  0.00    +0.000 A 
ATOM     16  C   UNL     1      37.285   8.556  17.694  0.00  0.00    +0.000 C 
ENDBRANCH   6  14
ENDBRANCH   4   7
ENDBRANCH   3   4
ENDBRANCH   1   3
BRANCH   1  17
ATOM     17  C   UNL     1      35.172   3.402  14.589  0.00  0.00    +0.000 C 
BRANCH  17  18
ATOM     18  C   UNL     1      34.569   2.971  15.812  0.00  0.00    +0.000 C 
BRANCH  18  19
ATOM     19  C   UNL     1      34.696   1.621  16.345  0.00  0.00    +0.000 C 
BRANCH  19  20
ATOM     20  O   UNL     1      35.352   1.365  17.516  0.00  0.00    +0.000 OA
BRANCH  20  21
ATOM     21  C   UNL     1      36.116   0.213  17.765  0.00  0.00    +0.000 A 
ATOM     22  C   UNL     1      36.211  -0.323  19.025  0.00  0.00    +0.000 A 
ATOM     23  C   UNL     1      36.970  -1.469  19.273  0.00  0.00    +0.000 A 
ATOM     24  C   UNL     1      37.642  -2.087  18.258  0.00  0.00    +0.000 A 
ATOM     25  C   UNL     1      38.397  -3.219  18.487  0.00  0.00    +0.000 A 
ATOM     26  C   UNL     1      39.056  -3.815  17.453  0.00  0.00    +0.000 A 
ATOM     27  C   UNL     1      38.982  -3.308  16.193  0.00  0.00    +0.000 A 
ATOM     28  C   UNL     1      38.224  -2.177  15.976  0.00  0.00    +0.000 A 
ATOM     29  C   UNL     1      37.552  -1.555  16.989  0.00  0.00    +0.000 A 
ATOM     30  C   UNL     1      36.792  -0.410  16.741  0.00  0.00    +0.000 A 
ENDBRANCH  20  21
ENDBRANCH  19  20
ENDBRANCH  18  19
ENDBRANCH  17  18
ENDBRANCH   1  17
TORSDOF 9
ENDMDL
MODEL 7
REMARK VINA RESULT:      -7.5      4.546      5.878
REMARK  Name = 
REMARK  9 active torsions:
REMARK  status: ('A' for Active; 'I' for Inactive)
REMARK    1  A    between atoms: C_6  and  N_7
REMARK    2  A    between atoms: C_8  and  C_10
REMARK    3  A    between atoms: C_10  and  O_12
REMARK    4  A    between atoms: O_12  and  C_13
REMARK    5  A    between atoms: C_13  and  C_15
REMARK    6  A    between atoms: C_15  and  C_16
REMARK    7  A    between atoms: C_16  and  C_17
REMARK    8  A    between atoms: C_17  and  O_18
REMARK    9  A    between atoms: O_18  and  C_19
REMARK                            x       y       z     vdW  Elec       q    Type
REMARK                         _______ _______ _______ _____ _____    ______ ____
ROOT
ATOM      1  C   UNL     1      35.126   6.744  13.022  0.00  0.00    +0.000 C 
ATOM      2  O   UNL     1      35.307   6.163  11.925  0.00  0.00    +0.000 OA
ENDROOT
BRANCH   1   3
ATOM      3  O   UNL     1      36.005   6.266  14.026  0.00  0.00    +0.000 OA
BRANCH   3   4
ATOM      4  C   UNL     1      36.487   4.840  13.854  0.00  0.00    +0.000 C 
ATOM      5  C   UNL     1      35.241   4.157  14.681  0.00  0.00    +0.000 C 
BRANCH   4   7
ATOM      6  N   UNL     1      37.890   6.089  15.600  0.00  0.00    +0.000 NA
ATOM      7  C   UNL     1      37.473   4.835  15.100  0.00  0.00    +0.000 C 
ATOM      8  O   UNL     1      37.883   3.837  15.642  0.00  0.00    +0.000 OA
BRANCH   6  14
ATOM      9  C   UNL     1      42.457   6.661  17.227  0.00  0.00    +0.000 C 
ATOM     10  C   UNL     1      41.004   6.343  17.465  0.00  0.00    +0.000 A 
ATOM     11  C   UNL     1      40.638   6.042  18.746  0.00  0.00    +0.000 A 
ATOM     12  C   UNL     1      39.313   5.742  19.016  0.00  0.00    +0.000 A 
ATOM     13  C   UNL     1      38.391   5.752  17.991  0.00  0.00    +0.000 A 
ATOM     14  C   UNL     1      38.766   6.055  16.709  0.00  0.00    +0.000 A 
ATOM     15  C   UNL     1      40.097   6.354  16.451  0.00  0.00    +0.000 A 
ATOM     16  C   UNL     1      40.572   6.691  15.083  0.00  0.00    +0.000 C 
ENDBRANCH   6  14
ENDBRANCH   4   7
ENDBRANCH   3   4
ENDBRANCH   1   3
BRANCH   1  17
ATOM     17  C   UNL     1      34.188   7.777  13.355  0.00  0.00    +0.000 C 
BRANCH  17  18
ATOM     18  C   UNL     1      33.856   8.142  14.697  0.00  0.00    +0.000 C 
BRANCH  18  19
ATOM     19  C   UNL     1      34.574   9.154  15.461  0.00  0.00    +0.000 C 
BRANCH  19  20
ATOM     20  O   UNL     1      35.887   9.447  15.217  0.00  0.00    +0.000 OA
BRANCH  20  21
ATOM     21  C   UNL     1      36.892   9.473  16.198  0.00  0.00    +0.000 A 
ATOM     22  C   UNL     1      38.184   9.818  15.889  0.00  0.00    +0.000 A 
ATOM     23  C   UNL     1      39.183   9.844  16.864  0.00  0.00    +0.000 A 
ATOM     24  C   UNL     1      38.895   9.524  18.159  0.00  0.00    +0.000 A 
ATOM     25  C   UNL     1      39.872   9.545  19.134  0.00  0.00    +0.000 A 
ATOM     26  C   UNL     1      39.554   9.220  20.419  0.00  0.00    +0.000 A 
ATOM     27  C   UNL     1      38.283   8.874  20.757  0.00  0.00    +0.000 A 
ATOM     28  C   UNL     1      37.315   8.857  19.775  0.00  0.00    +0.000 A 
ATOM     29  C   UNL     1      37.599   9.176  18.478  0.00  0.00    +0.000 A 
ATOM     30  C   UNL     1      36.600   9.151  17.503  0.00  0.00    +0.000 A 
ENDBRANCH  20  21
ENDBRANCH  19  20
ENDBRANCH  18  19
ENDBRANCH  17  18
ENDBRANCH   1  17
TORSDOF 9
ENDMDL
MODEL 8
REMARK VINA RESULT:      -7.5      4.611      8.094
REMARK  Name = 
REMARK  9 active torsions:
REMARK  status: ('A' for Active; 'I' for Inactive)
REMARK    1  A    between atoms: C_6  and  N_7
REMARK    2  A    between atoms: C_8  and  C_10
REMARK    3  A    between atoms: C_10  and  O_12
REMARK    4  A    between atoms: O_12  and  C_13
REMARK    5  A    between atoms: C_13  and  C_15
REMARK    6  A    between atoms: C_15  and  C_16
REMARK    7  A    between atoms: C_16  and  C_17
REMARK    8  A    between atoms: C_17  and  O_18
REMARK    9  A    between atoms: O_18  and  C_19
REMARK                            x       y       z     vdW  Elec       q    Type
REMARK                         _______ _______ _______ _____ _____    ______ ____
ROOT
ATOM      1  C   UNL     1      35.044   7.576  14.131  0.00  0.00    +0.000 C 
ATOM      2  O   UNL     1      33.797   7.604  14.258  0.00  0.00    +0.000 OA
ENDROOT
BRANCH   1   3
ATOM      3  O   UNL     1      35.696   8.339  15.131  0.00  0.00    +0.000 OA
BRANCH   3   4
ATOM      4  C   UNL     1      34.879   9.462  15.739  0.00  0.00    +0.000 C 
ATOM      5  C   UNL     1      35.563  10.654  14.838  0.00  0.00    +0.000 C 
BRANCH   4   7
ATOM      6  N   UNL     1      36.836   8.753  17.238  0.00  0.00    +0.000 NA
ATOM      7  C   UNL     1      35.822   9.706  16.995  0.00  0.00    +0.000 C 
ATOM      8  O   UNL     1      35.727  10.647  17.746  0.00  0.00    +0.000 OA
BRANCH   6  14
ATOM      9  C   UNL     1      41.144  10.354  18.883  0.00  0.00    +0.000 C 
ATOM     10  C   UNL     1      39.772   9.784  19.125  0.00  0.00    +0.000 A 
ATOM     11  C   UNL     1      39.422   9.540  20.423  0.00  0.00    +0.000 A 
ATOM     12  C   UNL     1      38.171   9.014  20.697  0.00  0.00    +0.000 A 
ATOM     13  C   UNL     1      37.302   8.748  19.659  0.00  0.00    +0.000 A 
ATOM     14  C   UNL     1      37.660   8.996  18.361  0.00  0.00    +0.000 A 
ATOM     15  C   UNL     1      38.917   9.522  18.099  0.00  0.00    +0.000 A 
ATOM     16  C   UNL     1      39.370   9.814  16.713  0.00  0.00    +0.000 C 
ENDBRANCH   6  14
ENDBRANCH   4   7
ENDBRANCH   3   4
ENDBRANCH   1   3
BRANCH   1  17
ATOM     17  C   UNL     1      35.838   6.896  13.148  0.00  0.00    +0.000 C 
BRANCH  17  18
ATOM     18  C   UNL     1      36.289   5.547  13.290  0.00  0.00    +0.000 C 
BRANCH  18  19
ATOM     19  C   UNL     1      36.106   4.756  14.501  0.00  0.00    +0.000 C 
BRANCH  19  20
ATOM     20  O   UNL     1      37.140   4.078  15.084  0.00  0.00    +0.000 OA
BRANCH  20  21
ATOM     21  C   UNL     1      38.234   4.689  15.719  0.00  0.00    +0.000 A 
ATOM     22  C   UNL     1      39.322   5.125  15.005  0.00  0.00    +0.000 A 
ATOM     23  C   UNL     1      40.410   5.732  15.636  0.00  0.00    +0.000 A 
ATOM     24  C   UNL     1      40.416   5.905  16.990  0.00  0.00    +0.000 A 
ATOM     25  C   UNL     1      41.484   6.503  17.628  0.00  0.00    +0.000 A 
ATOM     26  C   UNL     1      41.462   6.664  18.982  0.00  0.00    +0.000 A 
ATOM     27  C   UNL     1      40.398   6.242  19.717  0.00  0.00    +0.000 A 
ATOM     28  C   UNL     1      39.337   5.647  19.069  0.00  0.00    +0.000 A 
ATOM     29  C   UNL     1      39.327   5.470  17.715  0.00  0.00    +0.000 A 
ATOM     30  C   UNL     1      38.238   4.864  17.084  0.00  0.00    +0.000 A 
ENDBRANCH  20  21
ENDBRANCH  19  20
ENDBRANCH  18  19
ENDBRANCH  17  18
ENDBRANCH   1  17
TORSDOF 9
ENDMDL
MODEL 9
REMARK VINA RESULT:      -7.4      1.968      3.623
REMARK  Name = 
REMARK  9 active torsions:
REMARK  status: ('A' for Active; 'I' for Inactive)
REMARK    1  A    between atoms: C_6  and  N_7
REMARK    2  A    between atoms: C_8  and  C_10
REMARK    3  A    between atoms: C_10  and  O_12
REMARK    4  A    between atoms: O_12  and  C_13
REMARK    5  A    between atoms: C_13  and  C_15
REMARK    6  A    between atoms: C_15  and  C_16
REMARK    7  A    between atoms: C_16  and  C_17
REMARK    8  A    between atoms: C_17  and  O_18
REMARK    9  A    between atoms: O_18  and  C_19
REMARK                            x       y       z     vdW  Elec       q    Type
REMARK                         _______ _______ _______ _____ _____    ______ ____
ROOT
ATOM      1  C   UNL     1      37.248   3.288  13.031  0.00  0.00    +0.000 C 
ATOM      2  O   UNL     1      37.536   3.685  11.877  0.00  0.00    +0.000 OA
ENDROOT
BRANCH   1   3
ATOM      3  O   UNL     1      37.121   1.878  13.091  0.00  0.00    +0.000 OA
BRANCH   3   4
ATOM      4  C   UNL     1      38.404   1.093  12.903  0.00  0.00    +0.000 C 
ATOM      5  C   UNL     1      37.678  -0.233  12.256  0.00  0.00    +0.000 C 
BRANCH   4   7
ATOM      6  N   UNL     1      37.485  -0.470  14.716  0.00  0.00    +0.000 NA
ATOM      7  C   UNL     1      38.460   0.492  14.373  0.00  0.00    +0.000 C 
ATOM      8  O   UNL     1      39.277   0.802  15.206  0.00  0.00    +0.000 OA
BRANCH   6  14
ATOM      9  C   UNL     1      35.688  -0.394  19.254  0.00  0.00    +0.000 C 
ATOM     10  C   UNL     1      36.656  -0.924  18.231  0.00  0.00    +0.000 A 
ATOM     11  C   UNL     1      37.544  -1.874  18.650  0.00  0.00    +0.000 A 
ATOM     12  C   UNL     1      38.456  -2.392  17.746  0.00  0.00    +0.000 A 
ATOM     13  C   UNL     1      38.451  -1.941  16.443  0.00  0.00    +0.000 A 
ATOM     14  C   UNL     1      37.559  -0.988  16.029  0.00  0.00    +0.000 A 
ATOM     15  C   UNL     1      36.650  -0.477  16.945  0.00  0.00    +0.000 A 
ATOM     16  C   UNL     1      35.654   0.560  16.564  0.00  0.00    +0.000 C 
ENDBRANCH   6  14
ENDBRANCH   4   7
ENDBRANCH   3   4
ENDBRANCH   1   3
BRANCH   1  17
ATOM     17  C   UNL     1      37.046   4.055  14.227  0.00  0.00    +0.000 C 
BRANCH  17  18
ATOM     18  C   UNL     1      37.663   3.744  15.479  0.00  0.00    +0.000 C 
BRANCH  18  19
ATOM     19  C   UNL     1      38.686   4.572  16.105  0.00  0.00    +0.000 C 
BRANCH  19  20
ATOM     20  O   UNL     1      38.953   4.502  17.444  0.00  0.00    +0.000 OA
BRANCH  20  21
ATOM     21  C   UNL     1      39.046   5.615  18.296  0.00  0.00    +0.000 A 
ATOM     22  C   UNL     1      40.027   5.704  19.250  0.00  0.00    +0.000 A 
ATOM     23  C   UNL     1      40.120   6.811  20.097  0.00  0.00    +0.000 A 
ATOM     24  C   UNL     1      39.227   7.838  19.994  0.00  0.00    +0.000 A 
ATOM     25  C   UNL     1      39.305   8.938  20.824  0.00  0.00    +0.000 A 
ATOM     26  C   UNL     1      38.399   9.948  20.697  0.00  0.00    +0.000 A 
ATOM     27  C   UNL     1      37.414   9.889  19.761  0.00  0.00    +0.000 A 
ATOM     28  C   UNL     1      37.346   8.786  18.937  0.00  0.00    +0.000 A 
ATOM     29  C   UNL     1      38.237   7.756  19.037  0.00  0.00    +0.000 A 
ATOM     30  C   UNL     1      38.145   6.650  18.190  0.00  0.00    +0.000 A 
ENDBRANCH  20  21
ENDBRANCH  19  20
ENDBRANCH  18  19
ENDBRANCH  17  18
ENDBRANCH   1  17
TORSDOF 9
ENDMDL
MODEL 10
REMARK VINA RESULT:      -7.4      2.411      4.238
REMARK  Name = 
REMARK  9 active torsions:
REMARK  status: ('A' for Active; 'I' for Inactive)
REMARK    1  A    between atoms: C_6  and  N_7
REMARK    2  A    between atoms: C_8  and  C_10
REMARK    3  A    between atoms: C_10  and  O_12
REMARK    4  A    between atoms: O_12  and  C_13
REMARK    5  A    between atoms: C_13  and  C_15
REMARK    6  A    between atoms: C_15  and  C_16
REMARK    7  A    between atoms: C_16  and  C_17
REMARK    8  A    between atoms: C_17  and  O_18
REMARK    9  A    between atoms: O_18  and  C_19
REMARK                            x       y       z     vdW  Elec       q    Type
REMARK                         _______ _______ _______ _____ _____    ______ ____
ROOT
ATOM      1  C   UNL     1      37.287   2.040  12.514  0.00  0.00    +0.000 C 
ATOM      2  O   UNL     1      37.221   2.308  11.291  0.00  0.00    +0.000 OA
ENDROOT
BRANCH   1   3
ATOM      3  O   UNL     1      37.474   0.654  12.743  0.00  0.00    +0.000 OA
BRANCH   3   4
ATOM      4  C   UNL     1      38.911   0.200  12.899  0.00  0.00    +0.000 C 
ATOM      5  C   UNL     1      38.637  -1.346  12.409  0.00  0.00    +0.000 C 
BRANCH   4   7
ATOM      6  N   UNL     1      37.781  -1.014  14.855  0.00  0.00    +0.000 NA
ATOM      7  C   UNL     1      38.820  -0.149  14.446  0.00  0.00    +0.000 C 
ATOM      8  O   UNL     1      39.576   0.275  15.287  0.00  0.00    +0.000 OA
BRANCH   6  14
ATOM      9  C   UNL     1      35.500  -0.271  19.106  0.00  0.00    +0.000 C 
ATOM     10  C   UNL     1      36.586  -0.921  18.291  0.00  0.00    +0.000 A 
ATOM     11  C   UNL     1      37.444  -1.753  18.952  0.00  0.00    +0.000 A 
ATOM     12  C   UNL     1      38.460  -2.374  18.247  0.00  0.00    +0.000 A 
ATOM     13  C   UNL     1      38.588  -2.143  16.893  0.00  0.00    +0.000 A 
ATOM     14  C   UNL     1      37.723  -1.308  16.236  0.00  0.00    +0.000 A 
ATOM     15  C   UNL     1      36.709  -0.691  16.955  0.00  0.00    +0.000 A 
ATOM     16  C   UNL     1      35.737   0.228  16.305  0.00  0.00    +0.000 C 
ENDBRANCH   6  14
ENDBRANCH   4   7
ENDBRANCH   3   4
ENDBRANCH   1   3
BRANCH   1  17
ATOM     17  C   UNL     1      37.202   2.924  13.641  0.00  0.00    +0.000 C 
BRANCH  17  18
ATOM     18  C   UNL     1      38.265   3.790  14.049  0.00  0.00    +0.000 C 
BRANCH  18  19
ATOM     19  C   UNL     1      38.735   3.902  15.423  0.00  0.00    +0.000 C 
BRANCH  19  20
ATOM     20  O   UNL     1      38.513   5.022  16.174  0.00  0.00    +0.000 OA
BRANCH  20  21
ATOM     21  C   UNL     1      39.382   5.499  17.169  0.00  0.00    +0.000 A 
ATOM     22  C   UNL     1      38.972   5.632  18.472  0.00  0.00    +0.000 A 
ATOM     23  C   UNL     1      39.836   6.106  19.462  0.00  0.00    +0.000 A 
ATOM     24  C   UNL     1      41.119   6.451  19.152  0.00  0.00    +0.000 A 
ATOM     25  C   UNL     1      41.985   6.921  20.119  0.00  0.00    +0.000 A 
ATOM     26  C   UNL     1      43.262   7.258  19.781  0.00  0.00    +0.000 A 
ATOM     27  C   UNL     1      43.698   7.137  18.499  0.00  0.00    +0.000 A 
ATOM     28  C   UNL     1      42.825   6.666  17.541  0.00  0.00    +0.000 A 
ATOM     29  C   UNL     1      41.539   6.320  17.845  0.00  0.00    +0.000 A 
ATOM     30  C   UNL     1      40.676   5.846  16.856  0.00  0.00    +0.000 A 
ENDBRANCH  20  21
ENDBRANCH  19  20
ENDBRANCH  18  19
ENDBRANCH  17  18
ENDBRANCH   1  17
TORSDOF 9
ENDMDL
