MODEL 1
REMARK VINA RESULT:      -7.5      0.000      0.000
REMARK  Name = 
REMARK  8 active torsions:
REMARK  status: ('A' for Active; 'I' for Inactive)
REMARK    1  A    between atoms: C_2  and  C_3
REMARK    2  A    between atoms: C_3  and  C_6
REMARK    3  A    between atoms: C_9  and  O_10
REMARK    4  A    between atoms: O_10  and  C_11
REMARK    5  A    between atoms: C_14  and  N_15
REMARK    6  A    between atoms: C_16  and  C_18
REMARK    7  A    between atoms: C_18  and  S_19
REMARK    8  A    between atoms: S_19  and  C_20
REMARK                            x       y       z     vdW  Elec       q    Type
REMARK                         _______ _______ _______ _____ _____    ______ ____
ROOT
ATOM      1  C   UNL     1      37.950   2.898  14.961  0.00  0.00    +0.000 A 
ATOM      2  C   UNL     1      39.219   2.519  14.726  0.00  0.00    +0.000 A 
ATOM      3  C   UNL     1      39.520   1.166  14.581  0.00  0.00    +0.000 A 
ATOM      4  C   UNL     1      38.593   0.225  14.665  0.00  0.00    +0.000 A 
ATOM      5  C   UNL     1      37.250   0.625  14.915  0.00  0.00    +0.000 A 
ATOM      6  C   UNL     1      36.971   1.954  15.053  0.00  0.00    +0.000 A 
ENDROOT
BRANCH   4   7
ATOM      7  N   UNL     1      38.746  -1.210  14.584  0.00  0.00    +0.000 NA
ATOM      8  C   UNL     1      38.805  -1.867  15.919  0.00  0.00    +0.000 C 
ATOM      9  O   UNL     1      38.669  -1.044  16.867  0.00  0.00    +0.000 OA
BRANCH   8  10
ATOM     10  C   UNL     1      38.970  -3.240  16.188  0.00  0.00    +0.000 C 
BRANCH  10  11
ATOM     11  S   UNL     1      37.793  -4.392  16.626  0.00  0.00    +0.000 S 
BRANCH  11  12
ATOM     12  C   UNL     1      36.112  -4.272  16.099  0.00  0.00    +0.000 A 
ATOM     13  C   UNL     1      35.673  -5.122  15.092  0.00  0.00    +0.000 A 
ATOM     14  C   UNL     1      34.412  -5.004  14.609  0.00  0.00    +0.000 A 
ATOM     15  C   UNL     1      33.624  -4.016  15.181  0.00  0.00    +0.000 A 
ATOM     16  C   UNL     1      34.042  -3.164  16.191  0.00  0.00    +0.000 A 
ATOM     17  N   UNL     1      35.274  -3.322  16.610  0.00  0.00    +0.000 N 
ATOM     18  O   UNL     1      35.812  -2.510  17.614  0.00  0.00    +0.000 OA
ENDBRANCH  11  12
ENDBRANCH  10  11
ENDBRANCH   8  10
ENDBRANCH   4   7
BRANCH   1  19
ATOM     19  O   UNL     1      37.502   4.236  15.162  0.00  0.00    +0.000 OA
BRANCH  19  23
ATOM     20  C   UNL     1      39.627   6.200  18.239  0.00  0.00    +0.000 A 
ATOM     21  C   UNL     1      38.912   5.082  18.516  0.00  0.00    +0.000 A 
ATOM     22  C   UNL     1      38.199   4.403  17.511  0.00  0.00    +0.000 A 
ATOM     23  C   UNL     1      38.201   4.851  16.229  0.00  0.00    +0.000 A 
ATOM     24  C   UNL     1      38.943   6.004  15.942  0.00  0.00    +0.000 A 
ATOM     25  C   UNL     1      39.643   6.663  16.923  0.00  0.00    +0.000 A 
BRANCH  20  26
ATOM     26  C   UNL     1      40.316   7.059  19.281  0.00  0.00    +0.000 C 
ATOM     27  C   UNL     1      41.362   6.193  19.988  0.00  0.00    +0.000 C 
ATOM     28  C   UNL     1      40.859   8.308  18.713  0.00  0.00    +0.000 C 
BRANCH  26  30
ATOM     29  C   UNL     1      38.582   8.718  20.120  0.00  0.00    +0.000 C 
ATOM     30  C   UNL     1      39.237   7.400  20.323  0.00  0.00    +0.000 C 
ENDBRANCH  26  30
ENDBRANCH  20  26
ENDBRANCH  19  23
ENDBRANCH   1  19
TORSDOF 8
ENDMDL
MODEL 2
REMARK VINA RESULT:      -7.3      3.412      5.824
REMARK  Name = 
REMARK  8 active torsions:
REMARK  status: ('A' for Active; 'I' for Inactive)
REMARK    1  A    between atoms: C_2  and  C_3
REMARK    2  A    between atoms: C_3  and  C_6
REMARK    3  A    between atoms: C_9  and  O_10
REMARK    4  A    between atoms: O_10  and  C_11
REMARK    5  A    between atoms: C_14  and  N_15
REMARK    6  A    between atoms: C_16  and  C_18
REMARK    7  A    between atoms: C_18  and  S_19
REMARK    8  A    between atoms: S_19  and  C_20
REMARK                            x       y       z     vdW  Elec       q    Type
REMARK                         _______ _______ _______ _____ _____    ______ ____
ROOT
ATOM      1  C   UNL     1      40.237   6.631  18.104  0.00  0.00    +0.000 A 
ATOM      2  C   UNL     1      40.428   6.301  16.814  0.00  0.00    +0.000 A 
ATOM      3  C   UNL     1      39.725   5.231  16.264  0.00  0.00    +0.000 A 
ATOM      4  C   UNL     1      38.863   4.517  16.971  0.00  0.00    +0.000 A 
ATOM      5  C   UNL     1      38.661   4.865  18.336  0.00  0.00    +0.000 A 
ATOM      6  C   UNL     1      39.356   5.917  18.859  0.00  0.00    +0.000 A 
ENDROOT
BRANCH   4   7
ATOM      7  N   UNL     1      38.095   3.360  16.567  0.00  0.00    +0.000 NA
ATOM      8  C   UNL     1      36.963   3.700  15.661  0.00  0.00    +0.000 C 
ATOM      9  O   UNL     1      36.917   4.931  15.388  0.00  0.00    +0.000 OA
BRANCH   8  10
ATOM     10  C   UNL     1      36.017   2.813  15.108  0.00  0.00    +0.000 C 
BRANCH  10  11
ATOM     11  S   UNL     1      35.987   1.111  15.167  0.00  0.00    +0.000 S 
BRANCH  11  12
ATOM     12  C   UNL     1      36.213   0.213  16.670  0.00  0.00    +0.000 A 
ATOM     13  C   UNL     1      35.577   0.673  17.816  0.00  0.00    +0.000 A 
ATOM     14  C   UNL     1      35.791   0.053  19.003  0.00  0.00    +0.000 A 
ATOM     15  C   UNL     1      36.652  -1.034  18.983  0.00  0.00    +0.000 A 
ATOM     16  C   UNL     1      37.289  -1.511  17.849  0.00  0.00    +0.000 A 
ATOM     17  N   UNL     1      37.048  -0.867  16.733  0.00  0.00    +0.000 N 
ATOM     18  O   UNL     1      37.648  -1.246  15.527  0.00  0.00    +0.000 OA
ENDBRANCH  11  12
ENDBRANCH  10  11
ENDBRANCH   8  10
ENDBRANCH   4   7
BRANCH   1  19
ATOM     19  O   UNL     1      40.907   7.676  18.806  0.00  0.00    +0.000 OA
BRANCH  19  23
ATOM     20  C   UNL     1      44.451   6.233  20.595  0.00  0.00    +0.000 A 
ATOM     21  C   UNL     1      44.490   6.776  19.354  0.00  0.00    +0.000 A 
ATOM     22  C   UNL     1      43.328   7.271  18.735  0.00  0.00    +0.000 A 
ATOM     23  C   UNL     1      42.125   7.214  19.361  0.00  0.00    +0.000 A 
ATOM     24  C   UNL     1      42.084   6.656  20.645  0.00  0.00    +0.000 A 
ATOM     25  C   UNL     1      43.220   6.178  21.251  0.00  0.00    +0.000 A 
BRANCH  20  26
ATOM     26  C   UNL     1      45.627   5.564  21.279  0.00  0.00    +0.000 C 
ATOM     27  C   UNL     1      46.302   6.605  22.176  0.00  0.00    +0.000 C 
ATOM     28  C   UNL     1      45.241   4.327  21.984  0.00  0.00    +0.000 C 
BRANCH  26  30
ATOM     29  C   UNL     1      47.317   3.920  20.331  0.00  0.00    +0.000 C 
ATOM     30  C   UNL     1      46.625   5.222  20.159  0.00  0.00    +0.000 C 
ENDBRANCH  26  30
ENDBRANCH  20  26
ENDBRANCH  19  23
ENDBRANCH   1  19
TORSDOF 8
ENDMDL
MODEL 3
REMARK VINA RESULT:      -7.1      2.868      4.843
REMARK  Name = 
REMARK  8 active torsions:
REMARK  status: ('A' for Active; 'I' for Inactive)
REMARK    1  A    between atoms: C_2  and  C_3
REMARK    2  A    between atoms: C_3  and  C_6
REMARK    3  A    between atoms: C_9  and  O_10
REMARK    4  A    between atoms: O_10  and  C_11
REMARK    5  A    between atoms: C_14  and  N_15
REMARK    6  A    between atoms: C_16  and  C_18
REMARK    7  A    between atoms: C_18  and  S_19
REMARK    8  A    between atoms: S_19  and  C_20
REMARK                            x       y       z     vdW  Elec       q    Type
REMARK                         _______ _______ _______ _____ _____    ______ ____
ROOT
ATOM      1  C   UNL     1      39.346   6.297  17.434  0.00  0.00    +0.000 A 
ATOM      2  C   UNL     1      39.044   5.282  18.264  0.00  0.00    +0.000 A 
ATOM      3  C   UNL     1      38.236   4.240  17.814  0.00  0.00    +0.000 A 
ATOM      4  C   UNL     1      37.747   4.208  16.585  0.00  0.00    +0.000 A 
ATOM      5  C   UNL     1      38.064   5.282  15.707  0.00  0.00    +0.000 A 
ATOM      6  C   UNL     1      38.859   6.294  16.162  0.00  0.00    +0.000 A 
ENDROOT
BRANCH   4   7
ATOM      7  N   UNL     1      36.865   3.232  15.983  0.00  0.00    +0.000 NA
ATOM      8  C   UNL     1      37.596   2.128  15.301  0.00  0.00    +0.000 C 
ATOM      9  O   UNL     1      38.848   2.237  15.416  0.00  0.00    +0.000 OA
BRANCH   8  10
ATOM     10  C   UNL     1      37.037   1.038  14.604  0.00  0.00    +0.000 C 
BRANCH  10  11
ATOM     11  S   UNL     1      36.681  -0.527  15.177  0.00  0.00    +0.000 S 
BRANCH  11  12
ATOM     12  C   UNL     1      37.060  -1.040  16.823  0.00  0.00    +0.000 A 
ATOM     13  C   UNL     1      38.092  -1.951  17.009  0.00  0.00    +0.000 A 
ATOM     14  C   UNL     1      38.358  -2.426  18.251  0.00  0.00    +0.000 A 
ATOM     15  C   UNL     1      37.559  -1.946  19.278  0.00  0.00    +0.000 A 
ATOM     16  C   UNL     1      36.530  -1.032  19.112  0.00  0.00    +0.000 A 
ATOM     17  N   UNL     1      36.317  -0.615  17.888  0.00  0.00    +0.000 N 
ATOM     18  O   UNL     1      35.296   0.295  17.595  0.00  0.00    +0.000 OA
ENDBRANCH  11  12
ENDBRANCH  10  11
ENDBRANCH   8  10
ENDBRANCH   4   7
BRANCH   1  19
ATOM     19  O   UNL     1      40.131   7.440  17.765  0.00  0.00    +0.000 OA
BRANCH  19  23
ATOM     20  C   UNL     1      43.365   6.452  20.297  0.00  0.00    +0.000 A 
ATOM     21  C   UNL     1      42.104   6.494  20.792  0.00  0.00    +0.000 A 
ATOM     22  C   UNL     1      41.007   6.814  19.972  0.00  0.00    +0.000 A 
ATOM     23  C   UNL     1      41.177   7.096  18.656  0.00  0.00    +0.000 A 
ATOM     24  C   UNL     1      42.479   7.050  18.142  0.00  0.00    +0.000 A 
ATOM     25  C   UNL     1      43.550   6.732  18.942  0.00  0.00    +0.000 A 
BRANCH  20  26
ATOM     26  C   UNL     1      44.610   6.242  21.135  0.00  0.00    +0.000 C 
ATOM     27  C   UNL     1      44.830   7.505  21.973  0.00  0.00    +0.000 C 
ATOM     28  C   UNL     1      44.553   5.000  21.929  0.00  0.00    +0.000 C 
BRANCH  26  30
ATOM     29  C   UNL     1      46.666   4.981  20.333  0.00  0.00    +0.000 C 
ATOM     30  C   UNL     1      45.778   6.156  20.138  0.00  0.00    +0.000 C 
ENDBRANCH  26  30
ENDBRANCH  20  26
ENDBRANCH  19  23
ENDBRANCH   1  19
TORSDOF 8
ENDMDL
MODEL 4
REMARK VINA RESULT:      -7.1      3.911      6.607
REMARK  Name = 
REMARK  8 active torsions:
REMARK  status: ('A' for Active; 'I' for Inactive)
REMARK    1  A    between atoms: C_2  and  C_3
REMARK    2  A    between atoms: C_3  and  C_6
REMARK    3  A    between atoms: C_9  and  O_10
REMARK    4  A    between atoms: O_10  and  C_11
REMARK    5  A    between atoms: C_14  and  N_15
REMARK    6  A    between atoms: C_16  and  C_18
REMARK    7  A    between atoms: C_18  and  S_19
REMARK    8  A    between atoms: S_19  and  C_20
REMARK                            x       y       z     vdW  Elec       q    Type
REMARK                         _______ _______ _______ _____ _____    ______ ____
ROOT
ATOM      1  C   UNL     1      40.778   6.767  18.808  0.00  0.00    +0.000 A 
ATOM      2  C   UNL     1      39.727   6.131  19.355  0.00  0.00    +0.000 A 
ATOM      3  C   UNL     1      38.937   5.297  18.567  0.00  0.00    +0.000 A 
ATOM      4  C   UNL     1      39.185   5.100  17.282  0.00  0.00    +0.000 A 
ATOM      5  C   UNL     1      40.296   5.774  16.701  0.00  0.00    +0.000 A 
ATOM      6  C   UNL     1      41.061   6.586  17.487  0.00  0.00    +0.000 A 
ENDROOT
BRANCH   4   7
ATOM      7  N   UNL     1      38.443   4.310  16.325  0.00  0.00    +0.000 NA
ATOM      8  C   UNL     1      37.538   5.127  15.470  0.00  0.00    +0.000 C 
ATOM      9  O   UNL     1      37.623   6.362  15.722  0.00  0.00    +0.000 OA
BRANCH   8  10
ATOM     10  C   UNL     1      36.669   4.665  14.462  0.00  0.00    +0.000 C 
BRANCH  10  11
ATOM     11  S   UNL     1      35.312   3.645  14.606  0.00  0.00    +0.000 S 
BRANCH  11  12
ATOM     12  C   UNL     1      35.417   2.026  15.303  0.00  0.00    +0.000 A 
ATOM     13  C   UNL     1      34.929   1.827  16.588  0.00  0.00    +0.000 A 
ATOM     14  C   UNL     1      35.064   0.616  17.183  0.00  0.00    +0.000 A 
ATOM     15  C   UNL     1      35.695  -0.369  16.437  0.00  0.00    +0.000 A 
ATOM     16  C   UNL     1      36.181  -0.191  15.151  0.00  0.00    +0.000 A 
ATOM     17  N   UNL     1      36.027   1.003  14.633  0.00  0.00    +0.000 N 
ATOM     18  O   UNL     1      36.493   1.306  13.349  0.00  0.00    +0.000 OA
ENDBRANCH  11  12
ENDBRANCH  10  11
ENDBRANCH   8  10
ENDBRANCH   4   7
BRANCH   1  19
ATOM     19  O   UNL     1      41.651   7.671  19.481  0.00  0.00    +0.000 OA
BRANCH  19  23
ATOM     20  C   UNL     1      45.131   5.737  20.890  0.00  0.00    +0.000 A 
ATOM     21  C   UNL     1      43.959   5.594  21.556  0.00  0.00    +0.000 A 
ATOM     22  C   UNL     1      42.783   6.221  21.107  0.00  0.00    +0.000 A 
ATOM     23  C   UNL     1      42.785   6.995  19.993  0.00  0.00    +0.000 A 
ATOM     24  C   UNL     1      43.995   7.140  19.302  0.00  0.00    +0.000 A 
ATOM     25  C   UNL     1      45.142   6.524  19.738  0.00  0.00    +0.000 A 
BRANCH  20  26
ATOM     26  C   UNL     1      46.465   5.203  21.375  0.00  0.00    +0.000 C 
ATOM     27  C   UNL     1      47.406   5.127  20.169  0.00  0.00    +0.000 C 
ATOM     28  C   UNL     1      47.005   5.979  22.507  0.00  0.00    +0.000 C 
BRANCH  26  30
ATOM     29  C   UNL     1      46.757   2.719  20.926  0.00  0.00    +0.000 C 
ATOM     30  C   UNL     1      46.199   3.758  21.829  0.00  0.00    +0.000 C 
ENDBRANCH  26  30
ENDBRANCH  20  26
ENDBRANCH  19  23
ENDBRANCH   1  19
TORSDOF 8
ENDMDL
MODEL 5
REMARK VINA RESULT:      -7.1      2.634      4.365
REMARK  Name = 
REMARK  8 active torsions:
REMARK  status: ('A' for Active; 'I' for Inactive)
REMARK    1  A    between atoms: C_2  and  C_3
REMARK    2  A    between atoms: C_3  and  C_6
REMARK    3  A    between atoms: C_9  and  O_10
REMARK    4  A    between atoms: O_10  and  C_11
REMARK    5  A    between atoms: C_14  and  N_15
REMARK    6  A    between atoms: C_16  and  C_18
REMARK    7  A    between atoms: C_18  and  S_19
REMARK    8  A    between atoms: S_19  and  C_20
REMARK                            x       y       z     vdW  Elec       q    Type
REMARK                         _______ _______ _______ _____ _____    ______ ____
ROOT
ATOM      1  C   UNL     1      38.663   6.213  16.938  0.00  0.00    +0.000 A 
ATOM      2  C   UNL     1      38.596   6.008  15.610  0.00  0.00    +0.000 A 
ATOM      3  C   UNL     1      38.262   4.746  15.123  0.00  0.00    +0.000 A 
ATOM      4  C   UNL     1      38.003   3.726  15.927  0.00  0.00    +0.000 A 
ATOM      5  C   UNL     1      38.075   3.943  17.332  0.00  0.00    +0.000 A 
ATOM      6  C   UNL     1      38.402   5.185  17.793  0.00  0.00    +0.000 A 
ENDROOT
BRANCH   4   7
ATOM      7  N   UNL     1      37.689   2.357  15.585  0.00  0.00    +0.000 NA
ATOM      8  C   UNL     1      36.241   2.039  15.721  0.00  0.00    +0.000 C 
ATOM      9  O   UNL     1      35.559   3.042  16.073  0.00  0.00    +0.000 OA
BRANCH   8  10
ATOM     10  C   UNL     1      35.614   0.799  15.488  0.00  0.00    +0.000 C 
BRANCH  10  11
ATOM     11  S   UNL     1      35.306  -0.467  16.586  0.00  0.00    +0.000 S 
BRANCH  11  12
ATOM     12  C   UNL     1      36.595  -1.273  17.483  0.00  0.00    +0.000 A 
ATOM     13  C   UNL     1      37.589  -1.928  16.767  0.00  0.00    +0.000 A 
ATOM     14  C   UNL     1      38.550  -2.623  17.425  0.00  0.00    +0.000 A 
ATOM     15  C   UNL     1      38.471  -2.623  18.809  0.00  0.00    +0.000 A 
ATOM     16  C   UNL     1      37.491  -1.971  19.541  0.00  0.00    +0.000 A 
ATOM     17  N   UNL     1      36.586  -1.322  18.849  0.00  0.00    +0.000 N 
ATOM     18  O   UNL     1      35.539  -0.639  19.477  0.00  0.00    +0.000 OA
ENDBRANCH  11  12
ENDBRANCH  10  11
ENDBRANCH   8  10
ENDBRANCH   4   7
BRANCH   1  19
ATOM     19  O   UNL     1      39.021   7.437  17.576  0.00  0.00    +0.000 OA
BRANCH  19  23
ATOM     20  C   UNL     1      42.453   6.903  19.981  0.00  0.00    +0.000 A 
ATOM     21  C   UNL     1      41.241   7.088  20.560  0.00  0.00    +0.000 A 
ATOM     22  C   UNL     1      40.080   7.262  19.785  0.00  0.00    +0.000 A 
ATOM     23  C   UNL     1      40.138   7.256  18.429  0.00  0.00    +0.000 A 
ATOM     24  C   UNL     1      41.389   7.062  17.830  0.00  0.00    +0.000 A 
ATOM     25  C   UNL     1      42.521   6.887  18.587  0.00  0.00    +0.000 A 
BRANCH  20  26
ATOM     26  C   UNL     1      43.765   6.836  20.737  0.00  0.00    +0.000 C 
ATOM     27  C   UNL     1      44.873   6.526  19.728  0.00  0.00    +0.000 C 
ATOM     28  C   UNL     1      44.013   8.047  21.544  0.00  0.00    +0.000 C 
BRANCH  26  30
ATOM     29  C   UNL     1      44.915   4.856  21.838  0.00  0.00    +0.000 C 
ATOM     30  C   UNL     1      43.652   5.618  21.668  0.00  0.00    +0.000 C 
ENDBRANCH  26  30
ENDBRANCH  20  26
ENDBRANCH  19  23
ENDBRANCH   1  19
TORSDOF 8
ENDMDL
MODEL 6
REMARK VINA RESULT:      -6.9     17.963     22.479
REMARK  Name = 
REMARK  8 active torsions:
REMARK  status: ('A' for Active; 'I' for Inactive)
REMARK    1  A    between atoms: C_2  and  C_3
REMARK    2  A    between atoms: C_3  and  C_6
REMARK    3  A    between atoms: C_9  and  O_10
REMARK    4  A    between atoms: O_10  and  C_11
REMARK    5  A    between atoms: C_14  and  N_15
REMARK    6  A    between atoms: C_16  and  C_18
REMARK    7  A    between atoms: C_18  and  S_19
REMARK    8  A    between atoms: S_19  and  C_20
REMARK                            x       y       z     vdW  Elec       q    Type
REMARK                         _______ _______ _______ _____ _____    ______ ____
ROOT
ATOM      1  C   UNL     1      24.838  18.907  21.127  0.00  0.00    +0.000 A 
ATOM      2  C   UNL     1      25.490  19.297  20.017  0.00  0.00    +0.000 A 
ATOM      3  C   UNL     1      26.618  18.596  19.596  0.00  0.00    +0.000 A 
ATOM      4  C   UNL     1      27.079  17.544  20.254  0.00  0.00    +0.000 A 
ATOM      5  C   UNL     1      26.391  17.130  21.429  0.00  0.00    +0.000 A 
ATOM      6  C   UNL     1      25.286  17.827  21.827  0.00  0.00    +0.000 A 
ENDROOT
BRANCH   4   7
ATOM      7  N   UNL     1      28.250  16.742  19.978  0.00  0.00    +0.000 NA
ATOM      8  C   UNL     1      29.526  17.458  20.258  0.00  0.00    +0.000 C 
ATOM      9  O   UNL     1      29.336  18.616  20.723  0.00  0.00    +0.000 OA
BRANCH   8  10
ATOM     10  C   UNL     1      30.836  16.970  20.077  0.00  0.00    +0.000 C 
BRANCH  10  11
ATOM     11  S   UNL     1      32.281  17.488  20.816  0.00  0.00    +0.000 S 
BRANCH  11  12
ATOM     12  C   UNL     1      32.692  17.074  22.482  0.00  0.00    +0.000 A 
ATOM     13  C   UNL     1      32.032  17.737  23.509  0.00  0.00    +0.000 A 
ATOM     14  C   UNL     1      32.379  17.501  24.799  0.00  0.00    +0.000 A 
ATOM     15  C   UNL     1      33.394  16.579  25.004  0.00  0.00    +0.000 A 
ATOM     16  C   UNL     1      34.058  15.902  23.992  0.00  0.00    +0.000 A 
ATOM     17  N   UNL     1      33.684  16.179  22.767  0.00  0.00    +0.000 N 
ATOM     18  O   UNL     1      34.292  15.571  21.664  0.00  0.00    +0.000 OA
ENDBRANCH  11  12
ENDBRANCH  10  11
ENDBRANCH   8  10
ENDBRANCH   4   7
BRANCH   1  19
ATOM     19  O   UNL     1      23.694  19.544  21.691  0.00  0.00    +0.000 OA
BRANCH  19  23
ATOM     20  C   UNL     1      20.482  19.523  18.948  0.00  0.00    +0.000 A 
ATOM     21  C   UNL     1      21.123  20.683  19.232  0.00  0.00    +0.000 A 
ATOM     22  C   UNL     1      22.200  20.720  20.137  0.00  0.00    +0.000 A 
ATOM     23  C   UNL     1      22.629  19.593  20.759  0.00  0.00    +0.000 A 
ATOM     24  C   UNL     1      21.969  18.393  20.463  0.00  0.00    +0.000 A 
ATOM     25  C   UNL     1      20.921  18.357  19.576  0.00  0.00    +0.000 A 
BRANCH  20  26
ATOM     26  C   UNL     1      19.238  19.418  18.088  0.00  0.00    +0.000 C 
ATOM     27  C   UNL     1      18.307  18.388  18.733  0.00  0.00    +0.000 C 
ATOM     28  C   UNL     1      18.605  20.729  17.849  0.00  0.00    +0.000 C 
BRANCH  26  30
ATOM     29  C   UNL     1      19.978  19.834  15.693  0.00  0.00    +0.000 C 
ATOM     30  C   UNL     1      19.703  18.825  16.747  0.00  0.00    +0.000 C 
ENDBRANCH  26  30
ENDBRANCH  20  26
ENDBRANCH  19  23
ENDBRANCH   1  19
TORSDOF 8
ENDMDL
MODEL 7
REMARK VINA RESULT:      -6.8      2.306      3.644
REMARK  Name = 
REMARK  8 active torsions:
REMARK  status: ('A' for Active; 'I' for Inactive)
REMARK    1  A    between atoms: C_2  and  C_3
REMARK    2  A    between atoms: C_3  and  C_6
REMARK    3  A    between atoms: C_9  and  O_10
REMARK    4  A    between atoms: O_10  and  C_11
REMARK    5  A    between atoms: C_14  and  N_15
REMARK    6  A    between atoms: C_16  and  C_18
REMARK    7  A    between atoms: C_18  and  S_19
REMARK    8  A    between atoms: S_19  and  C_20
REMARK                            x       y       z     vdW  Elec       q    Type
REMARK                         _______ _______ _______ _____ _____    ______ ____
ROOT
ATOM      1  C   UNL     1      38.890   4.803  14.935  0.00  0.00    +0.000 A 
ATOM      2  C   UNL     1      37.616   5.202  15.098  0.00  0.00    +0.000 A 
ATOM      3  C   UNL     1      36.599   4.253  15.175  0.00  0.00    +0.000 A 
ATOM      4  C   UNL     1      36.841   2.954  15.094  0.00  0.00    +0.000 A 
ATOM      5  C   UNL     1      38.189   2.530  14.920  0.00  0.00    +0.000 A 
ATOM      6  C   UNL     1      39.174   3.473  14.848  0.00  0.00    +0.000 A 
ENDROOT
BRANCH   4   7
ATOM      7  N   UNL     1      35.904   1.853  15.110  0.00  0.00    +0.000 NA
ATOM      8  C   UNL     1      35.692   1.287  16.471  0.00  0.00    +0.000 C 
ATOM      9  O   UNL     1      36.344   1.907  17.357  0.00  0.00    +0.000 OA
BRANCH   8  10
ATOM     10  C   UNL     1      34.864   0.203  16.825  0.00  0.00    +0.000 C 
BRANCH  10  11
ATOM     11  S   UNL     1      35.253  -1.188  17.729  0.00  0.00    +0.000 S 
BRANCH  11  12
ATOM     12  C   UNL     1      36.574  -2.269  17.278  0.00  0.00    +0.000 A 
ATOM     13  C   UNL     1      37.868  -1.918  17.641  0.00  0.00    +0.000 A 
ATOM     14  C   UNL     1      38.914  -2.684  17.244  0.00  0.00    +0.000 A 
ATOM     15  C   UNL     1      38.603  -3.803  16.485  0.00  0.00    +0.000 A 
ATOM     16  C   UNL     1      37.318  -4.172  16.119  0.00  0.00    +0.000 A 
ATOM     17  N   UNL     1      36.351  -3.388  16.527  0.00  0.00    +0.000 N 
ATOM     18  O   UNL     1      35.014  -3.650  16.206  0.00  0.00    +0.000 OA
ENDBRANCH  11  12
ENDBRANCH  10  11
ENDBRANCH   8  10
ENDBRANCH   4   7
BRANCH   1  19
ATOM     19  O   UNL     1      40.024   5.658  14.809  0.00  0.00    +0.000 OA
BRANCH  19  23
ATOM     20  C   UNL     1      41.853   6.560  18.508  0.00  0.00    +0.000 A 
ATOM     21  C   UNL     1      40.558   6.161  18.471  0.00  0.00    +0.000 A 
ATOM     22  C   UNL     1      39.924   5.848  17.255  0.00  0.00    +0.000 A 
ATOM     23  C   UNL     1      40.590   5.941  16.076  0.00  0.00    +0.000 A 
ATOM     24  C   UNL     1      41.929   6.350  16.113  0.00  0.00    +0.000 A 
ATOM     25  C   UNL     1      42.549   6.650  17.301  0.00  0.00    +0.000 A 
BRANCH  20  26
ATOM     26  C   UNL     1      42.570   7.036  19.756  0.00  0.00    +0.000 C 
ATOM     27  C   UNL     1      42.051   8.437  20.089  0.00  0.00    +0.000 C 
ATOM     28  C   UNL     1      42.459   6.076  20.871  0.00  0.00    +0.000 C 
BRANCH  26  30
ATOM     29  C   UNL     1      44.993   6.422  20.213  0.00  0.00    +0.000 C 
ATOM     30  C   UNL     1      44.048   7.187  19.359  0.00  0.00    +0.000 C 
ENDBRANCH  26  30
ENDBRANCH  20  26
ENDBRANCH  19  23
ENDBRANCH   1  19
TORSDOF 8
ENDMDL
MODEL 8
REMARK VINA RESULT:      -6.8      4.967     10.463
REMARK  Name = 
REMARK  8 active torsions:
REMARK  status: ('A' for Active; 'I' for Inactive)
REMARK    1  A    between atoms: C_2  and  C_3
REMARK    2  A    between atoms: C_3  and  C_6
REMARK    3  A    between atoms: C_9  and  O_10
REMARK    4  A    between atoms: O_10  and  C_11
REMARK    5  A    between atoms: C_14  and  N_15
REMARK    6  A    between atoms: C_16  and  C_18
REMARK    7  A    between atoms: C_18  and  S_19
REMARK    8  A    between atoms: S_19  and  C_20
REMARK                            x       y       z     vdW  Elec       q    Type
REMARK                         _______ _______ _______ _____ _____    ______ ____
ROOT
ATOM      1  C   UNL     1      37.852   4.634  16.066  0.00  0.00    +0.000 A 
ATOM      2  C   UNL     1      37.897   4.563  17.408  0.00  0.00    +0.000 A 
ATOM      3  C   UNL     1      39.000   5.071  18.090  0.00  0.00    +0.000 A 
ATOM      4  C   UNL     1      40.022   5.629  17.460  0.00  0.00    +0.000 A 
ATOM      5  C   UNL     1      39.977   5.702  16.039  0.00  0.00    +0.000 A 
ATOM      6  C   UNL     1      38.887   5.203  15.386  0.00  0.00    +0.000 A 
ENDROOT
BRANCH   4   7
ATOM      7  N   UNL     1      41.250   6.157  18.011  0.00  0.00    +0.000 NA
ATOM      8  C   UNL     1      41.170   7.610  18.328  0.00  0.00    +0.000 C 
ATOM      9  O   UNL     1      40.028   8.092  18.090  0.00  0.00    +0.000 OA
BRANCH   8  10
ATOM     10  C   UNL     1      42.191   8.426  18.853  0.00  0.00    +0.000 C 
BRANCH  10  11
ATOM     11  S   UNL     1      42.578   8.739  20.483  0.00  0.00    +0.000 S 
BRANCH  11  12
ATOM     12  C   UNL     1      43.449   7.577  21.487  0.00  0.00    +0.000 A 
ATOM     13  C   UNL     1      43.483   6.249  21.082  0.00  0.00    +0.000 A 
ATOM     14  C   UNL     1      44.075   5.317  21.869  0.00  0.00    +0.000 A 
ATOM     15  C   UNL     1      44.628   5.774  23.056  0.00  0.00    +0.000 A 
ATOM     16  C   UNL     1      44.609   7.096  23.473  0.00  0.00    +0.000 A 
ATOM     17  N   UNL     1      44.016   7.949  22.673  0.00  0.00    +0.000 N 
ATOM     18  O   UNL     1      43.921   9.307  22.995  0.00  0.00    +0.000 OA
ENDBRANCH  11  12
ENDBRANCH  10  11
ENDBRANCH   8  10
ENDBRANCH   4   7
BRANCH   1  19
ATOM     19  O   UNL     1      36.807   4.130  15.237  0.00  0.00    +0.000 OA
BRANCH  19  23
ATOM     20  C   UNL     1      35.741   0.224  16.439  0.00  0.00    +0.000 A 
ATOM     21  C   UNL     1      34.968   1.278  16.796  0.00  0.00    +0.000 A 
ATOM     22  C   UNL     1      35.293   2.589  16.406  0.00  0.00    +0.000 A 
ATOM     23  C   UNL     1      36.400   2.842  15.661  0.00  0.00    +0.000 A 
ATOM     24  C   UNL     1      37.198   1.752  15.289  0.00  0.00    +0.000 A 
ATOM     25  C   UNL     1      36.877   0.472  15.666  0.00  0.00    +0.000 A 
BRANCH  20  26
ATOM     26  C   UNL     1      35.533  -1.198  16.923  0.00  0.00    +0.000 C 
ATOM     27  C   UNL     1      36.567  -1.478  18.017  0.00  0.00    +0.000 C 
ATOM     28  C   UNL     1      34.140  -1.453  17.339  0.00  0.00    +0.000 C 
BRANCH  26  30
ATOM     29  C   UNL     1      34.917  -3.207  15.494  0.00  0.00    +0.000 C 
ATOM     30  C   UNL     1      35.883  -2.104  15.731  0.00  0.00    +0.000 C 
ENDBRANCH  26  30
ENDBRANCH  20  26
ENDBRANCH  19  23
ENDBRANCH   1  19
TORSDOF 8
ENDMDL
MODEL 9
REMARK VINA RESULT:      -6.8      8.520     12.512
REMARK  Name = 
REMARK  8 active torsions:
REMARK  status: ('A' for Active; 'I' for Inactive)
REMARK    1  A    between atoms: C_2  and  C_3
REMARK    2  A    between atoms: C_3  and  C_6
REMARK    3  A    between atoms: C_9  and  O_10
REMARK    4  A    between atoms: O_10  and  C_11
REMARK    5  A    between atoms: C_14  and  N_15
REMARK    6  A    between atoms: C_16  and  C_18
REMARK    7  A    between atoms: C_18  and  S_19
REMARK    8  A    between atoms: S_19  and  C_20
REMARK                            x       y       z     vdW  Elec       q    Type
REMARK                         _______ _______ _______ _____ _____    ______ ____
ROOT
ATOM      1  C   UNL     1      45.036   7.044  23.207  0.00  0.00    +0.000 A 
ATOM      2  C   UNL     1      44.363   7.669  24.190  0.00  0.00    +0.000 A 
ATOM      3  C   UNL     1      44.429   7.179  25.493  0.00  0.00    +0.000 A 
ATOM      4  C   UNL     1      45.141   6.107  25.806  0.00  0.00    +0.000 A 
ATOM      5  C   UNL     1      45.853   5.445  24.767  0.00  0.00    +0.000 A 
ATOM      6  C   UNL     1      45.779   5.939  23.496  0.00  0.00    +0.000 A 
ENDROOT
BRANCH   4   7
ATOM      7  N   UNL     1      45.278   5.451  27.087  0.00  0.00    +0.000 NA
ATOM      8  C   UNL     1      44.213   4.441  27.341  0.00  0.00    +0.000 C 
ATOM      9  O   UNL     1      43.417   4.325  26.368  0.00  0.00    +0.000 OA
BRANCH   8  10
ATOM     10  C   UNL     1      44.048   3.647  28.494  0.00  0.00    +0.000 C 
BRANCH  10  11
ATOM     11  S   UNL     1      43.055   3.927  29.850  0.00  0.00    +0.000 S 
BRANCH  11  12
ATOM     12  C   UNL     1      41.656   5.003  29.792  0.00  0.00    +0.000 A 
ATOM     13  C   UNL     1      40.387   4.438  29.813  0.00  0.00    +0.000 A 
ATOM     14  C   UNL     1      39.293   5.229  29.690  0.00  0.00    +0.000 A 
ATOM     15  C   UNL     1      39.528   6.589  29.555  0.00  0.00    +0.000 A 
ATOM     16  C   UNL     1      40.787   7.171  29.540  0.00  0.00    +0.000 A 
ATOM     17  N   UNL     1      41.805   6.354  29.655  0.00  0.00    +0.000 N 
ATOM     18  O   UNL     1      43.123   6.824  29.636  0.00  0.00    +0.000 OA
ENDBRANCH  11  12
ENDBRANCH  10  11
ENDBRANCH   8  10
ENDBRANCH   4   7
BRANCH   1  19
ATOM     19  O   UNL     1      45.034   7.412  21.830  0.00  0.00    +0.000 OA
BRANCH  19  23
ATOM     20  C   UNL     1      41.157   7.311  20.157  0.00  0.00    +0.000 A 
ATOM     21  C   UNL     1      41.754   6.161  20.554  0.00  0.00    +0.000 A 
ATOM     22  C   UNL     1      43.042   6.164  21.120  0.00  0.00    +0.000 A 
ATOM     23  C   UNL     1      43.731   7.322  21.282  0.00  0.00    +0.000 A 
ATOM     24  C   UNL     1      43.113   8.511  20.875  0.00  0.00    +0.000 A 
ATOM     25  C   UNL     1      41.854   8.508  20.327  0.00  0.00    +0.000 A 
BRANCH  20  26
ATOM     26  C   UNL     1      39.831   7.382  19.425  0.00  0.00    +0.000 C 
ATOM     27  C   UNL     1      38.802   7.999  20.375  0.00  0.00    +0.000 C 
ATOM     28  C   UNL     1      39.940   8.078  18.128  0.00  0.00    +0.000 C 
BRANCH  26  30
ATOM     29  C   UNL     1      38.845   5.662  17.835  0.00  0.00    +0.000 C 
ATOM     30  C   UNL     1      39.404   5.924  19.185  0.00  0.00    +0.000 C 
ENDBRANCH  26  30
ENDBRANCH  20  26
ENDBRANCH  19  23
ENDBRANCH   1  19
TORSDOF 8
ENDMDL
MODEL 10
REMARK VINA RESULT:      -6.7      6.807      9.326
REMARK  Name = 
REMARK  8 active torsions:
REMARK  status: ('A' for Active; 'I' for Inactive)
REMARK    1  A    between atoms: C_2  and  C_3
REMARK    2  A    between atoms: C_3  and  C_6
REMARK    3  A    between atoms: C_9  and  O_10
REMARK    4  A    between atoms: O_10  and  C_11
REMARK    5  A    between atoms: C_14  and  N_15
REMARK    6  A    between atoms: C_16  and  C_18
REMARK    7  A    between atoms: C_18  and  S_19
REMARK    8  A    between atoms: S_19  and  C_20
REMARK                            x       y       z     vdW  Elec       q    Type
REMARK                         _______ _______ _______ _____ _____    ______ ____
ROOT
ATOM      1  C   UNL     1      37.685   4.196  14.551  0.00  0.00    +0.000 A 
ATOM      2  C   UNL     1      36.571   4.920  14.763  0.00  0.00    +0.000 A 
ATOM      3  C   UNL     1      35.890   5.473  13.681  0.00  0.00    +0.000 A 
ATOM      4  C   UNL     1      36.300   5.309  12.433  0.00  0.00    +0.000 A 
ATOM      5  C   UNL     1      37.479   4.544  12.207  0.00  0.00    +0.000 A 
ATOM      6  C   UNL     1      38.134   4.008  13.279  0.00  0.00    +0.000 A 
ENDROOT
BRANCH   4   7
ATOM      7  N   UNL     1      35.739   5.848  11.214  0.00  0.00    +0.000 NA
ATOM      8  C   UNL     1      36.144   7.258  10.959  0.00  0.00    +0.000 C 
ATOM      9  O   UNL     1      36.935   7.699  11.839  0.00  0.00    +0.000 OA
BRANCH   8  10
ATOM     10  C   UNL     1      35.757   8.075   9.878  0.00  0.00    +0.000 C 
BRANCH  10  11
ATOM     11  S   UNL     1      35.679   7.689   8.221  0.00  0.00    +0.000 S 
BRANCH  11  12
ATOM     12  C   UNL     1      34.278   8.087   7.222  0.00  0.00    +0.000 A 
ATOM     13  C   UNL     1      33.517   7.046   6.708  0.00  0.00    +0.000 A 
ATOM     14  C   UNL     1      32.482   7.313   5.873  0.00  0.00    +0.000 A 
ATOM     15  C   UNL     1      32.248   8.651   5.592  0.00  0.00    +0.000 A 
ATOM     16  C   UNL     1      32.993   9.703   6.102  0.00  0.00    +0.000 A 
ATOM     17  N   UNL     1      33.984   9.381   6.896  0.00  0.00    +0.000 N 
ATOM     18  O   UNL     1      34.815  10.356   7.458  0.00  0.00    +0.000 OA
ENDBRANCH  11  12
ENDBRANCH  10  11
ENDBRANCH   8  10
ENDBRANCH   4   7
BRANCH   1  19
ATOM     19  O   UNL     1      38.498   3.600  15.559  0.00  0.00    +0.000 OA
BRANCH  19  23
ATOM     20  C   UNL     1      39.849   6.422  18.398  0.00  0.00    +0.000 A 
ATOM     21  C   UNL     1      40.253   6.512  17.107  0.00  0.00    +0.000 A 
ATOM     22  C   UNL     1      39.815   5.591  16.138  0.00  0.00    +0.000 A 
ATOM     23  C   UNL     1      38.975   4.576  16.468  0.00  0.00    +0.000 A 
ATOM     24  C   UNL     1      38.555   4.485  17.801  0.00  0.00    +0.000 A 
ATOM     25  C   UNL     1      38.979   5.387  18.745  0.00  0.00    +0.000 A 
BRANCH  20  26
ATOM     26  C   UNL     1      40.371   7.292  19.524  0.00  0.00    +0.000 C 
ATOM     27  C   UNL     1      41.150   8.453  18.899  0.00  0.00    +0.000 C 
ATOM     28  C   UNL     1      39.304   7.718  20.449  0.00  0.00    +0.000 C 
BRANCH  26  30
ATOM     29  C   UNL     1      42.784   6.535  19.783  0.00  0.00    +0.000 C 
ATOM     30  C   UNL     1      41.390   6.427  20.285  0.00  0.00    +0.000 C 
ENDBRANCH  26  30
ENDBRANCH  20  26
ENDBRANCH  19  23
ENDBRANCH   1  19
TORSDOF 8
ENDMDL
