MODEL 1
REMARK VINA RESULT:      -6.8      0.000      0.000
REMARK  Name = 
REMARK  3 active torsions:
REMARK  status: ('A' for Active; 'I' for Inactive)
REMARK    1  A    between atoms: O_2  and  C_3
REMARK    2  A    between atoms: C_3  and  C_4
REMARK    3  A    between atoms: C_6  and  C_7
REMARK                            x       y       z     vdW  Elec       q    Type
REMARK                         _______ _______ _______ _____ _____    ______ ____
ROOT
ATOM      1  C   UNL     1      32.300  21.067  10.639  0.00  0.00    +0.000 A 
ATOM      2  C   UNL     1      31.463  21.745  11.489  0.00  0.00    +0.000 A 
ATOM      3  C   UNL     1      30.145  21.848  11.131  0.00  0.00    +0.000 A 
ATOM      4  N   UNL     1      29.730  21.295   9.992  0.00  0.00    +0.000 NA
ATOM      5  C   UNL     1      30.548  20.617   9.127  0.00  0.00    +0.000 A 
ATOM      6  N   UNL     1      30.029  20.058   7.931  0.00  0.00    +0.000 NA
ATOM      7  N   UNL     1      31.837  20.530   9.504  0.00  0.00    +0.000 NA
ENDROOT
BRANCH   1   8
ATOM      8  C   UNL     1      33.767  20.859  10.856  0.00  0.00    +0.000 C 
ATOM      9  C   UNL     1      33.914  20.058  12.138  0.00  0.00    +0.000 C 
ATOM     10  C   UNL     1      35.357  20.092  12.565  0.00  0.00    +0.000 C 
ATOM     11  C   UNL     1      36.236  20.411  11.398  0.00  0.00    +0.000 C 
ATOM     12  C   UNL     1      35.797  19.703  10.128  0.00  0.00    +0.000 C 
ATOM     13  C   UNL     1      34.388  20.055   9.728  0.00  0.00    +0.000 C 
BRANCH   8  15
ATOM     14  C   UNL     1      34.204  22.831   9.844  0.00  0.00    +0.000 C 
ATOM     15  O   UNL     1      34.445  22.065  10.985  0.00  0.00    +0.000 OA
ENDBRANCH   8  15
ENDBRANCH   1   8
BRANCH   3  16
ATOM     16  C   UNL     1      29.158  22.529  11.991  0.00  0.00    +0.000 A 
ATOM     17  C   UNL     1      29.554  23.123  13.158  0.00  0.00    +0.000 A 
ATOM     18  C   UNL     1      28.683  23.808  13.986  0.00  0.00    +0.000 A 
ATOM     19  C   UNL     1      27.368  23.880  13.595  0.00  0.00    +0.000 A 
ATOM     20  C   UNL     1      26.969  23.297  12.440  0.00  0.00    +0.000 A 
ATOM     21  C   UNL     1      27.853  22.618  11.630  0.00  0.00    +0.000 A 
ENDBRANCH   3  16
TORSDOF 3
ENDMDL
MODEL 2
REMARK VINA RESULT:      -6.6      2.242      3.840
REMARK  Name = 
REMARK  3 active torsions:
REMARK  status: ('A' for Active; 'I' for Inactive)
REMARK    1  A    between atoms: O_2  and  C_3
REMARK    2  A    between atoms: C_3  and  C_4
REMARK    3  A    between atoms: C_6  and  C_7
REMARK                            x       y       z     vdW  Elec       q    Type
REMARK                         _______ _______ _______ _____ _____    ______ ____
ROOT
ATOM      1  C   UNL     1      31.239  21.087   9.509  0.00  0.00    +0.000 A 
ATOM      2  C   UNL     1      30.191  21.729  10.119  0.00  0.00    +0.000 A 
ATOM      3  C   UNL     1      30.283  21.951  11.468  0.00  0.00    +0.000 A 
ATOM      4  N   UNL     1      31.368  21.545  12.126  0.00  0.00    +0.000 NA
ATOM      5  C   UNL     1      32.424  20.899  11.538  0.00  0.00    +0.000 A 
ATOM      6  N   UNL     1      33.544  20.495  12.310  0.00  0.00    +0.000 NA
ATOM      7  N   UNL     1      32.307  20.695  10.212  0.00  0.00    +0.000 NA
ENDROOT
BRANCH   1   8
ATOM      8  C   UNL     1      31.314  20.752   8.051  0.00  0.00    +0.000 C 
ATOM      9  C   UNL     1      32.584  19.944   7.850  0.00  0.00    +0.000 C 
ATOM     10  C   UNL     1      32.868  19.853   6.374  0.00  0.00    +0.000 C 
ATOM     11  C   UNL     1      31.617  20.090   5.589  0.00  0.00    +0.000 C 
ATOM     12  C   UNL     1      30.404  19.420   6.211  0.00  0.00    +0.000 C 
ATOM     13  C   UNL     1      30.139  19.893   7.617  0.00  0.00    +0.000 C 
BRANCH   8  15
ATOM     14  C   UNL     1      32.271  22.787   7.831  0.00  0.00    +0.000 C 
ATOM     15  O   UNL     1      31.362  21.894   7.261  0.00  0.00    +0.000 OA
ENDBRANCH   8  15
ENDBRANCH   1   8
BRANCH   3  16
ATOM     16  C   UNL     1      29.226  22.662  12.212  0.00  0.00    +0.000 A 
ATOM     17  C   UNL     1      27.945  22.685  11.734  0.00  0.00    +0.000 A 
ATOM     18  C   UNL     1      26.903  23.302  12.405  0.00  0.00    +0.000 A 
ATOM     19  C   UNL     1      27.198  23.908  13.603  0.00  0.00    +0.000 A 
ATOM     20  C   UNL     1      28.463  23.886  14.084  0.00  0.00    +0.000 A 
ATOM     21  C   UNL     1      29.486  23.267  13.399  0.00  0.00    +0.000 A 
ENDBRANCH   3  16
TORSDOF 3
ENDMDL
MODEL 3
REMARK VINA RESULT:      -6.4     32.556     34.159
REMARK  Name = 
REMARK  3 active torsions:
REMARK  status: ('A' for Active; 'I' for Inactive)
REMARK    1  A    between atoms: O_2  and  C_3
REMARK    2  A    between atoms: C_3  and  C_4
REMARK    3  A    between atoms: C_6  and  C_7
REMARK                            x       y       z     vdW  Elec       q    Type
REMARK                         _______ _______ _______ _____ _____    ______ ____
ROOT
ATOM      1  C   UNL     1      34.102  -5.728  31.957  0.00  0.00    +0.000 A 
ATOM      2  C   UNL     1      33.573  -4.505  32.285  0.00  0.00    +0.000 A 
ATOM      3  C   UNL     1      33.857  -4.004  33.528  0.00  0.00    +0.000 A 
ATOM      4  N   UNL     1      34.625  -4.709  34.358  0.00  0.00    +0.000 NA
ATOM      5  C   UNL     1      35.161  -5.933  34.053  0.00  0.00    +0.000 A 
ATOM      6  N   UNL     1      35.968  -6.622  34.995  0.00  0.00    +0.000 NA
ATOM      7  N   UNL     1      34.866  -6.400  32.826  0.00  0.00    +0.000 NA
ENDROOT
BRANCH   1   8
ATOM      8  C   UNL     1      33.896  -6.436  30.654  0.00  0.00    +0.000 C 
ATOM      9  C   UNL     1      34.177  -5.428  29.554  0.00  0.00    +0.000 C 
ATOM     10  C   UNL     1      33.684  -5.990  28.247  0.00  0.00    +0.000 C 
ATOM     11  C   UNL     1      33.580  -7.480  28.330  0.00  0.00    +0.000 C 
ATOM     12  C   UNL     1      34.745  -8.104  29.077  0.00  0.00    +0.000 C 
ATOM     13  C   UNL     1      34.867  -7.592  30.489  0.00  0.00    +0.000 C 
BRANCH   8  15
ATOM     14  C   UNL     1      32.304  -7.707  31.633  0.00  0.00    +0.000 C 
ATOM     15  O   UNL     1      32.595  -6.910  30.526  0.00  0.00    +0.000 OA
ENDBRANCH   8  15
ENDBRANCH   1   8
BRANCH   3  16
ATOM     16  C   UNL     1      33.364  -2.684  33.965  0.00  0.00    +0.000 A 
ATOM     17  C   UNL     1      33.835  -1.543  33.375  0.00  0.00    +0.000 A 
ATOM     18  C   UNL     1      33.384  -0.280  33.715  0.00  0.00    +0.000 A 
ATOM     19  C   UNL     1      32.419  -0.198  34.690  0.00  0.00    +0.000 A 
ATOM     20  C   UNL     1      31.946  -1.323  35.276  0.00  0.00    +0.000 A 
ATOM     21  C   UNL     1      32.410  -2.572  34.923  0.00  0.00    +0.000 A 
ENDBRANCH   3  16
TORSDOF 3
ENDMDL
MODEL 4
REMARK VINA RESULT:      -6.4     32.706     34.363
REMARK  Name = 
REMARK  3 active torsions:
REMARK  status: ('A' for Active; 'I' for Inactive)
REMARK    1  A    between atoms: O_2  and  C_3
REMARK    2  A    between atoms: C_3  and  C_4
REMARK    3  A    between atoms: C_6  and  C_7
REMARK                            x       y       z     vdW  Elec       q    Type
REMARK                         _______ _______ _______ _____ _____    ______ ____
ROOT
ATOM      1  C   UNL     1      33.030  -4.011  33.696  0.00  0.00    +0.000 A 
ATOM      2  C   UNL     1      33.575  -4.414  32.504  0.00  0.00    +0.000 A 
ATOM      3  C   UNL     1      33.067  -5.548  31.927  0.00  0.00    +0.000 A 
ATOM      4  N   UNL     1      32.078  -6.204  32.532  0.00  0.00    +0.000 NA
ATOM      5  C   UNL     1      31.522  -5.822  33.724  0.00  0.00    +0.000 A 
ATOM      6  N   UNL     1      30.472  -6.578  34.306  0.00  0.00    +0.000 NA
ATOM      7  N   UNL     1      32.039  -4.704  34.268  0.00  0.00    +0.000 NA
ENDROOT
BRANCH   1   8
ATOM      8  C   UNL     1      33.458  -2.806  34.477  0.00  0.00    +0.000 C 
ATOM      9  C   UNL     1      33.607  -1.667  33.485  0.00  0.00    +0.000 C 
ATOM     10  C   UNL     1      34.330  -0.531  34.159  0.00  0.00    +0.000 C 
ATOM     11  C   UNL     1      34.202  -0.644  35.645  0.00  0.00    +0.000 C 
ATOM     12  C   UNL     1      32.811  -1.072  36.078  0.00  0.00    +0.000 C 
ATOM     13  C   UNL     1      32.409  -2.404  35.499  0.00  0.00    +0.000 C 
BRANCH   8  15
ATOM     14  C   UNL     1      34.556  -4.162  35.913  0.00  0.00    +0.000 C 
ATOM     15  O   UNL     1      34.670  -3.016  35.125  0.00  0.00    +0.000 OA
ENDBRANCH   8  15
ENDBRANCH   1   8
BRANCH   3  16
ATOM     16  C   UNL     1      33.562  -6.048  30.630  0.00  0.00    +0.000 A 
ATOM     17  C   UNL     1      34.442  -7.094  30.585  0.00  0.00    +0.000 A 
ATOM     18  C   UNL     1      34.912  -7.631  29.400  0.00  0.00    +0.000 A 
ATOM     19  C   UNL     1      34.457  -7.070  28.231  0.00  0.00    +0.000 A 
ATOM     20  C   UNL     1      33.582  -6.037  28.267  0.00  0.00    +0.000 A 
ATOM     21  C   UNL     1      33.128  -5.516  29.459  0.00  0.00    +0.000 A 
ENDBRANCH   3  16
TORSDOF 3
ENDMDL
MODEL 5
REMARK VINA RESULT:      -6.3     34.738     35.720
REMARK  Name = 
REMARK  3 active torsions:
REMARK  status: ('A' for Active; 'I' for Inactive)
REMARK    1  A    between atoms: O_2  and  C_3
REMARK    2  A    between atoms: C_3  and  C_4
REMARK    3  A    between atoms: C_6  and  C_7
REMARK                            x       y       z     vdW  Elec       q    Type
REMARK                         _______ _______ _______ _____ _____    ______ ____
ROOT
ATOM      1  C   UNL     1      19.595  -8.282  26.829  0.00  0.00    +0.000 A 
ATOM      2  C   UNL     1      20.698  -8.406  26.022  0.00  0.00    +0.000 A 
ATOM      3  C   UNL     1      21.091  -7.301  25.314  0.00  0.00    +0.000 A 
ATOM      4  N   UNL     1      20.401  -6.167  25.433  0.00  0.00    +0.000 NA
ATOM      5  C   UNL     1      19.295  -6.022  26.228  0.00  0.00    +0.000 A 
ATOM      6  N   UNL     1      18.614  -4.780  26.298  0.00  0.00    +0.000 NA
ATOM      7  N   UNL     1      18.933  -7.122  26.914  0.00  0.00    +0.000 NA
ENDROOT
BRANCH   1   8
ATOM      8  C   UNL     1      19.013  -9.377  27.669  0.00  0.00    +0.000 C 
ATOM      9  C   UNL     1      20.106  -9.830  28.621  0.00  0.00    +0.000 C 
ATOM     10  C   UNL     1      19.680 -11.123  29.263  0.00  0.00    +0.000 C 
ATOM     11  C   UNL     1      18.193 -11.272  29.194  0.00  0.00    +0.000 C 
ATOM     12  C   UNL     1      17.465  -9.969  29.470  0.00  0.00    +0.000 C 
ATOM     13  C   UNL     1      17.844  -8.879  28.501  0.00  0.00    +0.000 C 
BRANCH   8  15
ATOM     14  C   UNL     1      17.686  -9.991  25.947  0.00  0.00    +0.000 C 
ATOM     15  O   UNL     1      18.598 -10.455  26.896  0.00  0.00    +0.000 OA
ENDBRANCH   8  15
ENDBRANCH   1   8
BRANCH   3  16
ATOM     16  C   UNL     1      22.282  -7.320  24.444  0.00  0.00    +0.000 A 
ATOM     17  C   UNL     1      23.338  -6.490  24.703  0.00  0.00    +0.000 A 
ATOM     18  C   UNL     1      24.497  -6.489  23.947  0.00  0.00    +0.000 A 
ATOM     19  C   UNL     1      24.563  -7.371  22.896  0.00  0.00    +0.000 A 
ATOM     20  C   UNL     1      23.523  -8.197  22.634  0.00  0.00    +0.000 A 
ATOM     21  C   UNL     1      22.377  -8.181  23.400  0.00  0.00    +0.000 A 
ENDBRANCH   3  16
TORSDOF 3
ENDMDL
MODEL 6
REMARK VINA RESULT:      -6.3     19.210     19.738
REMARK  Name = 
REMARK  3 active torsions:
REMARK  status: ('A' for Active; 'I' for Inactive)
REMARK    1  A    between atoms: O_2  and  C_3
REMARK    2  A    between atoms: C_3  and  C_4
REMARK    3  A    between atoms: C_6  and  C_7
REMARK                            x       y       z     vdW  Elec       q    Type
REMARK                         _______ _______ _______ _____ _____    ______ ____
ROOT
ATOM      1  C   UNL     1      25.678   4.339  17.610  0.00  0.00    +0.000 A 
ATOM      2  C   UNL     1      24.414   4.698  18.006  0.00  0.00    +0.000 A 
ATOM      3  C   UNL     1      23.488   3.699  18.153  0.00  0.00    +0.000 A 
ATOM      4  N   UNL     1      23.843   2.437  17.912  0.00  0.00    +0.000 NA
ATOM      5  C   UNL     1      25.097   2.056  17.512  0.00  0.00    +0.000 A 
ATOM      6  N   UNL     1      25.394   0.690  17.273  0.00  0.00    +0.000 NA
ATOM      7  N   UNL     1      25.986   3.057  17.377  0.00  0.00    +0.000 NA
ENDROOT
BRANCH   1   8
ATOM      8  C   UNL     1      26.815   5.287  17.390  0.00  0.00    +0.000 C 
ATOM      9  C   UNL     1      27.133   5.916  18.735  0.00  0.00    +0.000 C 
ATOM     10  C   UNL     1      28.044   7.093  18.515  0.00  0.00    +0.000 C 
ATOM     11  C   UNL     1      28.751   6.963  17.203  0.00  0.00    +0.000 C 
ATOM     12  C   UNL     1      29.205   5.541  16.925  0.00  0.00    +0.000 C 
ATOM     13  C   UNL     1      28.059   4.562  16.907  0.00  0.00    +0.000 C 
BRANCH   8  15
ATOM     14  C   UNL     1      26.152   5.682  15.267  0.00  0.00    +0.000 C 
ATOM     15  O   UNL     1      26.486   6.285  16.480  0.00  0.00    +0.000 OA
ENDBRANCH   8  15
ENDBRANCH   1   8
BRANCH   3  16
ATOM     16  C   UNL     1      22.112   3.976  18.606  0.00  0.00    +0.000 A 
ATOM     17  C   UNL     1      21.845   5.084  19.362  0.00  0.00    +0.000 A 
ATOM     18  C   UNL     1      20.571   5.417  19.784  0.00  0.00    +0.000 A 
ATOM     19  C   UNL     1      19.546   4.581  19.412  0.00  0.00    +0.000 A 
ATOM     20  C   UNL     1      19.801   3.484  18.660  0.00  0.00    +0.000 A 
ATOM     21  C   UNL     1      21.079   3.170  18.252  0.00  0.00    +0.000 A 
ENDBRANCH   3  16
TORSDOF 3
ENDMDL
MODEL 7
REMARK VINA RESULT:      -6.3     34.721     35.721
REMARK  Name = 
REMARK  3 active torsions:
REMARK  status: ('A' for Active; 'I' for Inactive)
REMARK    1  A    between atoms: O_2  and  C_3
REMARK    2  A    between atoms: C_3  and  C_4
REMARK    3  A    between atoms: C_6  and  C_7
REMARK                            x       y       z     vdW  Elec       q    Type
REMARK                         _______ _______ _______ _____ _____    ______ ____
ROOT
ATOM      1  C   UNL     1      18.641  -7.957  26.236  0.00  0.00    +0.000 A 
ATOM      2  C   UNL     1      19.885  -8.215  25.719  0.00  0.00    +0.000 A 
ATOM      3  C   UNL     1      20.686  -7.141  25.431  0.00  0.00    +0.000 A 
ATOM      4  N   UNL     1      20.235  -5.908  25.661  0.00  0.00    +0.000 NA
ATOM      5  C   UNL     1      18.996  -5.628  26.172  0.00  0.00    +0.000 A 
ATOM      6  N   UNL     1      18.589  -4.285  26.385  0.00  0.00    +0.000 NA
ATOM      7  N   UNL     1      18.231  -6.701  26.447  0.00  0.00    +0.000 NA
ENDROOT
BRANCH   1   8
ATOM      8  C   UNL     1      17.627  -8.997  26.604  0.00  0.00    +0.000 C 
ATOM      9  C   UNL     1      16.383  -8.711  25.782  0.00  0.00    +0.000 C 
ATOM     10  C   UNL     1      15.242  -9.521  26.336  0.00  0.00    +0.000 C 
ATOM     11  C   UNL     1      15.763 -10.687  27.114  0.00  0.00    +0.000 C 
ATOM     12  C   UNL     1      16.957 -11.345  26.446  0.00  0.00    +0.000 C 
ATOM     13  C   UNL     1      18.109 -10.393  26.253  0.00  0.00    +0.000 C 
BRANCH   8  15
ATOM     14  C   UNL     1      18.483  -9.107  28.693  0.00  0.00    +0.000 C 
ATOM     15  O   UNL     1      17.308  -8.949  27.956  0.00  0.00    +0.000 OA
ENDBRANCH   8  15
ENDBRANCH   1   8
BRANCH   3  16
ATOM     16  C   UNL     1      22.052  -7.311  24.903  0.00  0.00    +0.000 A 
ATOM     17  C   UNL     1      22.615  -8.556  24.835  0.00  0.00    +0.000 A 
ATOM     18  C   UNL     1      23.876  -8.784  24.315  0.00  0.00    +0.000 A 
ATOM     19  C   UNL     1      24.573  -7.694  23.852  0.00  0.00    +0.000 A 
ATOM     20  C   UNL     1      24.021  -6.459  23.913  0.00  0.00    +0.000 A 
ATOM     21  C   UNL     1      22.763  -6.254  24.436  0.00  0.00    +0.000 A 
ENDBRANCH   3  16
TORSDOF 3
ENDMDL
MODEL 8
REMARK VINA RESULT:      -6.2     30.362     32.121
REMARK  Name = 
REMARK  3 active torsions:
REMARK  status: ('A' for Active; 'I' for Inactive)
REMARK    1  A    between atoms: O_2  and  C_3
REMARK    2  A    between atoms: C_3  and  C_4
REMARK    3  A    between atoms: C_6  and  C_7
REMARK                            x       y       z     vdW  Elec       q    Type
REMARK                         _______ _______ _______ _____ _____    ______ ____
ROOT
ATOM      1  C   UNL     1      20.716   9.841  37.853  0.00  0.00    +0.000 A 
ATOM      2  C   UNL     1      19.951   9.493  38.937  0.00  0.00    +0.000 A 
ATOM      3  C   UNL     1      18.633   9.194  38.712  0.00  0.00    +0.000 A 
ATOM      4  N   UNL     1      18.151   9.248  37.471  0.00  0.00    +0.000 NA
ATOM      5  C   UNL     1      18.896   9.597  36.375  0.00  0.00    +0.000 A 
ATOM      6  N   UNL     1      18.307   9.634  35.084  0.00  0.00    +0.000 NA
ATOM      7  N   UNL     1      20.187   9.884  36.625  0.00  0.00    +0.000 NA
ENDROOT
BRANCH   1   8
ATOM      8  C   UNL     1      22.167  10.207  37.903  0.00  0.00    +0.000 C 
ATOM      9  C   UNL     1      22.899   9.027  38.517  0.00  0.00    +0.000 C 
ATOM     10  C   UNL     1      24.296   9.459  38.877  0.00  0.00    +0.000 C 
ATOM     11  C   UNL     1      24.688  10.662  38.079  0.00  0.00    +0.000 C 
ATOM     12  C   UNL     1      24.227  10.578  36.634  0.00  0.00    +0.000 C 
ATOM     13  C   UNL     1      22.731  10.436  36.512  0.00  0.00    +0.000 C 
BRANCH   8  15
ATOM     14  C   UNL     1      21.527  12.348  38.238  0.00  0.00    +0.000 C 
ATOM     15  O   UNL     1      22.386  11.340  38.678  0.00  0.00    +0.000 OA
ENDBRANCH   8  15
ENDBRANCH   1   8
BRANCH   3  16
ATOM     16  C   UNL     1      17.733   8.777  39.805  0.00  0.00    +0.000 A 
ATOM     17  C   UNL     1      16.700   9.586  40.193  0.00  0.00    +0.000 A 
ATOM     18  C   UNL     1      15.802   9.234  41.185  0.00  0.00    +0.000 A 
ATOM     19  C   UNL     1      15.978   8.012  41.789  0.00  0.00    +0.000 A 
ATOM     20  C   UNL     1      16.996   7.205  41.407  0.00  0.00    +0.000 A 
ATOM     21  C   UNL     1      17.880   7.576  40.418  0.00  0.00    +0.000 A 
ENDBRANCH   3  16
TORSDOF 3
ENDMDL
MODEL 9
REMARK VINA RESULT:      -6.1     11.248     13.879
REMARK  Name = 
REMARK  3 active torsions:
REMARK  status: ('A' for Active; 'I' for Inactive)
REMARK    1  A    between atoms: O_2  and  C_3
REMARK    2  A    between atoms: C_3  and  C_4
REMARK    3  A    between atoms: C_6  and  C_7
REMARK                            x       y       z     vdW  Elec       q    Type
REMARK                         _______ _______ _______ _____ _____    ______ ____
ROOT
ATOM      1  C   UNL     1      28.450  24.047  24.100  0.00  0.00    +0.000 A 
ATOM      2  C   UNL     1      29.026  25.071  23.392  0.00  0.00    +0.000 A 
ATOM      3  C   UNL     1      28.463  25.403  22.187  0.00  0.00    +0.000 A 
ATOM      4  N   UNL     1      27.396  24.732  21.756  0.00  0.00    +0.000 NA
ATOM      5  C   UNL     1      26.808  23.703  22.444  0.00  0.00    +0.000 A 
ATOM      6  N   UNL     1      25.673  23.036  21.915  0.00  0.00    +0.000 NA
ATOM      7  N   UNL     1      27.380  23.400  23.624  0.00  0.00    +0.000 NA
ENDROOT
BRANCH   1   8
ATOM      8  C   UNL     1      28.928  23.540  25.425  0.00  0.00    +0.000 C 
ATOM      9  C   UNL     1      27.894  22.540  25.914  0.00  0.00    +0.000 C 
ATOM     10  C   UNL     1      28.160  22.241  27.365  0.00  0.00    +0.000 C 
ATOM     11  C   UNL     1      29.579  22.565  27.710  0.00  0.00    +0.000 C 
ATOM     12  C   UNL     1      30.552  22.151  26.619  0.00  0.00    +0.000 C 
ATOM     13  C   UNL     1      30.256  22.815  25.299  0.00  0.00    +0.000 C 
BRANCH   8  15
ATOM     14  C   UNL     1      27.900  25.349  26.306  0.00  0.00    +0.000 C 
ATOM     15  O   UNL     1      29.053  24.566  26.355  0.00  0.00    +0.000 OA
ENDBRANCH   8  15
ENDBRANCH   1   8
BRANCH   3  16
ATOM     16  C   UNL     1      28.986  26.510  21.364  0.00  0.00    +0.000 A 
ATOM     17  C   UNL     1      29.583  26.251  20.161  0.00  0.00    +0.000 A 
ATOM     18  C   UNL     1      30.059  27.248  19.328  0.00  0.00    +0.000 A 
ATOM     19  C   UNL     1      29.910  28.547  19.752  0.00  0.00    +0.000 A 
ATOM     20  C   UNL     1      29.317  28.811  20.940  0.00  0.00    +0.000 A 
ATOM     21  C   UNL     1      28.852  27.802  21.755  0.00  0.00    +0.000 A 
ENDBRANCH   3  16
TORSDOF 3
ENDMDL
MODEL 10
REMARK VINA RESULT:      -6.1     13.442     15.378
REMARK  Name = 
REMARK  3 active torsions:
REMARK  status: ('A' for Active; 'I' for Inactive)
REMARK    1  A    between atoms: O_2  and  C_3
REMARK    2  A    between atoms: C_3  and  C_4
REMARK    3  A    between atoms: C_6  and  C_7
REMARK                            x       y       z     vdW  Elec       q    Type
REMARK                         _______ _______ _______ _____ _____    ______ ____
ROOT
ATOM      1  C   UNL     1      27.654  23.930  25.042  0.00  0.00    +0.000 A 
ATOM      2  C   UNL     1      26.804  24.698  25.796  0.00  0.00    +0.000 A 
ATOM      3  C   UNL     1      25.515  24.838  25.353  0.00  0.00    +0.000 A 
ATOM      4  N   UNL     1      25.141  24.231  24.227  0.00  0.00    +0.000 NA
ATOM      5  C   UNL     1      25.974  23.463  23.457  0.00  0.00    +0.000 A 
ATOM      6  N   UNL     1      25.498  22.852  22.268  0.00  0.00    +0.000 NA
ATOM      7  N   UNL     1      27.233  23.343  23.916  0.00  0.00    +0.000 NA
ENDROOT
BRANCH   1   8
ATOM      8  C   UNL     1      29.094  23.670  25.361  0.00  0.00    +0.000 C 
ATOM      9  C   UNL     1      29.121  22.624  26.462  0.00  0.00    +0.000 C 
ATOM     10  C   UNL     1      30.512  22.559  27.032  0.00  0.00    +0.000 C 
ATOM     11  C   UNL     1      31.502  23.102  26.050  0.00  0.00    +0.000 C 
ATOM     12  C   UNL     1      31.203  22.670  24.625  0.00  0.00    +0.000 C 
ATOM     13  C   UNL     1      29.837  23.107  24.163  0.00  0.00    +0.000 C 
BRANCH   8  15
ATOM     14  C   UNL     1      29.679  25.776  24.786  0.00  0.00    +0.000 C 
ATOM     15  O   UNL     1      29.740  24.820  25.801  0.00  0.00    +0.000 OA
ENDBRANCH   8  15
ENDBRANCH   1   8
BRANCH   3  16
ATOM     16  C   UNL     1      24.514  25.616  26.107  0.00  0.00    +0.000 A 
ATOM     17  C   UNL     1      23.565  26.344  25.444  0.00  0.00    +0.000 A 
ATOM     18  C   UNL     1      22.578  27.063  26.094  0.00  0.00    +0.000 A 
ATOM     19  C   UNL     1      22.573  27.024  27.468  0.00  0.00    +0.000 A 
ATOM     20  C   UNL     1      23.508  26.303  28.132  0.00  0.00    +0.000 A 
ATOM     21  C   UNL     1      24.483  25.595  27.463  0.00  0.00    +0.000 A 
ENDBRANCH   3  16
TORSDOF 3
ENDMDL
