MODEL 1
REMARK VINA RESULT:      -7.8      0.000      0.000
REMARK  Name = 
REMARK  3 active torsions:
REMARK  status: ('A' for Active; 'I' for Inactive)
REMARK    1  A    between atoms: C_7  and  C_8
REMARK    2  A    between atoms: C_8  and  C_10
REMARK    3  A    between atoms: C_10  and  C_11
REMARK                            x       y       z     vdW  Elec       q    Type
REMARK                         _______ _______ _______ _____ _____    ______ ____
ROOT
ATOM      1  C   UNL     1      17.651   9.920  36.062  0.00  0.00    +0.000 C 
ENDROOT
BRANCH   1   2
ATOM      2  C   UNL     1      16.714  10.786  35.309  0.00  0.00    +0.000 A 
ATOM      3  C   UNL     1      15.716  11.517  35.912  0.00  0.00    +0.000 A 
ATOM      4  C   UNL     1      14.856  12.317  35.184  0.00  0.00    +0.000 A 
ATOM      5  C   UNL     1      14.962  12.418  33.817  0.00  0.00    +0.000 A 
ATOM      6  C   UNL     1      15.957  11.692  33.193  0.00  0.00    +0.000 A 
ATOM      7  C   UNL     1      16.812  10.896  33.929  0.00  0.00    +0.000 A 
ATOM      8  O   UNL     1      16.209  11.674  31.830  0.00  0.00    +0.000 OA
ATOM      9  C   UNL     1      15.845  12.612  30.818  0.00  0.00    +0.000 C 
ATOM     10  C   UNL     1      14.375  12.956  30.895  0.00  0.00    +0.000 C 
ATOM     11  C   UNL     1      14.053  13.931  31.984  0.00  0.00    +0.000 C 
ATOM     12  O   UNL     1      14.021  13.264  33.240  0.00  0.00    +0.000 OA
ENDBRANCH   1   2
BRANCH   1  13
ATOM     13  C   UNL     1      17.859  10.389  37.433  0.00  0.00    +0.000 C 
ATOM     14  O   UNL     1      17.125   9.993  38.358  0.00  0.00    +0.000 OA
BRANCH  13  21
ATOM     15  C   UNL     1      22.595  11.372  38.577  0.00  0.00    +0.000 C 
ATOM     16  C   UNL     1      21.206  11.825  38.301  0.00  0.00    +0.000 A 
ATOM     17  C   UNL     1      20.954  13.188  38.353  0.00  0.00    +0.000 A 
ATOM     18  O   UNL     1      21.944  14.094  38.648  0.00  0.00    +0.000 OA
ATOM     19  C   UNL     1      19.677  13.607  38.099  0.00  0.00    +0.000 A 
ATOM     20  C   UNL     1      18.686  12.699  37.804  0.00  0.00    +0.000 A 
ATOM     21  C   UNL     1      18.927  11.327  37.748  0.00  0.00    +0.000 A 
ATOM     22  C   UNL     1      20.218  10.914  38.005  0.00  0.00    +0.000 A 
ATOM     23  O   UNL     1      20.472   9.550  37.954  0.00  0.00    +0.000 OA
ENDBRANCH  13  21
ENDBRANCH   1  13
TORSDOF 3
ENDMDL
MODEL 2
REMARK VINA RESULT:      -7.6      3.880      8.287
REMARK  Name = 
REMARK  3 active torsions:
REMARK  status: ('A' for Active; 'I' for Inactive)
REMARK    1  A    between atoms: C_7  and  C_8
REMARK    2  A    between atoms: C_8  and  C_10
REMARK    3  A    between atoms: C_10  and  C_11
REMARK                            x       y       z     vdW  Elec       q    Type
REMARK                         _______ _______ _______ _____ _____    ______ ____
ROOT
ATOM      1  C   UNL     1      17.878  10.470  38.578  0.00  0.00    +0.000 C 
ENDROOT
BRANCH   1   2
ATOM      2  C   UNL     1      17.712   9.359  39.543  0.00  0.00    +0.000 A 
ATOM      3  C   UNL     1      16.766   9.365  40.542  0.00  0.00    +0.000 A 
ATOM      4  C   UNL     1      16.634   8.314  41.429  0.00  0.00    +0.000 A 
ATOM      5  C   UNL     1      17.448   7.210  41.351  0.00  0.00    +0.000 A 
ATOM      6  C   UNL     1      18.406   7.183  40.355  0.00  0.00    +0.000 A 
ATOM      7  C   UNL     1      18.529   8.238  39.473  0.00  0.00    +0.000 A 
ATOM      8  O   UNL     1      19.307   6.156  40.129  0.00  0.00    +0.000 OA
ATOM      9  C   UNL     1      19.255   4.786  40.528  0.00  0.00    +0.000 C 
ATOM     10  C   UNL     1      18.946   4.658  42.002  0.00  0.00    +0.000 C 
ATOM     11  C   UNL     1      17.496   4.857  42.320  0.00  0.00    +0.000 C 
ATOM     12  O   UNL     1      17.184   6.244  42.317  0.00  0.00    +0.000 OA
ENDBRANCH   1   2
BRANCH   1  13
ATOM     13  C   UNL     1      17.105  10.259  37.353  0.00  0.00    +0.000 C 
ATOM     14  O   UNL     1      17.496   9.456  36.485  0.00  0.00    +0.000 OA
BRANCH  13  21
ATOM     15  C   UNL     1      14.315  13.369  34.660  0.00  0.00    +0.000 C 
ATOM     16  C   UNL     1      14.499  12.478  35.836  0.00  0.00    +0.000 A 
ATOM     17  C   UNL     1      13.434  12.353  36.717  0.00  0.00    +0.000 A 
ATOM     18  O   UNL     1      12.251  13.023  36.519  0.00  0.00    +0.000 OA
ATOM     19  C   UNL     1      13.601  11.534  37.800  0.00  0.00    +0.000 A 
ATOM     20  C   UNL     1      14.786  10.863  37.997  0.00  0.00    +0.000 A 
ATOM     21  C   UNL     1      15.862  10.981  37.118  0.00  0.00    +0.000 A 
ATOM     22  C   UNL     1      15.685  11.809  36.030  0.00  0.00    +0.000 A 
ATOM     23  O   UNL     1      16.748  11.935  35.147  0.00  0.00    +0.000 OA
ENDBRANCH  13  21
ENDBRANCH   1  13
TORSDOF 3
ENDMDL
MODEL 3
REMARK VINA RESULT:      -7.6      2.735      3.960
REMARK  Name = 
REMARK  3 active torsions:
REMARK  status: ('A' for Active; 'I' for Inactive)
REMARK    1  A    between atoms: C_7  and  C_8
REMARK    2  A    between atoms: C_8  and  C_10
REMARK    3  A    between atoms: C_10  and  C_11
REMARK                            x       y       z     vdW  Elec       q    Type
REMARK                         _______ _______ _______ _____ _____    ______ ____
ROOT
ATOM      1  C   UNL     1      18.038   9.542  36.910  0.00  0.00    +0.000 C 
ENDROOT
BRANCH   1   2
ATOM      2  C   UNL     1      17.131  10.331  36.043  0.00  0.00    +0.000 A 
ATOM      3  C   UNL     1      16.278  11.294  36.528  0.00  0.00    +0.000 A 
ATOM      4  C   UNL     1      15.442  12.015  35.696  0.00  0.00    +0.000 A 
ATOM      5  C   UNL     1      15.429  11.797  34.339  0.00  0.00    +0.000 A 
ATOM      6  C   UNL     1      16.278  10.833  33.832  0.00  0.00    +0.000 A 
ATOM      7  C   UNL     1      17.109  10.119  34.671  0.00  0.00    +0.000 A 
ATOM      8  O   UNL     1      16.396  10.484  32.496  0.00  0.00    +0.000 OA
ATOM      9  C   UNL     1      16.039  11.213  31.322  0.00  0.00    +0.000 C 
ATOM     10  C   UNL     1      14.628  11.745  31.418  0.00  0.00    +0.000 C 
ATOM     11  C   UNL     1      14.515  12.969  32.273  0.00  0.00    +0.000 C 
ATOM     12  O   UNL     1      14.532  12.605  33.648  0.00  0.00    +0.000 OA
ENDBRANCH   1   2
BRANCH   1  13
ATOM     13  C   UNL     1      18.137  10.098  38.260  0.00  0.00    +0.000 C 
ATOM     14  O   UNL     1      18.787  11.139  38.473  0.00  0.00    +0.000 OA
BRANCH  13  21
ATOM     15  C   UNL     1      17.993   6.626  41.814  0.00  0.00    +0.000 C 
ATOM     16  C   UNL     1      17.386   7.785  41.106  0.00  0.00    +0.000 A 
ATOM     17  C   UNL     1      16.155   8.238  41.558  0.00  0.00    +0.000 A 
ATOM     18  O   UNL     1      15.512   7.645  42.618  0.00  0.00    +0.000 OA
ATOM     19  C   UNL     1      15.595   9.304  40.910  0.00  0.00    +0.000 A 
ATOM     20  C   UNL     1      16.240   9.898  39.848  0.00  0.00    +0.000 A 
ATOM     21  C   UNL     1      17.477   9.450  39.386  0.00  0.00    +0.000 A 
ATOM     22  C   UNL     1      18.034   8.376  40.046  0.00  0.00    +0.000 A 
ATOM     23  O   UNL     1      19.266   7.920  39.596  0.00  0.00    +0.000 OA
ENDBRANCH  13  21
ENDBRANCH   1  13
TORSDOF 3
ENDMDL
MODEL 4
REMARK VINA RESULT:      -7.6      2.188      3.557
REMARK  Name = 
REMARK  3 active torsions:
REMARK  status: ('A' for Active; 'I' for Inactive)
REMARK    1  A    between atoms: C_7  and  C_8
REMARK    2  A    between atoms: C_8  and  C_10
REMARK    3  A    between atoms: C_10  and  C_11
REMARK                            x       y       z     vdW  Elec       q    Type
REMARK                         _______ _______ _______ _____ _____    ______ ____
ROOT
ATOM      1  C   UNL     1      17.468  10.060  35.848  0.00  0.00    +0.000 C 
ENDROOT
BRANCH   1   2
ATOM      2  C   UNL     1      16.558  10.929  35.065  0.00  0.00    +0.000 A 
ATOM      3  C   UNL     1      15.496  11.602  35.624  0.00  0.00    +0.000 A 
ATOM      4  C   UNL     1      14.663  12.406  34.870  0.00  0.00    +0.000 A 
ATOM      5  C   UNL     1      14.861  12.569  33.520  0.00  0.00    +0.000 A 
ATOM      6  C   UNL     1      15.922  11.900  32.939  0.00  0.00    +0.000 A 
ATOM      7  C   UNL     1      16.749  11.100  33.701  0.00  0.00    +0.000 A 
ATOM      8  O   UNL     1      16.269  11.949  31.598  0.00  0.00    +0.000 OA
ATOM      9  C   UNL     1      15.946  12.918  30.601  0.00  0.00    +0.000 C 
ATOM     10  C   UNL     1      14.463  13.213  30.587  0.00  0.00    +0.000 C 
ATOM     11  C   UNL     1      14.033  14.130  31.689  0.00  0.00    +0.000 C 
ATOM     12  O   UNL     1      13.935  13.410  32.911  0.00  0.00    +0.000 OA
ENDBRANCH   1   2
BRANCH   1  13
ATOM     13  C   UNL     1      17.872  10.677  37.112  0.00  0.00    +0.000 C 
ATOM     14  O   UNL     1      18.229  11.870  37.151  0.00  0.00    +0.000 OA
BRANCH  13  21
ATOM     15  C   UNL     1      15.673   9.237  41.330  0.00  0.00    +0.000 C 
ATOM     16  C   UNL     1      16.827   9.206  40.392  0.00  0.00    +0.000 A 
ATOM     17  C   UNL     1      17.913   8.416  40.738  0.00  0.00    +0.000 A 
ATOM     18  O   UNL     1      17.934   7.687  41.902  0.00  0.00    +0.000 OA
ATOM     19  C   UNL     1      18.975   8.386  39.877  0.00  0.00    +0.000 A 
ATOM     20  C   UNL     1      18.954   9.117  38.711  0.00  0.00    +0.000 A 
ATOM     21  C   UNL     1      17.867   9.914  38.352  0.00  0.00    +0.000 A 
ATOM     22  C   UNL     1      16.801   9.938  39.227  0.00  0.00    +0.000 A 
ATOM     23  O   UNL     1      15.713  10.727  38.883  0.00  0.00    +0.000 OA
ENDBRANCH  13  21
ENDBRANCH   1  13
TORSDOF 3
ENDMDL
MODEL 5
REMARK VINA RESULT:      -7.3      1.993      7.475
REMARK  Name = 
REMARK  3 active torsions:
REMARK  status: ('A' for Active; 'I' for Inactive)
REMARK    1  A    between atoms: C_7  and  C_8
REMARK    2  A    between atoms: C_8  and  C_10
REMARK    3  A    between atoms: C_10  and  C_11
REMARK                            x       y       z     vdW  Elec       q    Type
REMARK                         _______ _______ _______ _____ _____    ______ ____
ROOT
ATOM      1  C   UNL     1      16.281  10.584  37.278  0.00  0.00    +0.000 C 
ENDROOT
BRANCH   1   2
ATOM      2  C   UNL     1      17.582  10.265  37.913  0.00  0.00    +0.000 A 
ATOM      3  C   UNL     1      17.706   9.915  39.237  0.00  0.00    +0.000 A 
ATOM      4  C   UNL     1      18.932   9.622  39.803  0.00  0.00    +0.000 A 
ATOM      5  C   UNL     1      20.088   9.669  39.060  0.00  0.00    +0.000 A 
ATOM      6  C   UNL     1      19.985  10.019  37.728  0.00  0.00    +0.000 A 
ATOM      7  C   UNL     1      18.755  10.309  37.173  0.00  0.00    +0.000 A 
ATOM      8  O   UNL     1      21.040  10.116  36.835  0.00  0.00    +0.000 OA
ATOM      9  C   UNL     1      22.345   9.539  36.892  0.00  0.00    +0.000 C 
ATOM     10  C   UNL     1      22.998   9.797  38.230  0.00  0.00    +0.000 C 
ATOM     11  C   UNL     1      22.499   8.893  39.314  0.00  0.00    +0.000 C 
ATOM     12  O   UNL     1      21.234   9.347  39.780  0.00  0.00    +0.000 OA
ENDBRANCH   1   2
BRANCH   1  13
ATOM     13  C   UNL     1      16.366  11.749  36.396  0.00  0.00    +0.000 C 
ATOM     14  O   UNL     1      16.613  12.879  36.858  0.00  0.00    +0.000 OA
BRANCH  13  21
ATOM     15  C   UNL     1      14.029  12.991  32.189  0.00  0.00    +0.000 C 
ATOM     16  C   UNL     1      15.054  12.198  32.919  0.00  0.00    +0.000 A 
ATOM     17  C   UNL     1      15.826  11.315  32.179  0.00  0.00    +0.000 A 
ATOM     18  O   UNL     1      15.659  11.170  30.823  0.00  0.00    +0.000 OA
ATOM     19  C   UNL     1      16.770  10.584  32.848  0.00  0.00    +0.000 A 
ATOM     20  C   UNL     1      16.937  10.730  34.206  0.00  0.00    +0.000 A 
ATOM     21  C   UNL     1      16.167  11.615  34.960  0.00  0.00    +0.000 A 
ATOM     22  C   UNL     1      15.219  12.347  34.276  0.00  0.00    +0.000 A 
ATOM     23  O   UNL     1      14.444  13.232  35.014  0.00  0.00    +0.000 OA
ENDBRANCH  13  21
ENDBRANCH   1  13
TORSDOF 3
ENDMDL
MODEL 6
REMARK VINA RESULT:      -7.3     27.759     30.526
REMARK  Name = 
REMARK  3 active torsions:
REMARK  status: ('A' for Active; 'I' for Inactive)
REMARK    1  A    between atoms: C_7  and  C_8
REMARK    2  A    between atoms: C_8  and  C_10
REMARK    3  A    between atoms: C_10  and  C_11
REMARK                            x       y       z     vdW  Elec       q    Type
REMARK                         _______ _______ _______ _____ _____    ______ ____
ROOT
ATOM      1  C   UNL     1      33.070  20.358  12.108  0.00  0.00    +0.000 C 
ENDROOT
BRANCH   1   2
ATOM      2  C   UNL     1      31.698  20.859  11.853  0.00  0.00    +0.000 A 
ATOM      3  C   UNL     1      30.968  20.516  10.739  0.00  0.00    +0.000 A 
ATOM      4  C   UNL     1      29.690  20.998  10.527  0.00  0.00    +0.000 A 
ATOM      5  C   UNL     1      29.092  21.848  11.426  0.00  0.00    +0.000 A 
ATOM      6  C   UNL     1      29.809  22.205  12.551  0.00  0.00    +0.000 A 
ATOM      7  C   UNL     1      31.084  21.717  12.754  0.00  0.00    +0.000 A 
ATOM      8  O   UNL     1      29.364  23.047  13.558  0.00  0.00    +0.000 OA
ATOM      9  C   UNL     1      28.035  23.420  13.921  0.00  0.00    +0.000 C 
ATOM     10  C   UNL     1      27.246  23.875  12.715  0.00  0.00    +0.000 C 
ATOM     11  C   UNL     1      26.750  22.741  11.872  0.00  0.00    +0.000 C 
ATOM     12  O   UNL     1      27.807  22.239  11.063  0.00  0.00    +0.000 OA
ENDBRANCH   1   2
BRANCH   1  13
ATOM     13  C   UNL     1      33.940  20.508  10.941  0.00  0.00    +0.000 C 
ATOM     14  O   UNL     1      34.068  19.579  10.121  0.00  0.00    +0.000 OA
BRANCH  13  21
ATOM     15  C   UNL     1      38.084  23.236  11.250  0.00  0.00    +0.000 C 
ATOM     16  C   UNL     1      36.661  23.078  10.847  0.00  0.00    +0.000 A 
ATOM     17  C   UNL     1      36.045  24.159  10.234  0.00  0.00    +0.000 A 
ATOM     18  O   UNL     1      36.716  25.336  10.003  0.00  0.00    +0.000 OA
ATOM     19  C   UNL     1      34.737  24.017   9.862  0.00  0.00    +0.000 A 
ATOM     20  C   UNL     1      34.066  22.837  10.093  0.00  0.00    +0.000 A 
ATOM     21  C   UNL     1      34.675  21.744  10.709  0.00  0.00    +0.000 A 
ATOM     22  C   UNL     1      35.994  21.897  11.079  0.00  0.00    +0.000 A 
ATOM     23  O   UNL     1      36.612  20.817  11.693  0.00  0.00    +0.000 OA
ENDBRANCH  13  21
ENDBRANCH   1  13
TORSDOF 3
ENDMDL
MODEL 7
REMARK VINA RESULT:      -7.2     18.535     20.795
REMARK  Name = 
REMARK  3 active torsions:
REMARK  status: ('A' for Active; 'I' for Inactive)
REMARK    1  A    between atoms: C_7  and  C_8
REMARK    2  A    between atoms: C_8  and  C_10
REMARK    3  A    between atoms: C_10  and  C_11
REMARK                            x       y       z     vdW  Elec       q    Type
REMARK                         _______ _______ _______ _____ _____    ______ ____
ROOT
ATOM      1  C   UNL     1      29.255  22.902  23.596  0.00  0.00    +0.000 C 
ENDROOT
BRANCH   1   2
ATOM      2  C   UNL     1      29.077  22.822  25.065  0.00  0.00    +0.000 A 
ATOM      3  C   UNL     1      30.073  22.414  25.922  0.00  0.00    +0.000 A 
ATOM      4  C   UNL     1      29.880  22.349  27.289  0.00  0.00    +0.000 A 
ATOM      5  C   UNL     1      28.675  22.692  27.854  0.00  0.00    +0.000 A 
ATOM      6  C   UNL     1      27.661  23.104  27.011  0.00  0.00    +0.000 A 
ATOM      7  C   UNL     1      27.865  23.166  25.647  0.00  0.00    +0.000 A 
ATOM      8  O   UNL     1      26.388  23.486  27.405  0.00  0.00    +0.000 OA
ATOM      9  C   UNL     1      25.918  23.931  28.677  0.00  0.00    +0.000 C 
ATOM     10  C   UNL     1      26.357  22.995  29.780  0.00  0.00    +0.000 C 
ATOM     11  C   UNL     1      27.784  23.190  30.186  0.00  0.00    +0.000 C 
ATOM     12  O   UNL     1      28.647  22.571  29.239  0.00  0.00    +0.000 OA
ENDBRANCH   1   2
BRANCH   1  13
ATOM     13  C   UNL     1      28.143  23.592  22.941  0.00  0.00    +0.000 C 
ATOM     14  O   UNL     1      27.068  23.001  22.723  0.00  0.00    +0.000 OA
BRANCH  13  21
ATOM     15  C   UNL     1      29.911  27.093  19.886  0.00  0.00    +0.000 C 
ATOM     16  C   UNL     1      29.105  26.689  21.070  0.00  0.00    +0.000 A 
ATOM     17  C   UNL     1      28.463  27.693  21.780  0.00  0.00    +0.000 A 
ATOM     18  O   UNL     1      28.561  29.013  21.413  0.00  0.00    +0.000 OA
ATOM     19  C   UNL     1      27.721  27.324  22.868  0.00  0.00    +0.000 A 
ATOM     20  C   UNL     1      27.623  26.001  23.236  0.00  0.00    +0.000 A 
ATOM     21  C   UNL     1      28.265  24.984  22.529  0.00  0.00    +0.000 A 
ATOM     22  C   UNL     1      29.009  25.366  21.433  0.00  0.00    +0.000 A 
ATOM     23  O   UNL     1      29.653  24.363  20.721  0.00  0.00    +0.000 OA
ENDBRANCH  13  21
ENDBRANCH   1  13
TORSDOF 3
ENDMDL
MODEL 8
REMARK VINA RESULT:      -7.1      2.629      8.020
REMARK  Name = 
REMARK  3 active torsions:
REMARK  status: ('A' for Active; 'I' for Inactive)
REMARK    1  A    between atoms: C_7  and  C_8
REMARK    2  A    between atoms: C_8  and  C_10
REMARK    3  A    between atoms: C_10  and  C_11
REMARK                            x       y       z     vdW  Elec       q    Type
REMARK                         _______ _______ _______ _____ _____    ______ ____
ROOT
ATOM      1  C   UNL     1      15.587  11.115  37.435  0.00  0.00    +0.000 C 
ENDROOT
BRANCH   1   2
ATOM      2  C   UNL     1      16.602  10.365  38.211  0.00  0.00    +0.000 A 
ATOM      3  C   UNL     1      17.774   9.897  37.662  0.00  0.00    +0.000 A 
ATOM      4  C   UNL     1      18.704   9.201  38.409  0.00  0.00    +0.000 A 
ATOM      5  C   UNL     1      18.496   8.943  39.743  0.00  0.00    +0.000 A 
ATOM      6  C   UNL     1      17.325   9.403  40.314  0.00  0.00    +0.000 A 
ATOM      7  C   UNL     1      16.403  10.099  39.559  0.00  0.00    +0.000 A 
ATOM      8  O   UNL     1      16.952   9.235  41.638  0.00  0.00    +0.000 OA
ATOM      9  C   UNL     1      17.751   8.949  42.786  0.00  0.00    +0.000 C 
ATOM     10  C   UNL     1      18.670   7.776  42.533  0.00  0.00    +0.000 C 
ATOM     11  C   UNL     1      19.877   8.136  41.723  0.00  0.00    +0.000 C 
ATOM     12  O   UNL     1      19.527   8.232  40.348  0.00  0.00    +0.000 OA
ENDBRANCH   1   2
BRANCH   1  13
ATOM     13  C   UNL     1      16.194  12.026  36.464  0.00  0.00    +0.000 C 
ATOM     14  O   UNL     1      16.825  13.031  36.844  0.00  0.00    +0.000 OA
BRANCH  13  21
ATOM     15  C   UNL     1      14.070  12.902  32.056  0.00  0.00    +0.000 C 
ATOM     16  C   UNL     1      15.067  12.188  32.898  0.00  0.00    +0.000 A 
ATOM     17  C   UNL     1      15.894  11.269  32.269  0.00  0.00    +0.000 A 
ATOM     18  O   UNL     1      15.804  11.020  30.921  0.00  0.00    +0.000 OA
ATOM     19  C   UNL     1      16.812  10.611  33.041  0.00  0.00    +0.000 A 
ATOM     20  C   UNL     1      16.902  10.861  34.391  0.00  0.00    +0.000 A 
ATOM     21  C   UNL     1      16.076  11.782  35.033  0.00  0.00    +0.000 A 
ATOM     22  C   UNL     1      15.154  12.441  34.247  0.00  0.00    +0.000 A 
ATOM     23  O   UNL     1      14.325  13.361  34.874  0.00  0.00    +0.000 OA
ENDBRANCH  13  21
ENDBRANCH   1  13
TORSDOF 3
ENDMDL
MODEL 9
REMARK VINA RESULT:      -6.9      7.616     11.224
REMARK  Name = 
REMARK  3 active torsions:
REMARK  status: ('A' for Active; 'I' for Inactive)
REMARK    1  A    between atoms: C_7  and  C_8
REMARK    2  A    between atoms: C_8  and  C_10
REMARK    3  A    between atoms: C_10  and  C_11
REMARK                            x       y       z     vdW  Elec       q    Type
REMARK                         _______ _______ _______ _____ _____    ______ ____
ROOT
ATOM      1  C   UNL     1      19.290  22.847  38.058  0.00  0.00    +0.000 C 
ENDROOT
BRANCH   1   2
ATOM      2  C   UNL     1      19.472  21.402  38.332  0.00  0.00    +0.000 A 
ATOM      3  C   UNL     1      18.465  20.595  38.809  0.00  0.00    +0.000 A 
ATOM      4  C   UNL     1      18.662  19.250  39.056  0.00  0.00    +0.000 A 
ATOM      5  C   UNL     1      19.882  18.657  38.832  0.00  0.00    +0.000 A 
ATOM      6  C   UNL     1      20.906  19.450  38.353  0.00  0.00    +0.000 A 
ATOM      7  C   UNL     1      20.699  20.792  38.110  0.00  0.00    +0.000 A 
ATOM      8  O   UNL     1      22.194  19.022  38.072  0.00  0.00    +0.000 OA
ATOM      9  C   UNL     1      22.687  17.708  37.810  0.00  0.00    +0.000 C 
ATOM     10  C   UNL     1      22.218  16.729  38.863  0.00  0.00    +0.000 C 
ATOM     11  C   UNL     1      20.800  16.289  38.670  0.00  0.00    +0.000 C 
ATOM     12  O   UNL     1      19.911  17.298  39.130  0.00  0.00    +0.000 OA
ENDBRANCH   1   2
BRANCH   1  13
ATOM     13  C   UNL     1      19.365  23.154  36.629  0.00  0.00    +0.000 C 
ATOM     14  O   UNL     1      20.326  23.797  36.167  0.00  0.00    +0.000 OA
BRANCH  13  21
ATOM     15  C   UNL     1      17.777  20.313  32.873  0.00  0.00    +0.000 C 
ATOM     16  C   UNL     1      17.532  21.355  33.905  0.00  0.00    +0.000 A 
ATOM     17  C   UNL     1      16.260  21.905  33.972  0.00  0.00    +0.000 A 
ATOM     18  O   UNL     1      15.257  21.508  33.121  0.00  0.00    +0.000 OA
ATOM     19  C   UNL     1      16.033  22.863  34.920  0.00  0.00    +0.000 A 
ATOM     20  C   UNL     1      17.038  23.260  35.772  0.00  0.00    +0.000 A 
ATOM     21  C   UNL     1      18.320  22.715  35.714  0.00  0.00    +0.000 A 
ATOM     22  C   UNL     1      18.540  21.749  34.755  0.00  0.00    +0.000 A 
ATOM     23  O   UNL     1      19.812  21.197  34.686  0.00  0.00    +0.000 OA
ENDBRANCH  13  21
ENDBRANCH   1  13
TORSDOF 3
ENDMDL
MODEL 10
REMARK VINA RESULT:      -6.8     17.475     19.121
REMARK  Name = 
REMARK  3 active torsions:
REMARK  status: ('A' for Active; 'I' for Inactive)
REMARK    1  A    between atoms: C_7  and  C_8
REMARK    2  A    between atoms: C_8  and  C_10
REMARK    3  A    between atoms: C_10  and  C_11
REMARK                            x       y       z     vdW  Elec       q    Type
REMARK                         _______ _______ _______ _____ _____    ______ ____
ROOT
ATOM      1  C   UNL     1      30.242  21.828  27.298  0.00  0.00    +0.000 C 
ENDROOT
BRANCH   1   2
ATOM      2  C   UNL     1      30.148  22.549  26.007  0.00  0.00    +0.000 A 
ATOM      3  C   UNL     1      31.244  23.045  25.340  0.00  0.00    +0.000 A 
ATOM      4  C   UNL     1      31.127  23.714  24.137  0.00  0.00    +0.000 A 
ATOM      5  C   UNL     1      29.899  23.913  23.551  0.00  0.00    +0.000 A 
ATOM      6  C   UNL     1      28.785  23.424  24.204  0.00  0.00    +0.000 A 
ATOM      7  C   UNL     1      28.913  22.756  25.405  0.00  0.00    +0.000 A 
ATOM      8  O   UNL     1      27.477  23.533  23.761  0.00  0.00    +0.000 OA
ATOM      9  C   UNL     1      26.970  23.774  22.448  0.00  0.00    +0.000 C 
ATOM     10  C   UNL     1      27.654  24.961  21.808  0.00  0.00    +0.000 C 
ATOM     11  C   UNL     1      29.016  24.642  21.277  0.00  0.00    +0.000 C 
ATOM     12  O   UNL     1      29.957  24.603  22.344  0.00  0.00    +0.000 OA
ENDBRANCH   1   2
BRANCH   1  13
ATOM     13  C   UNL     1      30.605  22.717  28.403  0.00  0.00    +0.000 C 
ATOM     14  O   UNL     1      30.191  23.891  28.436  0.00  0.00    +0.000 OA
BRANCH  13  21
ATOM     15  C   UNL     1      31.273  21.364  33.139  0.00  0.00    +0.000 C 
ATOM     16  C   UNL     1      31.802  21.594  31.768  0.00  0.00    +0.000 A 
ATOM     17  C   UNL     1      33.150  21.347  31.551  0.00  0.00    +0.000 A 
ATOM     18  O   UNL     1      33.974  20.906  32.559  0.00  0.00    +0.000 OA
ATOM     19  C   UNL     1      33.638  21.557  30.291  0.00  0.00    +0.000 A 
ATOM     20  C   UNL     1      32.812  21.998  29.283  0.00  0.00    +0.000 A 
ATOM     21  C   UNL     1      31.456  22.250  29.489  0.00  0.00    +0.000 A 
ATOM     22  C   UNL     1      30.973  22.035  30.763  0.00  0.00    +0.000 A 
ATOM     23  O   UNL     1      29.625  22.282  30.982  0.00  0.00    +0.000 OA
ENDBRANCH  13  21
ENDBRANCH   1  13
TORSDOF 3
ENDMDL
