MODEL 1
REMARK VINA RESULT:      -8.8      0.000      0.000
REMARK  Name = 
REMARK  6 active torsions:
REMARK  status: ('A' for Active; 'I' for Inactive)
REMARK    1  A    between atoms: C_2  and  C_3
REMARK    2  A    between atoms: C_3  and  N_4
REMARK    3  A    between atoms: C_17  and  C_18
REMARK    4  A    between atoms: N_20  and  C_21
REMARK    5  A    between atoms: C_21  and  C_22
REMARK    6  A    between atoms: C_22  and  C_23
REMARK                            x       y       z     vdW  Elec       q    Type
REMARK                         _______ _______ _______ _____ _____    ______ ____
ROOT
ATOM      1  N   UNL     1      36.123  -0.708  16.427  0.00  0.00    +0.000 N 
ATOM      2  C   UNL     1      35.137  -1.694  16.578  0.00  0.00    +0.000 C 
ATOM      3  O   UNL     1      34.334  -1.464  17.536  0.00  0.00    +0.000 OA
ATOM      4  C   UNL     1      34.877  -2.926  15.832  0.00  0.00    +0.000 A 
ATOM      5  C   UNL     1      33.538  -3.322  15.941  0.00  0.00    +0.000 A 
ATOM      6  C   UNL     1      33.079  -4.449  15.321  0.00  0.00    +0.000 A 
ATOM      7  C   UNL     1      33.965  -5.190  14.583  0.00  0.00    +0.000 A 
ATOM      8  C   UNL     1      35.287  -4.816  14.464  0.00  0.00    +0.000 A 
ATOM      9  C   UNL     1      35.753  -3.678  15.090  0.00  0.00    +0.000 A 
ATOM     10  S   UNL     1      37.481  -3.373  14.812  0.00  0.00    +0.000 S 
ATOM     11  C   UNL     1      37.873  -1.651  14.859  0.00  0.00    +0.000 A 
ATOM     12  C   UNL     1      38.963  -1.382  14.059  0.00  0.00    +0.000 A 
ATOM     13  C   UNL     1      39.428  -0.070  13.963  0.00  0.00    +0.000 A 
ATOM     14  C   UNL     1      38.808   0.946  14.659  0.00  0.00    +0.000 A 
ATOM     15  C   UNL     1      37.728   0.619  15.440  0.00  0.00    +0.000 A 
ATOM     16  C   UNL     1      37.243  -0.664  15.557  0.00  0.00    +0.000 A 
ENDROOT
BRANCH  14  17
ATOM     17  C   UNL     1      39.286   2.320  14.566  0.00  0.00    +0.000 C 
ATOM     18  O   UNL     1      40.072   2.626  13.634  0.00  0.00    +0.000 OA
ATOM     19  N   UNL     1      38.911   3.333  15.475  0.00  0.00    +0.000 NA
BRANCH  19  20
ATOM     20  C   UNL     1      39.382   4.703  15.389  0.00  0.00    +0.000 C 
BRANCH  20  21
ATOM     21  C   UNL     1      38.661   5.471  16.499  0.00  0.00    +0.000 C 
BRANCH  21  22
ATOM     22  C   UNL     1      39.686   5.825  17.501  0.00  0.00    +0.000 A 
ATOM     23  C   UNL     1      39.381   5.823  18.836  0.00  0.00    +0.000 A 
ATOM     24  C   UNL     1      40.328   6.154  19.795  0.00  0.00    +0.000 A 
ATOM     25  C   UNL     1      41.598   6.490  19.415  0.00  0.00    +0.000 A 
ATOM     26  C   UNL     1      42.643   6.851  20.408  0.00  0.00    +0.000 C 
ATOM     27  C   UNL     1      41.918   6.497  18.070  0.00  0.00    +0.000 A 
ATOM     28  C   UNL     1      40.955   6.163  17.107  0.00  0.00    +0.000 A 
ENDBRANCH  21  22
ENDBRANCH  20  21
ENDBRANCH  19  20
ENDBRANCH  14  17
BRANCH   1  29
ATOM     29  C   UNL     1      36.032   0.487  17.275  0.00  0.00    +0.000 C 
BRANCH  29  31
ATOM     30  C   UNL     1      34.824   2.364  16.206  0.00  0.00    +0.000 C 
ATOM     31  C   UNL     1      34.793   1.205  16.816  0.00  0.00    +0.000 C 
ENDBRANCH  29  31
ENDBRANCH   1  29
TORSDOF 6
ENDMDL
MODEL 2
REMARK VINA RESULT:      -8.4     23.531     26.812
REMARK  Name = 
REMARK  6 active torsions:
REMARK  status: ('A' for Active; 'I' for Inactive)
REMARK    1  A    between atoms: C_2  and  C_3
REMARK    2  A    between atoms: C_3  and  N_4
REMARK    3  A    between atoms: C_17  and  C_18
REMARK    4  A    between atoms: N_20  and  C_21
REMARK    5  A    between atoms: C_21  and  C_22
REMARK    6  A    between atoms: C_22  and  C_23
REMARK                            x       y       z     vdW  Elec       q    Type
REMARK                         _______ _______ _______ _____ _____    ______ ____
ROOT
ATOM      1  N   UNL     1      10.548   1.509  27.016  0.00  0.00    +0.000 N 
ATOM      2  C   UNL     1       9.253   1.833  26.585  0.00  0.00    +0.000 C 
ATOM      3  O   UNL     1       8.804   2.907  27.097  0.00  0.00    +0.000 OA
ATOM      4  C   UNL     1       8.341   1.158  25.662  0.00  0.00    +0.000 A 
ATOM      5  C   UNL     1       7.416   2.049  25.105  0.00  0.00    +0.000 A 
ATOM      6  C   UNL     1       6.471   1.627  24.215  0.00  0.00    +0.000 A 
ATOM      7  C   UNL     1       6.448   0.299  23.874  0.00  0.00    +0.000 A 
ATOM      8  C   UNL     1       7.351  -0.594  24.411  0.00  0.00    +0.000 A 
ATOM      9  C   UNL     1       8.306  -0.169  25.311  0.00  0.00    +0.000 A 
ATOM     10  S   UNL     1       9.370  -1.472  25.883  0.00  0.00    +0.000 S 
ATOM     11  C   UNL     1      10.981  -0.882  26.308  0.00  0.00    +0.000 A 
ATOM     12  C   UNL     1      11.922  -1.874  26.125  0.00  0.00    +0.000 A 
ATOM     13  C   UNL     1      13.260  -1.601  26.408  0.00  0.00    +0.000 A 
ATOM     14  C   UNL     1      13.641  -0.356  26.864  0.00  0.00    +0.000 A 
ATOM     15  C   UNL     1      12.661   0.591  27.027  0.00  0.00    +0.000 A 
ATOM     16  C   UNL     1      11.332   0.356  26.758  0.00  0.00    +0.000 A 
ENDROOT
BRANCH  14  17
ATOM     17  C   UNL     1      15.037  -0.061  27.162  0.00  0.00    +0.000 C 
ATOM     18  O   UNL     1      15.353   0.250  28.339  0.00  0.00    +0.000 OA
ATOM     19  N   UNL     1      16.061  -0.106  26.191  0.00  0.00    +0.000 NA
BRANCH  19  20
ATOM     20  C   UNL     1      17.453   0.187  26.481  0.00  0.00    +0.000 C 
BRANCH  20  21
ATOM     21  C   UNL     1      18.217  -1.119  26.253  0.00  0.00    +0.000 C 
BRANCH  21  22
ATOM     22  C   UNL     1      18.963  -0.957  24.989  0.00  0.00    +0.000 A 
ATOM     23  C   UNL     1      19.351   0.287  24.566  0.00  0.00    +0.000 A 
ATOM     24  C   UNL     1      20.052   0.463  23.382  0.00  0.00    +0.000 A 
ATOM     25  C   UNL     1      20.371  -0.620  22.609  0.00  0.00    +0.000 A 
ATOM     26  C   UNL     1      21.120  -0.478  21.333  0.00  0.00    +0.000 C 
ATOM     27  C   UNL     1      19.985  -1.881  23.024  0.00  0.00    +0.000 A 
ATOM     28  C   UNL     1      19.276  -2.050  24.222  0.00  0.00    +0.000 A 
ENDBRANCH  21  22
ENDBRANCH  20  21
ENDBRANCH  19  20
ENDBRANCH  14  17
BRANCH   1  29
ATOM     29  C   UNL     1      11.249   2.478  27.868  0.00  0.00    +0.000 C 
BRANCH  29  31
ATOM     30  C   UNL     1      11.756   4.504  26.540  0.00  0.00    +0.000 C 
ATOM     31  C   UNL     1      12.088   3.297  26.926  0.00  0.00    +0.000 C 
ENDBRANCH  29  31
ENDBRANCH   1  29
TORSDOF 6
ENDMDL
MODEL 3
REMARK VINA RESULT:      -8.4     25.997     29.253
REMARK  Name = 
REMARK  6 active torsions:
REMARK  status: ('A' for Active; 'I' for Inactive)
REMARK    1  A    between atoms: C_2  and  C_3
REMARK    2  A    between atoms: C_3  and  N_4
REMARK    3  A    between atoms: C_17  and  C_18
REMARK    4  A    between atoms: N_20  and  C_21
REMARK    5  A    between atoms: C_21  and  C_22
REMARK    6  A    between atoms: C_22  and  C_23
REMARK                            x       y       z     vdW  Elec       q    Type
REMARK                         _______ _______ _______ _____ _____    ______ ____
ROOT
ATOM      1  N   UNL     1      25.090  16.776  34.423  0.00  0.00    +0.000 N 
ATOM      2  C   UNL     1      24.782  17.492  33.256  0.00  0.00    +0.000 C 
ATOM      3  O   UNL     1      25.060  16.861  32.188  0.00  0.00    +0.000 OA
ATOM      4  C   UNL     1      24.205  18.822  33.060  0.00  0.00    +0.000 A 
ATOM      5  C   UNL     1      23.577  18.933  31.813  0.00  0.00    +0.000 A 
ATOM      6  C   UNL     1      22.971  20.093  31.424  0.00  0.00    +0.000 A 
ATOM      7  C   UNL     1      22.990  21.156  32.289  0.00  0.00    +0.000 A 
ATOM      8  C   UNL     1      23.603  21.066  33.521  0.00  0.00    +0.000 A 
ATOM      9  C   UNL     1      24.216  19.895  33.915  0.00  0.00    +0.000 A 
ATOM     10  S   UNL     1      24.945  19.986  35.533  0.00  0.00    +0.000 S 
ATOM     11  C   UNL     1      24.966  18.418  36.346  0.00  0.00    +0.000 A 
ATOM     12  C   UNL     1      24.912  18.582  37.714  0.00  0.00    +0.000 A 
ATOM     13  C   UNL     1      24.919  17.454  38.536  0.00  0.00    +0.000 A 
ATOM     14  C   UNL     1      24.980  16.189  37.989  0.00  0.00    +0.000 A 
ATOM     15  C   UNL     1      25.033  16.087  36.621  0.00  0.00    +0.000 A 
ATOM     16  C   UNL     1      25.027  17.178  35.782  0.00  0.00    +0.000 A 
ENDROOT
BRANCH  14  17
ATOM     17  C   UNL     1      24.987  15.004  38.837  0.00  0.00    +0.000 C 
ATOM     18  O   UNL     1      23.892  14.461  39.129  0.00  0.00    +0.000 OA
ATOM     19  N   UNL     1      26.170  14.431  39.354  0.00  0.00    +0.000 NA
BRANCH  19  20
ATOM     20  C   UNL     1      26.185  13.252  40.200  0.00  0.00    +0.000 C 
BRANCH  20  21
ATOM     21  C   UNL     1      27.657  12.979  40.521  0.00  0.00    +0.000 C 
BRANCH  21  22
ATOM     22  C   UNL     1      27.729  11.592  41.022  0.00  0.00    +0.000 A 
ATOM     23  C   UNL     1      28.699  10.739  40.567  0.00  0.00    +0.000 A 
ATOM     24  C   UNL     1      28.786   9.432  41.023  0.00  0.00    +0.000 A 
ATOM     25  C   UNL     1      27.891   8.970  41.950  0.00  0.00    +0.000 A 
ATOM     26  C   UNL     1      27.947   7.578  42.466  0.00  0.00    +0.000 C 
ATOM     27  C   UNL     1      26.908   9.821  42.417  0.00  0.00    +0.000 A 
ATOM     28  C   UNL     1      26.826  11.141  41.950  0.00  0.00    +0.000 A 
ENDBRANCH  21  22
ENDBRANCH  20  21
ENDBRANCH  19  20
ENDBRANCH  14  17
BRANCH   1  29
ATOM     29  C   UNL     1      25.554  15.391  34.275  0.00  0.00    +0.000 C 
BRANCH  29  31
ATOM     30  C   UNL     1      27.986  15.162  34.673  0.00  0.00    +0.000 C 
ATOM     31  C   UNL     1      27.001  15.499  33.878  0.00  0.00    +0.000 C 
ENDBRANCH  29  31
ENDBRANCH   1  29
TORSDOF 6
ENDMDL
MODEL 4
REMARK VINA RESULT:      -8.3      3.572      9.638
REMARK  Name = 
REMARK  6 active torsions:
REMARK  status: ('A' for Active; 'I' for Inactive)
REMARK    1  A    between atoms: C_2  and  C_3
REMARK    2  A    between atoms: C_3  and  N_4
REMARK    3  A    between atoms: C_17  and  C_18
REMARK    4  A    between atoms: N_20  and  C_21
REMARK    5  A    between atoms: C_21  and  C_22
REMARK    6  A    between atoms: C_22  and  C_23
REMARK                            x       y       z     vdW  Elec       q    Type
REMARK                         _______ _______ _______ _____ _____    ______ ____
ROOT
ATOM      1  N   UNL     1      40.513   6.214  18.442  0.00  0.00    +0.000 N 
ATOM      2  C   UNL     1      41.739   6.691  18.928  0.00  0.00    +0.000 C 
ATOM      3  O   UNL     1      41.674   7.131  20.119  0.00  0.00    +0.000 OA
ATOM      4  C   UNL     1      43.062   6.769  18.309  0.00  0.00    +0.000 A 
ATOM      5  C   UNL     1      44.082   6.792  19.269  0.00  0.00    +0.000 A 
ATOM      6  C   UNL     1      45.396   6.862  18.907  0.00  0.00    +0.000 A 
ATOM      7  C   UNL     1      45.699   6.911  17.571  0.00  0.00    +0.000 A 
ATOM      8  C   UNL     1      44.710   6.889  16.611  0.00  0.00    +0.000 A 
ATOM      9  C   UNL     1      43.381   6.818  16.974  0.00  0.00    +0.000 A 
ATOM     10  S   UNL     1      42.267   6.801  15.590  0.00  0.00    +0.000 S 
ATOM     11  C   UNL     1      40.777   5.920  15.942  0.00  0.00    +0.000 A 
ATOM     12  C   UNL     1      40.254   5.375  14.788  0.00  0.00    +0.000 A 
ATOM     13  C   UNL     1      39.072   4.638  14.859  0.00  0.00    +0.000 A 
ATOM     14  C   UNL     1      38.432   4.454  16.067  0.00  0.00    +0.000 A 
ATOM     15  C   UNL     1      38.998   5.020  17.182  0.00  0.00    +0.000 A 
ATOM     16  C   UNL     1      40.163   5.753  17.147  0.00  0.00    +0.000 A 
ENDROOT
BRANCH  14  17
ATOM     17  C   UNL     1      37.197   3.685  16.152  0.00  0.00    +0.000 C 
ATOM     18  O   UNL     1      36.221   4.025  15.436  0.00  0.00    +0.000 OA
ATOM     19  N   UNL     1      37.037   2.571  17.004  0.00  0.00    +0.000 NA
BRANCH  19  20
ATOM     20  C   UNL     1      35.810   1.801  17.095  0.00  0.00    +0.000 C 
BRANCH  20  21
ATOM     21  C   UNL     1      36.033   0.547  16.246  0.00  0.00    +0.000 C 
BRANCH  21  22
ATOM     22  C   UNL     1      36.701  -0.440  17.117  0.00  0.00    +0.000 A 
ATOM     23  C   UNL     1      37.673  -1.265  16.615  0.00  0.00    +0.000 A 
ATOM     24  C   UNL     1      38.313  -2.199  17.415  0.00  0.00    +0.000 A 
ATOM     25  C   UNL     1      37.979  -2.311  18.738  0.00  0.00    +0.000 A 
ATOM     26  C   UNL     1      38.640  -3.299  19.631  0.00  0.00    +0.000 C 
ATOM     27  C   UNL     1      37.000  -1.485  19.257  0.00  0.00    +0.000 A 
ATOM     28  C   UNL     1      36.357  -0.544  18.441  0.00  0.00    +0.000 A 
ENDBRANCH  21  22
ENDBRANCH  20  21
ENDBRANCH  19  20
ENDBRANCH  14  17
BRANCH   1  29
ATOM     29  C   UNL     1      39.380   6.162  19.375  0.00  0.00    +0.000 C 
BRANCH  29  31
ATOM     30  C   UNL     1      38.438   8.205  20.407  0.00  0.00    +0.000 C 
ATOM     31  C   UNL     1      38.768   7.535  19.330  0.00  0.00    +0.000 C 
ENDBRANCH  29  31
ENDBRANCH   1  29
TORSDOF 6
ENDMDL
MODEL 5
REMARK VINA RESULT:      -8.1      3.668      9.438
REMARK  Name = 
REMARK  6 active torsions:
REMARK  status: ('A' for Active; 'I' for Inactive)
REMARK    1  A    between atoms: C_2  and  C_3
REMARK    2  A    between atoms: C_3  and  N_4
REMARK    3  A    between atoms: C_17  and  C_18
REMARK    4  A    between atoms: N_20  and  C_21
REMARK    5  A    between atoms: C_21  and  C_22
REMARK    6  A    between atoms: C_22  and  C_23
REMARK                            x       y       z     vdW  Elec       q    Type
REMARK                         _______ _______ _______ _____ _____    ______ ____
ROOT
ATOM      1  N   UNL     1      40.212   6.256  18.400  0.00  0.00    +0.000 N 
ATOM      2  C   UNL     1      40.970   6.481  19.558  0.00  0.00    +0.000 C 
ATOM      3  O   UNL     1      40.262   6.673  20.596  0.00  0.00    +0.000 OA
ATOM      4  C   UNL     1      42.416   6.531  19.775  0.00  0.00    +0.000 A 
ATOM      5  C   UNL     1      42.749   6.241  21.104  0.00  0.00    +0.000 A 
ATOM      6  C   UNL     1      44.048   6.232  21.524  0.00  0.00    +0.000 A 
ATOM      7  C   UNL     1      45.028   6.517  20.609  0.00  0.00    +0.000 A 
ATOM      8  C   UNL     1      44.720   6.805  19.296  0.00  0.00    +0.000 A 
ATOM      9  C   UNL     1      43.408   6.814  18.869  0.00  0.00    +0.000 A 
ATOM     10  S   UNL     1      43.225   7.207  17.146  0.00  0.00    +0.000 S 
ATOM     11  C   UNL     1      41.797   6.449  16.435  0.00  0.00    +0.000 A 
ATOM     12  C   UNL     1      41.993   6.215  15.091  0.00  0.00    +0.000 A 
ATOM     13  C   UNL     1      40.974   5.619  14.348  0.00  0.00    +0.000 A 
ATOM     14  C   UNL     1      39.782   5.267  14.949  0.00  0.00    +0.000 A 
ATOM     15  C   UNL     1      39.643   5.525  16.289  0.00  0.00    +0.000 A 
ATOM     16  C   UNL     1      40.629   6.111  17.051  0.00  0.00    +0.000 A 
ENDROOT
BRANCH  14  17
ATOM     17  C   UNL     1      38.711   4.644  14.182  0.00  0.00    +0.000 C 
ATOM     18  O   UNL     1      38.974   3.631  13.486  0.00  0.00    +0.000 OA
ATOM     19  N   UNL     1      37.382   5.122  14.180  0.00  0.00    +0.000 NA
BRANCH  19  20
ATOM     20  C   UNL     1      36.310   4.507  13.420  0.00  0.00    +0.000 C 
BRANCH  20  21
ATOM     21  C   UNL     1      35.153   4.308  14.402  0.00  0.00    +0.000 C 
BRANCH  21  22
ATOM     22  C   UNL     1      35.293   2.945  14.950  0.00  0.00    +0.000 A 
ATOM     23  C   UNL     1      34.780   2.635  16.181  0.00  0.00    +0.000 A 
ATOM     24  C   UNL     1      34.901   1.361  16.716  0.00  0.00    +0.000 A 
ATOM     25  C   UNL     1      35.543   0.380  16.010  0.00  0.00    +0.000 A 
ATOM     26  C   UNL     1      35.695  -0.998  16.544  0.00  0.00    +0.000 C 
ATOM     27  C   UNL     1      36.065   0.680  14.766  0.00  0.00    +0.000 A 
ATOM     28  C   UNL     1      35.940   1.971  14.233  0.00  0.00    +0.000 A 
ENDBRANCH  21  22
ENDBRANCH  20  21
ENDBRANCH  19  20
ENDBRANCH  14  17
BRANCH   1  29
ATOM     29  C   UNL     1      38.755   6.145  18.545  0.00  0.00    +0.000 C 
BRANCH  29  31
ATOM     30  C   UNL     1      37.639   8.226  17.802  0.00  0.00    +0.000 C 
ATOM     31  C   UNL     1      38.268   7.556  18.736  0.00  0.00    +0.000 C 
ENDBRANCH  29  31
ENDBRANCH   1  29
TORSDOF 6
ENDMDL
MODEL 6
REMARK VINA RESULT:      -8.0      2.382      3.744
REMARK  Name = 
REMARK  6 active torsions:
REMARK  status: ('A' for Active; 'I' for Inactive)
REMARK    1  A    between atoms: C_2  and  C_3
REMARK    2  A    between atoms: C_3  and  N_4
REMARK    3  A    between atoms: C_17  and  C_18
REMARK    4  A    between atoms: N_20  and  C_21
REMARK    5  A    between atoms: C_21  and  C_22
REMARK    6  A    between atoms: C_22  and  C_23
REMARK                            x       y       z     vdW  Elec       q    Type
REMARK                         _______ _______ _______ _____ _____    ______ ____
ROOT
ATOM      1  N   UNL     1      39.108   0.116  14.879  0.00  0.00    +0.000 N 
ATOM      2  C   UNL     1      39.400  -1.225  15.171  0.00  0.00    +0.000 C 
ATOM      3  O   UNL     1      40.578  -1.570  14.837  0.00  0.00    +0.000 OA
ATOM      4  C   UNL     1      38.595  -2.280  15.785  0.00  0.00    +0.000 A 
ATOM      5  C   UNL     1      39.396  -3.265  16.374  0.00  0.00    +0.000 A 
ATOM      6  C   UNL     1      38.847  -4.344  17.005  0.00  0.00    +0.000 A 
ATOM      7  C   UNL     1      37.480  -4.443  17.049  0.00  0.00    +0.000 A 
ATOM      8  C   UNL     1      36.674  -3.483  16.475  0.00  0.00    +0.000 A 
ATOM      9  C   UNL     1      37.227  -2.392  15.837  0.00  0.00    +0.000 A 
ATOM     10  S   UNL     1      36.020  -1.275  15.166  0.00  0.00    +0.000 S 
ATOM     11  C   UNL     1      36.604   0.392  15.120  0.00  0.00    +0.000 A 
ATOM     12  C   UNL     1      35.551   1.276  15.225  0.00  0.00    +0.000 A 
ATOM     13  C   UNL     1      35.808   2.647  15.208  0.00  0.00    +0.000 A 
ATOM     14  C   UNL     1      37.100   3.115  15.088  0.00  0.00    +0.000 A 
ATOM     15  C   UNL     1      38.108   2.189  14.986  0.00  0.00    +0.000 A 
ATOM     16  C   UNL     1      37.889   0.831  14.999  0.00  0.00    +0.000 A 
ENDROOT
BRANCH  14  17
ATOM     17  C   UNL     1      37.381   4.545  15.069  0.00  0.00    +0.000 C 
ATOM     18  O   UNL     1      36.569   5.315  14.496  0.00  0.00    +0.000 OA
ATOM     19  N   UNL     1      38.527   5.116  15.665  0.00  0.00    +0.000 NA
BRANCH  19  20
ATOM     20  C   UNL     1      38.814   6.539  15.651  0.00  0.00    +0.000 C 
BRANCH  20  21
ATOM     21  C   UNL     1      38.361   7.076  17.011  0.00  0.00    +0.000 C 
BRANCH  21  22
ATOM     22  C   UNL     1      39.484   6.862  17.944  0.00  0.00    +0.000 A 
ATOM     23  C   UNL     1      39.257   6.747  19.290  0.00  0.00    +0.000 A 
ATOM     24  C   UNL     1      40.297   6.546  20.185  0.00  0.00    +0.000 A 
ATOM     25  C   UNL     1      41.584   6.457  19.730  0.00  0.00    +0.000 A 
ATOM     26  C   UNL     1      42.729   6.243  20.653  0.00  0.00    +0.000 C 
ATOM     27  C   UNL     1      41.828   6.573  18.374  0.00  0.00    +0.000 A 
ATOM     28  C   UNL     1      40.771   6.777  17.475  0.00  0.00    +0.000 A 
ENDBRANCH  21  22
ENDBRANCH  20  21
ENDBRANCH  19  20
ENDBRANCH  14  17
BRANCH   1  29
ATOM     29  C   UNL     1      40.196   0.958  14.365  0.00  0.00    +0.000 C 
BRANCH  29  31
ATOM     30  C   UNL     1      41.051   0.561  12.076  0.00  0.00    +0.000 C 
ATOM     31  C   UNL     1      40.064   0.903  12.867  0.00  0.00    +0.000 C 
ENDBRANCH  29  31
ENDBRANCH   1  29
TORSDOF 6
ENDMDL
MODEL 7
REMARK VINA RESULT:      -7.9      4.063      8.272
REMARK  Name = 
REMARK  6 active torsions:
REMARK  status: ('A' for Active; 'I' for Inactive)
REMARK    1  A    between atoms: C_2  and  C_3
REMARK    2  A    between atoms: C_3  and  N_4
REMARK    3  A    between atoms: C_17  and  C_18
REMARK    4  A    between atoms: N_20  and  C_21
REMARK    5  A    between atoms: C_21  and  C_22
REMARK    6  A    between atoms: C_22  and  C_23
REMARK                            x       y       z     vdW  Elec       q    Type
REMARK                         _______ _______ _______ _____ _____    ______ ____
ROOT
ATOM      1  N   UNL     1      37.347   2.054  13.249  0.00  0.00    +0.000 N 
ATOM      2  C   UNL     1      37.551   2.949  12.189  0.00  0.00    +0.000 C 
ATOM      3  O   UNL     1      38.521   2.624  11.433  0.00  0.00    +0.000 OA
ATOM      4  C   UNL     1      36.851   4.176  11.807  0.00  0.00    +0.000 A 
ATOM      5  C   UNL     1      37.003   4.455  10.444  0.00  0.00    +0.000 A 
ATOM      6  C   UNL     1      36.429   5.556   9.876  0.00  0.00    +0.000 A 
ATOM      7  C   UNL     1      35.694   6.390  10.678  0.00  0.00    +0.000 A 
ATOM      8  C   UNL     1      35.532   6.132  12.023  0.00  0.00    +0.000 A 
ATOM      9  C   UNL     1      36.111   5.020  12.598  0.00  0.00    +0.000 A 
ATOM     10  S   UNL     1      35.784   4.870  14.338  0.00  0.00    +0.000 S 
ATOM     11  C   UNL     1      35.768   3.186  14.873  0.00  0.00    +0.000 A 
ATOM     12  C   UNL     1      34.935   3.033  15.960  0.00  0.00    +0.000 A 
ATOM     13  C   UNL     1      34.787   1.768  16.531  0.00  0.00    +0.000 A 
ATOM     14  C   UNL     1      35.466   0.683  16.016  0.00  0.00    +0.000 A 
ATOM     15  C   UNL     1      36.281   0.896  14.933  0.00  0.00    +0.000 A 
ATOM     16  C   UNL     1      36.449   2.129  14.346  0.00  0.00    +0.000 A 
ENDROOT
BRANCH  14  17
ATOM     17  C   UNL     1      35.319  -0.642  16.604  0.00  0.00    +0.000 C 
ATOM     18  O   UNL     1      34.208  -0.966  17.097  0.00  0.00    +0.000 OA
ATOM     19  N   UNL     1      36.366  -1.588  16.651  0.00  0.00    +0.000 NA
BRANCH  19  20
ATOM     20  C   UNL     1      36.227  -2.909  17.236  0.00  0.00    +0.000 C 
BRANCH  20  21
ATOM     21  C   UNL     1      36.523  -3.904  16.110  0.00  0.00    +0.000 C 
BRANCH  21  22
ATOM     22  C   UNL     1      37.790  -3.473  15.489  0.00  0.00    +0.000 A 
ATOM     23  C   UNL     1      38.943  -3.422  16.226  0.00  0.00    +0.000 A 
ATOM     24  C   UNL     1      40.145  -3.019  15.662  0.00  0.00    +0.000 A 
ATOM     25  C   UNL     1      40.197  -2.664  14.342  0.00  0.00    +0.000 A 
ATOM     26  C   UNL     1      41.463  -2.227  13.697  0.00  0.00    +0.000 C 
ATOM     27  C   UNL     1      39.040  -2.711  13.587  0.00  0.00    +0.000 A 
ATOM     28  C   UNL     1      37.829  -3.118  14.164  0.00  0.00    +0.000 A 
ENDBRANCH  21  22
ENDBRANCH  20  21
ENDBRANCH  19  20
ENDBRANCH  14  17
BRANCH   1  29
ATOM     29  C   UNL     1      38.159   0.832  13.281  0.00  0.00    +0.000 C 
BRANCH  29  31
ATOM     30  C   UNL     1      40.477   1.282  14.025  0.00  0.00    +0.000 C 
ATOM     31  C   UNL     1      39.216   1.086  14.321  0.00  0.00    +0.000 C 
ENDBRANCH  29  31
ENDBRANCH   1  29
TORSDOF 6
ENDMDL
MODEL 8
REMARK VINA RESULT:      -7.8      4.370      5.891
REMARK  Name = 
REMARK  6 active torsions:
REMARK  status: ('A' for Active; 'I' for Inactive)
REMARK    1  A    between atoms: C_2  and  C_3
REMARK    2  A    between atoms: C_3  and  N_4
REMARK    3  A    between atoms: C_17  and  C_18
REMARK    4  A    between atoms: N_20  and  C_21
REMARK    5  A    between atoms: C_21  and  C_22
REMARK    6  A    between atoms: C_22  and  C_23
REMARK                            x       y       z     vdW  Elec       q    Type
REMARK                         _______ _______ _______ _____ _____    ______ ____
ROOT
ATOM      1  N   UNL     1      37.623   0.368  14.312  0.00  0.00    +0.000 N 
ATOM      2  C   UNL     1      38.138  -0.856  14.766  0.00  0.00    +0.000 C 
ATOM      3  O   UNL     1      38.929  -1.410  13.939  0.00  0.00    +0.000 OA
ATOM      4  C   UNL     1      37.924  -1.594  16.011  0.00  0.00    +0.000 A 
ATOM      5  C   UNL     1      38.995  -2.450  16.294  0.00  0.00    +0.000 A 
ATOM      6  C   UNL     1      39.000  -3.235  17.412  0.00  0.00    +0.000 A 
ATOM      7  C   UNL     1      37.924  -3.166  18.258  0.00  0.00    +0.000 A 
ATOM      8  C   UNL     1      36.860  -2.329  17.997  0.00  0.00    +0.000 A 
ATOM      9  C   UNL     1      36.853  -1.535  16.868  0.00  0.00    +0.000 A 
ATOM     10  S   UNL     1      35.394  -0.532  16.716  0.00  0.00    +0.000 S 
ATOM     11  C   UNL     1      35.707   0.976  15.850  0.00  0.00    +0.000 A 
ATOM     12  C   UNL     1      34.842   1.963  16.272  0.00  0.00    +0.000 A 
ATOM     13  C   UNL     1      34.931   3.234  15.704  0.00  0.00    +0.000 A 
ATOM     14  C   UNL     1      35.872   3.503  14.732  0.00  0.00    +0.000 A 
ATOM     15  C   UNL     1      36.706   2.482  14.352  0.00  0.00    +0.000 A 
ATOM     16  C   UNL     1      36.645   1.217  14.891  0.00  0.00    +0.000 A 
ENDROOT
BRANCH  14  17
ATOM     17  C   UNL     1      35.974   4.827  14.132  0.00  0.00    +0.000 C 
ATOM     18  O   UNL     1      36.454   5.767  14.815  0.00  0.00    +0.000 OA
ATOM     19  N   UNL     1      35.558   5.113  12.813  0.00  0.00    +0.000 NA
BRANCH  19  20
ATOM     20  C   UNL     1      35.657   6.429  12.208  0.00  0.00    +0.000 C 
BRANCH  20  21
ATOM     21  C   UNL     1      34.231   6.984  12.166  0.00  0.00    +0.000 C 
BRANCH  21  22
ATOM     22  C   UNL     1      34.156   8.033  13.201  0.00  0.00    +0.000 A 
ATOM     23  C   UNL     1      33.654   7.749  14.443  0.00  0.00    +0.000 A 
ATOM     24  C   UNL     1      33.572   8.720  15.431  0.00  0.00    +0.000 A 
ATOM     25  C   UNL     1      34.000   9.994  15.174  0.00  0.00    +0.000 A 
ATOM     26  C   UNL     1      33.932  11.066  16.202  0.00  0.00    +0.000 C 
ATOM     27  C   UNL     1      34.508  10.294  13.924  0.00  0.00    +0.000 A 
ATOM     28  C   UNL     1      34.586   9.308  12.931  0.00  0.00    +0.000 A 
ENDBRANCH  21  22
ENDBRANCH  20  21
ENDBRANCH  19  20
ENDBRANCH  14  17
BRANCH   1  29
ATOM     29  C   UNL     1      38.141   0.901  13.046  0.00  0.00    +0.000 C 
BRANCH  29  31
ATOM     30  C   UNL     1      37.109   1.003  10.799  0.00  0.00    +0.000 C 
ATOM     31  C   UNL     1      37.138   0.490  12.004  0.00  0.00    +0.000 C 
ENDBRANCH  29  31
ENDBRANCH   1  29
TORSDOF 6
ENDMDL
MODEL 9
REMARK VINA RESULT:      -7.7     24.392     27.674
REMARK  Name = 
REMARK  6 active torsions:
REMARK  status: ('A' for Active; 'I' for Inactive)
REMARK    1  A    between atoms: C_2  and  C_3
REMARK    2  A    between atoms: C_3  and  N_4
REMARK    3  A    between atoms: C_17  and  C_18
REMARK    4  A    between atoms: N_20  and  C_21
REMARK    5  A    between atoms: C_21  and  C_22
REMARK    6  A    between atoms: C_22  and  C_23
REMARK                            x       y       z     vdW  Elec       q    Type
REMARK                         _______ _______ _______ _____ _____    ______ ____
ROOT
ATOM      1  N   UNL     1      12.005   1.265  30.840  0.00  0.00    +0.000 N 
ATOM      2  C   UNL     1      11.313   2.051  31.774  0.00  0.00    +0.000 C 
ATOM      3  O   UNL     1      11.483   1.673  32.976  0.00  0.00    +0.000 OA
ATOM      4  C   UNL     1      10.442   3.214  31.605  0.00  0.00    +0.000 A 
ATOM      5  C   UNL     1      10.402   4.001  32.762  0.00  0.00    +0.000 A 
ATOM      6  C   UNL     1       9.648   5.138  32.822  0.00  0.00    +0.000 A 
ATOM      7  C   UNL     1       8.924   5.495  31.714  0.00  0.00    +0.000 A 
ATOM      8  C   UNL     1       8.951   4.733  30.565  0.00  0.00    +0.000 A 
ATOM      9  C   UNL     1       9.712   3.584  30.503  0.00  0.00    +0.000 A 
ATOM     10  S   UNL     1       9.609   2.749  28.938  0.00  0.00    +0.000 S 
ATOM     11  C   UNL     1      11.087   1.859  28.556  0.00  0.00    +0.000 A 
ATOM     12  C   UNL     1      11.262   1.775  27.191  0.00  0.00    +0.000 A 
ATOM     13  C   UNL     1      12.378   1.107  26.688  0.00  0.00    +0.000 A 
ATOM     14  C   UNL     1      13.297   0.536  27.543  0.00  0.00    +0.000 A 
ATOM     15  C   UNL     1      13.071   0.650  28.892  0.00  0.00    +0.000 A 
ATOM     16  C   UNL     1      11.981   1.303  29.422  0.00  0.00    +0.000 A 
ENDROOT
BRANCH  14  17
ATOM     17  C   UNL     1      14.467  -0.165  27.028  0.00  0.00    +0.000 C 
ATOM     18  O   UNL     1      14.310  -1.286  26.482  0.00  0.00    +0.000 OA
ATOM     19  N   UNL     1      15.777   0.353  27.111  0.00  0.00    +0.000 NA
BRANCH  19  20
ATOM     20  C   UNL     1      16.947  -0.338  26.601  0.00  0.00    +0.000 C 
BRANCH  20  21
ATOM     21  C   UNL     1      17.928   0.753  26.165  0.00  0.00    +0.000 C 
BRANCH  21  22
ATOM     22  C   UNL     1      18.728   0.185  25.062  0.00  0.00    +0.000 A 
ATOM     23  C   UNL     1      18.745  -1.167  24.840  0.00  0.00    +0.000 A 
ATOM     24  C   UNL     1      19.490  -1.723  23.811  0.00  0.00    +0.000 A 
ATOM     25  C   UNL     1      20.230  -0.916  22.989  0.00  0.00    +0.000 A 
ATOM     26  C   UNL     1      21.043  -1.469  21.875  0.00  0.00    +0.000 C 
ATOM     27  C   UNL     1      20.222   0.449  23.203  0.00  0.00    +0.000 A 
ATOM     28  C   UNL     1      19.467   1.003  24.246  0.00  0.00    +0.000 A 
ENDBRANCH  21  22
ENDBRANCH  20  21
ENDBRANCH  19  20
ENDBRANCH  14  17
BRANCH   1  29
ATOM     29  C   UNL     1      12.907   0.227  31.352  0.00  0.00    +0.000 C 
BRANCH  29  31
ATOM     30  C   UNL     1      12.597  -2.229  31.336  0.00  0.00    +0.000 C 
ATOM     31  C   UNL     1      12.078  -1.028  31.402  0.00  0.00    +0.000 C 
ENDBRANCH  29  31
ENDBRANCH   1  29
TORSDOF 6
ENDMDL
MODEL 10
REMARK VINA RESULT:      -7.5      6.041      8.002
REMARK  Name = 
REMARK  6 active torsions:
REMARK  status: ('A' for Active; 'I' for Inactive)
REMARK    1  A    between atoms: C_2  and  C_3
REMARK    2  A    between atoms: C_3  and  N_4
REMARK    3  A    between atoms: C_17  and  C_18
REMARK    4  A    between atoms: N_20  and  C_21
REMARK    5  A    between atoms: C_21  and  C_22
REMARK    6  A    between atoms: C_22  and  C_23
REMARK                            x       y       z     vdW  Elec       q    Type
REMARK                         _______ _______ _______ _____ _____    ______ ____
ROOT
ATOM      1  N   UNL     1      36.637   2.062  14.792  0.00  0.00    +0.000 N 
ATOM      2  C   UNL     1      36.148   1.408  15.932  0.00  0.00    +0.000 C 
ATOM      3  O   UNL     1      36.027   2.173  16.941  0.00  0.00    +0.000 OA
ATOM      4  C   UNL     1      35.759   0.016  16.158  0.00  0.00    +0.000 A 
ATOM      5  C   UNL     1      34.848  -0.101  17.215  0.00  0.00    +0.000 A 
ATOM      6  C   UNL     1      34.353  -1.315  17.595  0.00  0.00    +0.000 A 
ATOM      7  C   UNL     1      34.772  -2.428  16.914  0.00  0.00    +0.000 A 
ATOM      8  C   UNL     1      35.668  -2.334  15.870  0.00  0.00    +0.000 A 
ATOM      9  C   UNL     1      36.169  -1.108  15.484  0.00  0.00    +0.000 A 
ATOM     10  S   UNL     1      37.306  -1.203  14.122  0.00  0.00    +0.000 S 
ATOM     11  C   UNL     1      37.293   0.263  13.136  0.00  0.00    +0.000 A 
ATOM     12  C   UNL     1      37.631  -0.029  11.832  0.00  0.00    +0.000 A 
ATOM     13  C   UNL     1      37.676   1.002  10.893  0.00  0.00    +0.000 A 
ATOM     14  C   UNL     1      37.387   2.299  11.263  0.00  0.00    +0.000 A 
ATOM     15  C   UNL     1      37.057   2.530  12.575  0.00  0.00    +0.000 A 
ATOM     16  C   UNL     1      37.003   1.537  13.526  0.00  0.00    +0.000 A 
ENDROOT
BRANCH  14  17
ATOM     17  C   UNL     1      37.431   3.384  10.291  0.00  0.00    +0.000 C 
ATOM     18  O   UNL     1      38.137   4.394  10.541  0.00  0.00    +0.000 OA
ATOM     19  N   UNL     1      36.716   3.361   9.073  0.00  0.00    +0.000 NA
BRANCH  19  20
ATOM     20  C   UNL     1      36.755   4.437   8.100  0.00  0.00    +0.000 C 
BRANCH  20  21
ATOM     21  C   UNL     1      35.900   3.972   6.919  0.00  0.00    +0.000 C 
BRANCH  21  22
ATOM     22  C   UNL     1      34.985   5.084   6.596  0.00  0.00    +0.000 A 
ATOM     23  C   UNL     1      34.566   5.288   5.308  0.00  0.00    +0.000 A 
ATOM     24  C   UNL     1      33.708   6.327   4.981  0.00  0.00    +0.000 A 
ATOM     25  C   UNL     1      33.258   7.175   5.957  0.00  0.00    +0.000 A 
ATOM     26  C   UNL     1      32.337   8.301   5.652  0.00  0.00    +0.000 C 
ATOM     27  C   UNL     1      33.674   6.980   7.261  0.00  0.00    +0.000 A 
ATOM     28  C   UNL     1      34.543   5.928   7.582  0.00  0.00    +0.000 A 
ENDBRANCH  21  22
ENDBRANCH  20  21
ENDBRANCH  19  20
ENDBRANCH  14  17
BRANCH   1  29
ATOM     29  C   UNL     1      36.817   3.518  14.862  0.00  0.00    +0.000 C 
BRANCH  29  31
ATOM     30  C   UNL     1      38.553   4.589  16.263  0.00  0.00    +0.000 C 
ATOM     31  C   UNL     1      38.229   3.718  15.340  0.00  0.00    +0.000 C 
ENDBRANCH  29  31
ENDBRANCH   1  29
TORSDOF 6
ENDMDL
