MODEL 1
REMARK VINA RESULT:      -6.7      0.000      0.000
REMARK  Name = 
REMARK  3 active torsions:
REMARK  status: ('A' for Active; 'I' for Inactive)
REMARK    1  A    between atoms: C_10  and  C_11
REMARK    2  A    between atoms: C_11  and  C_12
REMARK    3  A    between atoms: C_12  and  N_13
REMARK                            x       y       z     vdW  Elec       q    Type
REMARK                         _______ _______ _______ _____ _____    ______ ____
ROOT
ATOM      1  C   UNL     1      26.151  23.122  25.872  0.00  0.00    +0.000 C 
ENDROOT
BRANCH   1  11
ATOM      2  C   UNL     1      25.313  24.750  28.380  0.00  0.00    +0.000 C 
ATOM      3  C   UNL     1      26.633  24.121  28.145  0.00  0.00    +0.000 A 
ATOM      4  N   UNL     1      27.688  24.162  29.000  0.00  0.00    +0.000 NA
ATOM      5  C   UNL     1      28.720  23.488  28.463  0.00  0.00    +0.000 A 
ATOM      6  C   UNL     1      30.005  23.230  28.916  0.00  0.00    +0.000 A 
ATOM      7  C   UNL     1      30.849  22.490  28.116  0.00  0.00    +0.000 A 
ATOM      8  C   UNL     1      30.467  21.999  26.892  0.00  0.00    +0.000 A 
ATOM      9  C   UNL     1      29.188  22.271  26.472  0.00  0.00    +0.000 A 
ATOM     10  C   UNL     1      28.298  23.004  27.225  0.00  0.00    +0.000 A 
ATOM     11  C   UNL     1      26.995  23.404  27.032  0.00  0.00    +0.000 A 
ENDBRANCH   1  11
BRANCH   1  12
ATOM     12  C   UNL     1      26.124  24.289  24.945  0.00  0.00    +0.000 C 
BRANCH  12  13
ATOM     13  N   UNL     1      26.874  24.048  23.730  0.00  0.00    +0.000 N 
ATOM     14  C   UNL     1      26.342  23.462  22.545  0.00  0.00    +0.000 C 
ATOM     15  O   UNL     1      25.267  22.780  22.483  0.00  0.00    +0.000 OA
ATOM     16  O   UNL     1      27.199  23.762  21.467  0.00  0.00    +0.000 OA
ATOM     17  C   UNL     1      28.071  24.772  21.943  0.00  0.00    +0.000 C 
ATOM     18  C   UNL     1      29.369  24.845  21.210  0.00  0.00    +0.000 C 
ATOM     19  C   UNL     1      27.333  26.112  21.954  0.00  0.00    +0.000 C 
ATOM     20  C   UNL     1      28.260  24.310  23.397  0.00  0.00    +0.000 C 
ATOM     21  C   UNL     1      28.921  25.319  24.253  0.00  0.00    +0.000 C 
ATOM     22  O   UNL     1      28.926  23.081  23.329  0.00  0.00    +0.000 OA
ENDBRANCH  12  13
ENDBRANCH   1  12
TORSDOF 3
ENDMDL
MODEL 2
REMARK VINA RESULT:      -6.6      1.200      2.507
REMARK  Name = 
REMARK  3 active torsions:
REMARK  status: ('A' for Active; 'I' for Inactive)
REMARK    1  A    between atoms: C_10  and  C_11
REMARK    2  A    between atoms: C_11  and  C_12
REMARK    3  A    between atoms: C_12  and  N_13
REMARK                            x       y       z     vdW  Elec       q    Type
REMARK                         _______ _______ _______ _____ _____    ______ ____
ROOT
ATOM      1  C   UNL     1      27.167  22.694  25.701  0.00  0.00    +0.000 C 
ENDROOT
BRANCH   1  11
ATOM      2  C   UNL     1      30.220  22.202  25.985  0.00  0.00    +0.000 C 
ATOM      3  C   UNL     1      29.293  22.605  27.068  0.00  0.00    +0.000 A 
ATOM      4  N   UNL     1      29.642  22.823  28.362  0.00  0.00    +0.000 NA
ATOM      5  C   UNL     1      28.550  23.173  29.063  0.00  0.00    +0.000 A 
ATOM      6  C   UNL     1      28.360  23.499  30.398  0.00  0.00    +0.000 A 
ATOM      7  C   UNL     1      27.090  23.822  30.822  0.00  0.00    +0.000 A 
ATOM      8  C   UNL     1      26.007  23.834  29.977  0.00  0.00    +0.000 A 
ATOM      9  C   UNL     1      26.228  23.507  28.661  0.00  0.00    +0.000 A 
ATOM     10  C   UNL     1      27.474  23.176  28.176  0.00  0.00    +0.000 A 
ATOM     11  C   UNL     1      27.944  22.820  26.933  0.00  0.00    +0.000 A 
ENDBRANCH   1  11
BRANCH   1  12
ATOM     12  C   UNL     1      26.915  24.034  25.098  0.00  0.00    +0.000 C 
BRANCH  12  13
ATOM     13  N   UNL     1      27.420  24.136  23.746  0.00  0.00    +0.000 N 
ATOM     14  C   UNL     1      26.704  23.753  22.575  0.00  0.00    +0.000 C 
ATOM     15  O   UNL     1      25.689  22.981  22.557  0.00  0.00    +0.000 OA
ATOM     16  O   UNL     1      27.303  24.365  21.455  0.00  0.00    +0.000 OA
ATOM     17  C   UNL     1      28.180  25.346  21.982  0.00  0.00    +0.000 C 
ATOM     18  C   UNL     1      29.296  25.715  21.061  0.00  0.00    +0.000 C 
ATOM     19  C   UNL     1      27.366  26.562  22.427  0.00  0.00    +0.000 C 
ATOM     20  C   UNL     1      28.690  24.617  23.235  0.00  0.00    +0.000 C 
ATOM     21  C   UNL     1      29.437  25.494  24.162  0.00  0.00    +0.000 C 
ATOM     22  O   UNL     1      29.413  23.511  22.773  0.00  0.00    +0.000 OA
ENDBRANCH  12  13
ENDBRANCH   1  12
TORSDOF 3
ENDMDL
MODEL 3
REMARK VINA RESULT:      -6.4      3.057      6.296
REMARK  Name = 
REMARK  3 active torsions:
REMARK  status: ('A' for Active; 'I' for Inactive)
REMARK    1  A    between atoms: C_10  and  C_11
REMARK    2  A    between atoms: C_11  and  C_12
REMARK    3  A    between atoms: C_12  and  N_13
REMARK                            x       y       z     vdW  Elec       q    Type
REMARK                         _______ _______ _______ _____ _____    ______ ____
ROOT
ATOM      1  C   UNL     1      28.611  22.134  27.466  0.00  0.00    +0.000 C 
ENDROOT
BRANCH   1  11
ATOM      2  C   UNL     1      31.291  22.834  26.064  0.00  0.00    +0.000 C 
ATOM      3  C   UNL     1      29.937  22.961  25.478  0.00  0.00    +0.000 A 
ATOM      4  N   UNL     1      29.660  23.407  24.225  0.00  0.00    +0.000 NA
ATOM      5  C   UNL     1      28.330  23.390  24.032  0.00  0.00    +0.000 A 
ATOM      6  C   UNL     1      27.537  23.738  22.949  0.00  0.00    +0.000 A 
ATOM      7  C   UNL     1      26.171  23.603  23.063  0.00  0.00    +0.000 A 
ATOM      8  C   UNL     1      25.565  23.140  24.204  0.00  0.00    +0.000 A 
ATOM      9  C   UNL     1      26.377  22.803  25.259  0.00  0.00    +0.000 A 
ATOM     10  C   UNL     1      27.749  22.914  25.207  0.00  0.00    +0.000 A 
ATOM     11  C   UNL     1      28.757  22.649  26.105  0.00  0.00    +0.000 A 
ENDBRANCH   1  11
BRANCH   1  12
ATOM     12  C   UNL     1      28.707  23.239  28.461  0.00  0.00    +0.000 C 
BRANCH  12  13
ATOM     13  N   UNL     1      27.427  23.561  29.057  0.00  0.00    +0.000 N 
ATOM     14  C   UNL     1      26.772  22.783  30.054  0.00  0.00    +0.000 C 
ATOM     15  O   UNL     1      27.031  21.563  30.320  0.00  0.00    +0.000 OA
ATOM     16  O   UNL     1      25.798  23.582  30.686  0.00  0.00    +0.000 OA
ATOM     17  C   UNL     1      26.076  24.911  30.282  0.00  0.00    +0.000 C 
ATOM     18  C   UNL     1      24.898  25.825  30.357  0.00  0.00    +0.000 C 
ATOM     19  C   UNL     1      27.273  25.439  31.076  0.00  0.00    +0.000 C 
ATOM     20  C   UNL     1      26.523  24.672  28.831  0.00  0.00    +0.000 C 
ATOM     21  C   UNL     1      27.145  25.858  28.204  0.00  0.00    +0.000 C 
ATOM     22  O   UNL     1      25.400  24.181  28.156  0.00  0.00    +0.000 OA
ENDBRANCH  12  13
ENDBRANCH   1  12
TORSDOF 3
ENDMDL
MODEL 4
REMARK VINA RESULT:      -6.3      2.084      3.356
REMARK  Name = 
REMARK  3 active torsions:
REMARK  status: ('A' for Active; 'I' for Inactive)
REMARK    1  A    between atoms: C_10  and  C_11
REMARK    2  A    between atoms: C_11  and  C_12
REMARK    3  A    between atoms: C_12  and  N_13
REMARK                            x       y       z     vdW  Elec       q    Type
REMARK                         _______ _______ _______ _____ _____    ______ ____
ROOT
ATOM      1  C   UNL     1      25.271  24.598  25.299  0.00  0.00    +0.000 C 
ENDROOT
BRANCH   1  11
ATOM      2  C   UNL     1      23.669  27.199  25.858  0.00  0.00    +0.000 C 
ATOM      3  C   UNL     1      24.321  26.337  26.870  0.00  0.00    +0.000 A 
ATOM      4  N   UNL     1      24.316  26.556  28.211  0.00  0.00    +0.000 NA
ATOM      5  C   UNL     1      25.003  25.575  28.823  0.00  0.00    +0.000 A 
ATOM      6  C   UNL     1      25.293  25.329  30.156  0.00  0.00    +0.000 A 
ATOM      7  C   UNL     1      26.037  24.212  30.472  0.00  0.00    +0.000 A 
ATOM      8  C   UNL     1      26.500  23.337  29.521  0.00  0.00    +0.000 A 
ATOM      9  C   UNL     1      26.195  23.609  28.210  0.00  0.00    +0.000 A 
ATOM     10  C   UNL     1      25.456  24.708  27.830  0.00  0.00    +0.000 A 
ATOM     11  C   UNL     1      25.028  25.189  26.614  0.00  0.00    +0.000 A 
ENDBRANCH   1  11
BRANCH   1  12
ATOM     12  C   UNL     1      26.489  25.188  24.673  0.00  0.00    +0.000 C 
BRANCH  12  13
ATOM     13  N   UNL     1      27.516  24.200  24.423  0.00  0.00    +0.000 N 
ATOM     14  C   UNL     1      27.621  23.413  23.240  0.00  0.00    +0.000 C 
ATOM     15  O   UNL     1      26.680  23.220  22.402  0.00  0.00    +0.000 OA
ATOM     16  O   UNL     1      28.928  22.890  23.156  0.00  0.00    +0.000 OA
ATOM     17  C   UNL     1      29.685  23.604  24.118  0.00  0.00    +0.000 C 
ATOM     18  C   UNL     1      30.897  22.875  24.595  0.00  0.00    +0.000 C 
ATOM     19  C   UNL     1      30.020  24.991  23.566  0.00  0.00    +0.000 C 
ATOM     20  C   UNL     1      28.638  23.763  25.231  0.00  0.00    +0.000 C 
ATOM     21  C   UNL     1      29.045  24.714  26.289  0.00  0.00    +0.000 C 
ATOM     22  O   UNL     1      28.360  22.471  25.690  0.00  0.00    +0.000 OA
ENDBRANCH  12  13
ENDBRANCH   1  12
TORSDOF 3
ENDMDL
MODEL 5
REMARK VINA RESULT:      -6.2      3.635      6.961
REMARK  Name = 
REMARK  3 active torsions:
REMARK  status: ('A' for Active; 'I' for Inactive)
REMARK    1  A    between atoms: C_10  and  C_11
REMARK    2  A    between atoms: C_11  and  C_12
REMARK    3  A    between atoms: C_12  and  N_13
REMARK                            x       y       z     vdW  Elec       q    Type
REMARK                         _______ _______ _______ _____ _____    ______ ____
ROOT
ATOM      1  C   UNL     1      29.800  22.439  26.846  0.00  0.00    +0.000 C 
ENDROOT
BRANCH   1  11
ATOM      2  C   UNL     1      31.793  23.103  24.560  0.00  0.00    +0.000 C 
ATOM      3  C   UNL     1      30.316  23.122  24.467  0.00  0.00    +0.000 A 
ATOM      4  N   UNL     1      29.601  23.436  23.355  0.00  0.00    +0.000 NA
ATOM      5  C   UNL     1      28.289  23.351  23.632  0.00  0.00    +0.000 A 
ATOM      6  C   UNL     1      27.155  23.563  22.862  0.00  0.00    +0.000 A 
ATOM      7  C   UNL     1      25.920  23.389  23.448  0.00  0.00    +0.000 A 
ATOM      8  C   UNL     1      25.769  23.014  24.760  0.00  0.00    +0.000 A 
ATOM      9  C   UNL     1      26.911  22.811  25.495  0.00  0.00    +0.000 A 
ATOM     10  C   UNL     1      28.174  22.968  24.968  0.00  0.00    +0.000 A 
ATOM     11  C   UNL     1      29.442  22.828  25.483  0.00  0.00    +0.000 A 
ENDBRANCH   1  11
BRANCH   1  12
ATOM     12  C   UNL     1      29.907  23.639  27.725  0.00  0.00    +0.000 C 
BRANCH  12  13
ATOM     13  N   UNL     1      30.673  23.379  28.925  0.00  0.00    +0.000 N 
ATOM     14  C   UNL     1      30.186  22.685  30.071  0.00  0.00    +0.000 C 
ATOM     15  O   UNL     1      28.956  22.493  30.343  0.00  0.00    +0.000 OA
ATOM     16  O   UNL     1      31.285  22.256  30.842  0.00  0.00    +0.000 OA
ATOM     17  C   UNL     1      32.421  22.423  30.012  0.00  0.00    +0.000 C 
ATOM     18  C   UNL     1      33.703  22.570  30.765  0.00  0.00    +0.000 C 
ATOM     19  C   UNL     1      32.472  21.285  28.992  0.00  0.00    +0.000 C 
ATOM     20  C   UNL     1      32.038  23.718  29.278  0.00  0.00    +0.000 C 
ATOM     21  C   UNL     1      32.916  24.022  28.127  0.00  0.00    +0.000 C 
ATOM     22  O   UNL     1      31.994  24.719  30.254  0.00  0.00    +0.000 OA
ENDBRANCH  12  13
ENDBRANCH   1  12
TORSDOF 3
ENDMDL
MODEL 6
REMARK VINA RESULT:      -6.1      2.034      2.673
REMARK  Name = 
REMARK  3 active torsions:
REMARK  status: ('A' for Active; 'I' for Inactive)
REMARK    1  A    between atoms: C_10  and  C_11
REMARK    2  A    between atoms: C_11  and  C_12
REMARK    3  A    between atoms: C_12  and  N_13
REMARK                            x       y       z     vdW  Elec       q    Type
REMARK                         _______ _______ _______ _____ _____    ______ ____
ROOT
ATOM      1  C   UNL     1      25.704  23.431  25.233  0.00  0.00    +0.000 C 
ENDROOT
BRANCH   1  11
ATOM      2  C   UNL     1      24.209  26.152  25.224  0.00  0.00    +0.000 C 
ATOM      3  C   UNL     1      24.786  25.474  26.407  0.00  0.00    +0.000 A 
ATOM      4  N   UNL     1      24.748  25.945  27.681  0.00  0.00    +0.000 NA
ATOM      5  C   UNL     1      25.368  25.073  28.494  0.00  0.00    +0.000 A 
ATOM      6  C   UNL     1      25.602  25.074  29.861  0.00  0.00    +0.000 A 
ATOM      7  C   UNL     1      26.282  24.010  30.413  0.00  0.00    +0.000 A 
ATOM      8  C   UNL     1      26.734  22.951  29.664  0.00  0.00    +0.000 A 
ATOM      9  C   UNL     1      26.486  22.980  28.314  0.00  0.00    +0.000 A 
ATOM     10  C   UNL     1      25.812  24.014  27.703  0.00  0.00    +0.000 A 
ATOM     11  C   UNL     1      25.447  24.271  26.402  0.00  0.00    +0.000 A 
ENDBRANCH   1  11
BRANCH   1  12
ATOM     12  C   UNL     1      27.167  23.353  24.953  0.00  0.00    +0.000 C 
BRANCH  12  13
ATOM     13  N   UNL     1      27.511  23.886  23.653  0.00  0.00    +0.000 N 
ATOM     14  C   UNL     1      26.697  23.785  22.487  0.00  0.00    +0.000 C 
ATOM     15  O   UNL     1      25.742  22.956  22.330  0.00  0.00    +0.000 OA
ATOM     16  O   UNL     1      27.126  24.747  21.550  0.00  0.00    +0.000 OA
ATOM     17  C   UNL     1      27.986  25.618  22.264  0.00  0.00    +0.000 C 
ATOM     18  C   UNL     1      28.965  26.342  21.401  0.00  0.00    +0.000 C 
ATOM     19  C   UNL     1      27.145  26.570  23.116  0.00  0.00    +0.000 C 
ATOM     20  C   UNL     1      28.680  24.614  23.199  0.00  0.00    +0.000 C 
ATOM     21  C   UNL     1      29.463  25.259  24.275  0.00  0.00    +0.000 C 
ATOM     22  O   UNL     1      29.422  23.763  22.372  0.00  0.00    +0.000 OA
ENDBRANCH  12  13
ENDBRANCH   1  12
TORSDOF 3
ENDMDL
MODEL 7
REMARK VINA RESULT:      -6.1      3.175      6.629
REMARK  Name = 
REMARK  3 active torsions:
REMARK  status: ('A' for Active; 'I' for Inactive)
REMARK    1  A    between atoms: C_10  and  C_11
REMARK    2  A    between atoms: C_11  and  C_12
REMARK    3  A    between atoms: C_12  and  N_13
REMARK                            x       y       z     vdW  Elec       q    Type
REMARK                         _______ _______ _______ _____ _____    ______ ____
ROOT
ATOM      1  C   UNL     1      30.200  22.369  26.777  0.00  0.00    +0.000 C 
ENDROOT
BRANCH   1  11
ATOM      2  C   UNL     1      32.030  23.290  24.444  0.00  0.00    +0.000 C 
ATOM      3  C   UNL     1      30.550  23.233  24.427  0.00  0.00    +0.000 A 
ATOM      4  N   UNL     1      29.761  23.580  23.376  0.00  0.00    +0.000 NA
ATOM      5  C   UNL     1      28.472  23.405  23.713  0.00  0.00    +0.000 A 
ATOM      6  C   UNL     1      27.289  23.604  23.018  0.00  0.00    +0.000 A 
ATOM      7  C   UNL     1      26.098  23.325  23.653  0.00  0.00    +0.000 A 
ATOM      8  C   UNL     1      26.038  22.857  24.942  0.00  0.00    +0.000 A 
ATOM      9  C   UNL     1      27.227  22.669  25.603  0.00  0.00    +0.000 A 
ATOM     10  C   UNL     1      28.449  22.930  25.024  0.00  0.00    +0.000 A 
ATOM     11  C   UNL     1      29.749  22.826  25.464  0.00  0.00    +0.000 A 
ENDBRANCH   1  11
BRANCH   1  12
ATOM     12  C   UNL     1      30.383  23.525  27.702  0.00  0.00    +0.000 C 
BRANCH  12  13
ATOM     13  N   UNL     1      29.555  23.424  28.885  0.00  0.00    +0.000 N 
ATOM     14  C   UNL     1      29.964  22.849  30.122  0.00  0.00    +0.000 C 
ATOM     15  O   UNL     1      30.957  22.064  30.273  0.00  0.00    +0.000 OA
ATOM     16  O   UNL     1      29.091  23.290  31.138  0.00  0.00    +0.000 OA
ATOM     17  C   UNL     1      28.354  24.358  30.569  0.00  0.00    +0.000 C 
ATOM     18  C   UNL     1      27.036  24.601  31.227  0.00  0.00    +0.000 C 
ATOM     19  C   UNL     1      29.228  25.613  30.537  0.00  0.00    +0.000 C 
ATOM     20  C   UNL     1      28.188  23.844  29.131  0.00  0.00    +0.000 C 
ATOM     21  C   UNL     1      27.679  24.869  28.195  0.00  0.00    +0.000 C 
ATOM     22  O   UNL     1      27.395  22.694  29.218  0.00  0.00    +0.000 OA
ENDBRANCH  12  13
ENDBRANCH   1  12
TORSDOF 3
ENDMDL
MODEL 8
REMARK VINA RESULT:      -6.1      2.011      4.061
REMARK  Name = 
REMARK  3 active torsions:
REMARK  status: ('A' for Active; 'I' for Inactive)
REMARK    1  A    between atoms: C_10  and  C_11
REMARK    2  A    between atoms: C_11  and  C_12
REMARK    3  A    between atoms: C_12  and  N_13
REMARK                            x       y       z     vdW  Elec       q    Type
REMARK                         _______ _______ _______ _____ _____    ______ ____
ROOT
ATOM      1  C   UNL     1      26.688  23.447  27.245  0.00  0.00    +0.000 C 
ENDROOT
BRANCH   1  11
ATOM      2  C   UNL     1      27.154  21.984  29.944  0.00  0.00    +0.000 C 
ATOM      3  C   UNL     1      26.433  23.263  29.754  0.00  0.00    +0.000 A 
ATOM      4  N   UNL     1      25.860  23.998  30.743  0.00  0.00    +0.000 NA
ATOM      5  C   UNL     1      25.295  25.095  30.210  0.00  0.00    +0.000 A 
ATOM      6  C   UNL     1      24.597  26.154  30.771  0.00  0.00    +0.000 A 
ATOM      7  C   UNL     1      24.134  27.150  29.940  0.00  0.00    +0.000 A 
ATOM      8  C   UNL     1      24.337  27.137  28.582  0.00  0.00    +0.000 A 
ATOM      9  C   UNL     1      25.033  26.075  28.057  0.00  0.00    +0.000 A 
ATOM     10  C   UNL     1      25.521  25.048  28.835  0.00  0.00    +0.000 A 
ATOM     11  C   UNL     1      26.231  23.903  28.557  0.00  0.00    +0.000 A 
ENDBRANCH   1  11
BRANCH   1  12
ATOM     12  C   UNL     1      27.859  24.248  26.788  0.00  0.00    +0.000 C 
BRANCH  12  13
ATOM     13  N   UNL     1      28.093  24.124  25.365  0.00  0.00    +0.000 N 
ATOM     14  C   UNL     1      28.796  23.052  24.743  0.00  0.00    +0.000 C 
ATOM     15  O   UNL     1      29.585  22.249  25.340  0.00  0.00    +0.000 OA
ATOM     16  O   UNL     1      28.473  23.034  23.371  0.00  0.00    +0.000 OA
ATOM     17  C   UNL     1      27.355  23.893  23.231  0.00  0.00    +0.000 C 
ATOM     18  C   UNL     1      27.194  24.457  21.858  0.00  0.00    +0.000 C 
ATOM     19  C   UNL     1      26.098  23.167  23.713  0.00  0.00    +0.000 C 
ATOM     20  C   UNL     1      27.712  24.980  24.257  0.00  0.00    +0.000 C 
ATOM     21  C   UNL     1      26.595  25.905  24.547  0.00  0.00    +0.000 C 
ATOM     22  O   UNL     1      28.870  25.602  23.777  0.00  0.00    +0.000 OA
ENDBRANCH  12  13
ENDBRANCH   1  12
TORSDOF 3
ENDMDL
MODEL 9
REMARK VINA RESULT:      -5.9      2.034      3.963
REMARK  Name = 
REMARK  3 active torsions:
REMARK  status: ('A' for Active; 'I' for Inactive)
REMARK    1  A    between atoms: C_10  and  C_11
REMARK    2  A    between atoms: C_11  and  C_12
REMARK    3  A    between atoms: C_12  and  N_13
REMARK                            x       y       z     vdW  Elec       q    Type
REMARK                         _______ _______ _______ _____ _____    ______ ____
ROOT
ATOM      1  C   UNL     1      26.447  23.513  27.283  0.00  0.00    +0.000 C 
ENDROOT
BRANCH   1  11
ATOM      2  C   UNL     1      27.313  22.062  29.888  0.00  0.00    +0.000 C 
ATOM      3  C   UNL     1      26.511  23.304  29.802  0.00  0.00    +0.000 A 
ATOM      4  N   UNL     1      26.028  24.004  30.862  0.00  0.00    +0.000 NA
ATOM      5  C   UNL     1      25.347  25.072  30.414  0.00  0.00    +0.000 A 
ATOM      6  C   UNL     1      24.670  26.091  31.068  0.00  0.00    +0.000 A 
ATOM      7  C   UNL     1      24.059  27.067  30.311  0.00  0.00    +0.000 A 
ATOM      8  C   UNL     1      24.095  27.070  28.938  0.00  0.00    +0.000 A 
ATOM      9  C   UNL     1      24.773  26.049  28.321  0.00  0.00    +0.000 A 
ATOM     10  C   UNL     1      25.405  25.044  29.021  0.00  0.00    +0.000 A 
ATOM     11  C   UNL     1      26.132  23.938  28.646  0.00  0.00    +0.000 A 
ENDBRANCH   1  11
BRANCH   1  12
ATOM     12  C   UNL     1      27.480  24.403  26.679  0.00  0.00    +0.000 C 
BRANCH  12  13
ATOM     13  N   UNL     1      27.380  24.468  25.237  0.00  0.00    +0.000 N 
ATOM     14  C   UNL     1      26.644  25.450  24.513  0.00  0.00    +0.000 C 
ATOM     15  O   UNL     1      25.725  26.186  25.002  0.00  0.00    +0.000 OA
ATOM     16  O   UNL     1      27.099  25.466  23.179  0.00  0.00    +0.000 OA
ATOM     17  C   UNL     1      28.303  24.718  23.179  0.00  0.00    +0.000 C 
ATOM     18  C   UNL     1      28.654  24.138  21.848  0.00  0.00    +0.000 C 
ATOM     19  C   UNL     1      29.429  25.576  23.755  0.00  0.00    +0.000 C 
ATOM     20  C   UNL     1      27.950  23.627  24.202  0.00  0.00    +0.000 C 
ATOM     21  C   UNL     1      29.115  22.824  24.631  0.00  0.00    +0.000 C 
ATOM     22  O   UNL     1      26.911  22.882  23.633  0.00  0.00    +0.000 OA
ENDBRANCH  12  13
ENDBRANCH   1  12
TORSDOF 3
ENDMDL
MODEL 10
REMARK VINA RESULT:      -5.8      3.354      6.574
REMARK  Name = 
REMARK  3 active torsions:
REMARK  status: ('A' for Active; 'I' for Inactive)
REMARK    1  A    between atoms: C_10  and  C_11
REMARK    2  A    between atoms: C_11  and  C_12
REMARK    3  A    between atoms: C_12  and  N_13
REMARK                            x       y       z     vdW  Elec       q    Type
REMARK                         _______ _______ _______ _____ _____    ______ ____
ROOT
ATOM      1  C   UNL     1      28.032  22.249  27.053  0.00  0.00    +0.000 C 
ENDROOT
BRANCH   1  11
ATOM      2  C   UNL     1      30.954  22.689  26.102  0.00  0.00    +0.000 C 
ATOM      3  C   UNL     1      29.730  22.891  25.293  0.00  0.00    +0.000 A 
ATOM      4  N   UNL     1      29.700  23.303  23.999  0.00  0.00    +0.000 NA
ATOM      5  C   UNL     1      28.423  23.376  23.586  0.00  0.00    +0.000 A 
ATOM      6  C   UNL     1      27.852  23.735  22.375  0.00  0.00    +0.000 A 
ATOM      7  C   UNL     1      26.479  23.707  22.262  0.00  0.00    +0.000 A 
ATOM      8  C   UNL     1      25.657  23.338  23.298  0.00  0.00    +0.000 A 
ATOM      9  C   UNL     1      26.254  22.988  24.484  0.00  0.00    +0.000 A 
ATOM     10  C   UNL     1      27.620  22.995  24.660  0.00  0.00    +0.000 A 
ATOM     11  C   UNL     1      28.441  22.694  25.723  0.00  0.00    +0.000 A 
ENDBRANCH   1  11
BRANCH   1  12
ATOM     12  C   UNL     1      27.553  23.401  27.870  0.00  0.00    +0.000 C 
BRANCH  12  13
ATOM     13  N   UNL     1      28.130  23.415  29.198  0.00  0.00    +0.000 N 
ATOM     14  C   UNL     1      27.904  22.425  30.198  0.00  0.00    +0.000 C 
ATOM     15  O   UNL     1      26.937  21.594  30.200  0.00  0.00    +0.000 OA
ATOM     16  O   UNL     1      28.918  22.524  31.172  0.00  0.00    +0.000 OA
ATOM     17  C   UNL     1      29.911  23.359  30.603  0.00  0.00    +0.000 C 
ATOM     18  C   UNL     1      30.775  24.043  31.612  0.00  0.00    +0.000 C 
ATOM     19  C   UNL     1      30.725  22.556  29.589  0.00  0.00    +0.000 C 
ATOM     20  C   UNL     1      29.028  24.357  29.838  0.00  0.00    +0.000 C 
ATOM     21  C   UNL     1      29.786  25.219  28.906  0.00  0.00    +0.000 C 
ATOM     22  O   UNL     1      28.299  25.054  30.808  0.00  0.00    +0.000 OA
ENDBRANCH  12  13
ENDBRANCH   1  12
TORSDOF 3
ENDMDL
