MODEL 1
REMARK VINA RESULT:      -7.9      0.000      0.000
REMARK  Name = 
REMARK  0 active torsions:
REMARK  status: ('A' for Active; 'I' for Inactive)
REMARK                            x       y       z     vdW  Elec       q    Type
REMARK                         _______ _______ _______ _____ _____    ______ ____
ROOT
ATOM      1  C   UNL     1      26.067  22.869  24.866  0.00  0.00    +0.000 C 
ATOM      2  C   UNL     1      27.114  24.008  24.769  0.00  0.00    +0.000 C 
ATOM      3  C   UNL     1      26.770  24.748  23.684  0.00  0.00    +0.000 C 
ATOM      4  C   UNL     1      27.511  24.819  22.630  0.00  0.00    +0.000 C 
ATOM      5  C   UNL     1      28.794  24.166  22.455  0.00  0.00    +0.000 C 
ATOM      6  O   UNL     1      29.527  24.182  21.459  0.00  0.00    +0.000 OA
ATOM      7  C   UNL     1      29.268  23.399  23.600  0.00  0.00    +0.000 A 
ATOM      8  N   UNL     1      30.379  22.727  23.924  0.00  0.00    +0.000 NA
ATOM      9  C   UNL     1      30.295  22.308  25.198  0.00  0.00    +0.000 A 
ATOM     10  C   UNL     1      29.075  22.725  25.732  0.00  0.00    +0.000 A 
ATOM     11  C   UNL     1      28.474  23.405  24.664  0.00  0.00    +0.000 A 
ATOM     12  C   UNL     1      28.484  22.631  27.087  0.00  0.00    +0.000 C 
ATOM     13  C   UNL     1      27.021  23.026  26.824  0.00  0.00    +0.000 C 
ATOM     14  C   UNL     1      27.376  24.560  26.226  0.00  0.00    +0.000 C 
ATOM     15  C   UNL     1      25.981  25.263  26.614  0.00  0.00    +0.000 C 
ATOM     16  C   UNL     1      26.488  25.773  27.984  0.00  0.00    +0.000 C 
ATOM     17  C   UNL     1      27.224  24.694  28.679  0.00  0.00    +0.000 C 
ATOM     18  C   UNL     1      28.610  24.575  28.708  0.00  0.00    +0.000 C 
ATOM     19  C   UNL     1      26.788  24.675  30.248  0.00  0.00    +0.000 C 
ATOM     20  O   UNL     1      25.305  24.661  29.958  0.00  0.00    +0.000 OA
ATOM     21  C   UNL     1      26.885  23.065  30.485  0.00  0.00    +0.000 C 
ATOM     22  C   UNL     1      27.213  22.454  29.220  0.00  0.00    +0.000 C 
ATOM     23  C   UNL     1      26.349  23.428  28.280  0.00  0.00    +0.000 C 
ENDROOT
TORSDOF 0
ENDMDL
MODEL 2
REMARK VINA RESULT:      -7.4      2.837      4.073
REMARK  Name = 
REMARK  0 active torsions:
REMARK  status: ('A' for Active; 'I' for Inactive)
REMARK                            x       y       z     vdW  Elec       q    Type
REMARK                         _______ _______ _______ _____ _____    ______ ____
ROOT
ATOM      1  C   UNL     1      28.832  25.975  24.206  0.00  0.00    +0.000 C 
ATOM      2  C   UNL     1      28.799  24.520  23.672  0.00  0.00    +0.000 C 
ATOM      3  C   UNL     1      28.965  24.607  22.327  0.00  0.00    +0.000 C 
ATOM      4  C   UNL     1      28.040  24.277  21.491  0.00  0.00    +0.000 C 
ATOM      5  C   UNL     1      26.734  23.754  21.841  0.00  0.00    +0.000 C 
ATOM      6  O   UNL     1      25.807  23.448  21.081  0.00  0.00    +0.000 OA
ATOM      7  C   UNL     1      26.493  23.570  23.267  0.00  0.00    +0.000 A 
ATOM      8  N   UNL     1      25.518  23.061  24.028  0.00  0.00    +0.000 NA
ATOM      9  C   UNL     1      25.910  23.052  25.313  0.00  0.00    +0.000 A 
ATOM     10  C   UNL     1      27.199  23.579  25.397  0.00  0.00    +0.000 A 
ATOM     11  C   UNL     1      27.504  23.891  24.065  0.00  0.00    +0.000 A 
ATOM     12  C   UNL     1      28.154  23.734  26.519  0.00  0.00    +0.000 C 
ATOM     13  C   UNL     1      29.217  24.661  25.908  0.00  0.00    +0.000 C 
ATOM     14  C   UNL     1      29.639  23.615  24.656  0.00  0.00    +0.000 C 
ATOM     15  C   UNL     1      31.147  24.137  24.447  0.00  0.00    +0.000 C 
ATOM     16  C   UNL     1      31.762  23.096  25.411  0.00  0.00    +0.000 C 
ATOM     17  C   UNL     1      30.955  23.019  26.648  0.00  0.00    +0.000 C 
ATOM     18  C   UNL     1      30.000  22.042  26.911  0.00  0.00    +0.000 C 
ATOM     19  C   UNL     1      31.954  22.957  27.934  0.00  0.00    +0.000 C 
ATOM     20  O   UNL     1      32.770  24.154  27.507  0.00  0.00    +0.000 OA
ATOM     21  C   UNL     1      31.027  23.802  28.976  0.00  0.00    +0.000 C 
ATOM     22  C   UNL     1      29.858  24.251  28.259  0.00  0.00    +0.000 C 
ATOM     23  C   UNL     1      30.570  24.549  26.851  0.00  0.00    +0.000 C 
ENDROOT
TORSDOF 0
ENDMDL
MODEL 3
REMARK VINA RESULT:      -7.2      1.609      2.735
REMARK  Name = 
REMARK  0 active torsions:
REMARK  status: ('A' for Active; 'I' for Inactive)
REMARK                            x       y       z     vdW  Elec       q    Type
REMARK                         _______ _______ _______ _____ _____    ______ ____
ROOT
ATOM      1  C   UNL     1      28.536  26.063  25.774  0.00  0.00    +0.000 C 
ATOM      2  C   UNL     1      29.112  24.724  25.247  0.00  0.00    +0.000 C 
ATOM      3  C   UNL     1      30.252  25.039  24.580  0.00  0.00    +0.000 C 
ATOM      4  C   UNL     1      30.378  24.879  23.307  0.00  0.00    +0.000 C 
ATOM      5  C   UNL     1      29.369  24.332  22.421  0.00  0.00    +0.000 C 
ATOM      6  O   UNL     1      29.430  24.183  21.195  0.00  0.00    +0.000 OA
ATOM      7  C   UNL     1      28.131  23.910  23.066  0.00  0.00    +0.000 A 
ATOM      8  N   UNL     1      27.002  23.299  22.691  0.00  0.00    +0.000 NA
ATOM      9  C   UNL     1      26.241  23.058  23.772  0.00  0.00    +0.000 A 
ATOM     10  C   UNL     1      26.902  23.534  24.905  0.00  0.00    +0.000 A 
ATOM     11  C   UNL     1      28.089  24.066  24.384  0.00  0.00    +0.000 A 
ATOM     12  C   UNL     1      26.592  23.471  26.353  0.00  0.00    +0.000 C 
ATOM     13  C   UNL     1      27.607  24.467  26.939  0.00  0.00    +0.000 C 
ATOM     14  C   UNL     1      28.971  23.644  26.390  0.00  0.00    +0.000 C 
ATOM     15  C   UNL     1      29.995  24.161  27.519  0.00  0.00    +0.000 C 
ATOM     16  C   UNL     1      29.749  22.955  28.457  0.00  0.00    +0.000 C 
ATOM     17  C   UNL     1      28.298  22.684  28.554  0.00  0.00    +0.000 C 
ATOM     18  C   UNL     1      27.627  21.697  27.837  0.00  0.00    +0.000 C 
ATOM     19  C   UNL     1      27.915  22.378  30.108  0.00  0.00    +0.000 C 
ATOM     20  O   UNL     1      28.602  23.613  30.643  0.00  0.00    +0.000 OA
ATOM     21  C   UNL     1      26.430  23.050  30.106  0.00  0.00    +0.000 C 
ATOM     22  C   UNL     1      26.217  23.642  28.808  0.00  0.00    +0.000 C 
ATOM     23  C   UNL     1      27.715  24.163  28.560  0.00  0.00    +0.000 C 
ENDROOT
TORSDOF 0
ENDMDL
MODEL 4
REMARK VINA RESULT:      -7.1     20.371     22.285
REMARK  Name = 
REMARK  0 active torsions:
REMARK  status: ('A' for Active; 'I' for Inactive)
REMARK                            x       y       z     vdW  Elec       q    Type
REMARK                         _______ _______ _______ _____ _____    ______ ____
ROOT
ATOM      1  C   UNL     1      26.449   2.559  17.149  0.00  0.00    +0.000 C 
ATOM      2  C   UNL     1      25.303   3.576  17.382  0.00  0.00    +0.000 C 
ATOM      3  C   UNL     1      24.715   3.222  18.554  0.00  0.00    +0.000 C 
ATOM      4  C   UNL     1      23.503   2.784  18.617  0.00  0.00    +0.000 C 
ATOM      5  C   UNL     1      22.601   2.631  17.492  0.00  0.00    +0.000 C 
ATOM      6  O   UNL     1      21.445   2.193  17.496  0.00  0.00    +0.000 OA
ATOM      7  C   UNL     1      23.133   3.048  16.201  0.00  0.00    +0.000 A 
ATOM      8  N   UNL     1      22.667   3.168  14.953  0.00  0.00    +0.000 NA
ATOM      9  C   UNL     1      23.607   3.730  14.174  0.00  0.00    +0.000 A 
ATOM     10  C   UNL     1      24.739   3.990  14.947  0.00  0.00    +0.000 A 
ATOM     11  C   UNL     1      24.371   3.527  16.218  0.00  0.00    +0.000 A 
ATOM     12  C   UNL     1      26.025   4.664  14.655  0.00  0.00    +0.000 C 
ATOM     13  C   UNL     1      26.867   4.292  15.887  0.00  0.00    +0.000 C 
ATOM     14  C   UNL     1      25.837   5.014  17.007  0.00  0.00    +0.000 C 
ATOM     15  C   UNL     1      26.939   5.310  18.143  0.00  0.00    +0.000 C 
ATOM     16  C   UNL     1      27.247   6.738  17.632  0.00  0.00    +0.000 C 
ATOM     17  C   UNL     1      27.392   6.723  16.160  0.00  0.00    +0.000 C 
ATOM     18  C   UNL     1      26.396   7.096  15.263  0.00  0.00    +0.000 C 
ATOM     19  C   UNL     1      28.671   7.642  15.741  0.00  0.00    +0.000 C 
ATOM     20  O   UNL     1      29.618   6.973  16.710  0.00  0.00    +0.000 OA
ATOM     21  C   UNL     1      29.163   6.764  14.458  0.00  0.00    +0.000 C 
ATOM     22  C   UNL     1      28.314   5.601  14.371  0.00  0.00    +0.000 C 
ATOM     23  C   UNL     1      28.145   5.339  15.946  0.00  0.00    +0.000 C 
ENDROOT
TORSDOF 0
ENDMDL
MODEL 5
REMARK VINA RESULT:      -7.0      1.890      5.585
REMARK  Name = 
REMARK  0 active torsions:
REMARK  status: ('A' for Active; 'I' for Inactive)
REMARK                            x       y       z     vdW  Elec       q    Type
REMARK                         _______ _______ _______ _____ _____    ______ ____
ROOT
ATOM      1  C   UNL     1      27.303  25.529  27.266  0.00  0.00    +0.000 C 
ATOM      2  C   UNL     1      27.317  23.979  27.262  0.00  0.00    +0.000 C 
ATOM      3  C   UNL     1      26.281  23.588  28.048  0.00  0.00    +0.000 C 
ATOM      4  C   UNL     1      26.454  22.969  29.166  0.00  0.00    +0.000 C 
ATOM      5  C   UNL     1      27.734  22.581  29.726  0.00  0.00    +0.000 C 
ATOM      6  O   UNL     1      27.954  22.011  30.802  0.00  0.00    +0.000 OA
ATOM      7  C   UNL     1      28.900  22.908  28.914  0.00  0.00    +0.000 A 
ATOM      8  N   UNL     1      30.217  22.684  28.973  0.00  0.00    +0.000 NA
ATOM      9  C   UNL     1      30.801  23.135  27.850  0.00  0.00    +0.000 A 
ATOM     10  C   UNL     1      29.821  23.679  27.019  0.00  0.00    +0.000 A 
ATOM     11  C   UNL     1      28.643  23.507  27.758  0.00  0.00    +0.000 A 
ATOM     12  C   UNL     1      29.861  24.237  25.647  0.00  0.00    +0.000 C 
ATOM     13  C   UNL     1      28.481  24.906  25.535  0.00  0.00    +0.000 C 
ATOM     14  C   UNL     1      27.598  23.493  25.785  0.00  0.00    +0.000 C 
ATOM     15  C   UNL     1      26.270  23.933  24.989  0.00  0.00    +0.000 C 
ATOM     16  C   UNL     1      26.728  23.310  23.650  0.00  0.00    +0.000 C 
ATOM     17  C   UNL     1      28.142  23.661  23.391  0.00  0.00    +0.000 C 
ATOM     18  C   UNL     1      29.225  22.824  23.642  0.00  0.00    +0.000 C 
ATOM     19  C   UNL     1      28.311  24.073  21.824  0.00  0.00    +0.000 C 
ATOM     20  O   UNL     1      27.164  25.057  21.837  0.00  0.00    +0.000 OA
ATOM     21  C   UNL     1      29.458  25.216  22.018  0.00  0.00    +0.000 C 
ATOM     22  C   UNL     1      29.696  25.363  23.433  0.00  0.00    +0.000 C 
ATOM     23  C   UNL     1      28.183  25.157  23.929  0.00  0.00    +0.000 C 
ENDROOT
TORSDOF 0
ENDMDL
MODEL 6
REMARK VINA RESULT:      -7.0     14.461     17.300
REMARK  Name = 
REMARK  0 active torsions:
REMARK  status: ('A' for Active; 'I' for Inactive)
REMARK                            x       y       z     vdW  Elec       q    Type
REMARK                         _______ _______ _______ _____ _____    ______ ____
ROOT
ATOM      1  C   UNL     1      34.521  22.291  10.610  0.00  0.00    +0.000 C 
ATOM      2  C   UNL     1      34.064  20.840  10.314  0.00  0.00    +0.000 C 
ATOM      3  C   UNL     1      35.105  20.038  10.659  0.00  0.00    +0.000 C 
ATOM      4  C   UNL     1      35.765  19.347   9.793  0.00  0.00    +0.000 C 
ATOM      5  C   UNL     1      35.495  19.298   8.370  0.00  0.00    +0.000 C 
ATOM      6  O   UNL     1      36.112  18.675   7.497  0.00  0.00    +0.000 OA
ATOM      7  C   UNL     1      34.352  20.084   7.920  0.00  0.00    +0.000 A 
ATOM      8  N   UNL     1      33.697  20.273   6.770  0.00  0.00    +0.000 NA
ATOM      9  C   UNL     1      32.616  21.041   6.988  0.00  0.00    +0.000 A 
ATOM     10  C   UNL     1      32.562  21.370   8.344  0.00  0.00    +0.000 A 
ATOM     11  C   UNL     1      33.695  20.735   8.872  0.00  0.00    +0.000 A 
ATOM     12  C   UNL     1      31.570  22.104   9.163  0.00  0.00    +0.000 C 
ATOM     13  C   UNL     1      32.341  22.322  10.476  0.00  0.00    +0.000 C 
ATOM     14  C   UNL     1      32.569  20.685  10.799  0.00  0.00    +0.000 C 
ATOM     15  C   UNL     1      32.684  20.802  12.400  0.00  0.00    +0.000 C 
ATOM     16  C   UNL     1      31.176  20.553  12.641  0.00  0.00    +0.000 C 
ATOM     17  C   UNL     1      30.377  21.358  11.692  0.00  0.00    +0.000 C 
ATOM     18  C   UNL     1      29.818  20.871  10.515  0.00  0.00    +0.000 C 
ATOM     19  C   UNL     1      29.120  22.025  12.485  0.00  0.00    +0.000 C 
ATOM     20  O   UNL     1      29.971  22.592  13.598  0.00  0.00    +0.000 OA
ATOM     21  C   UNL     1      29.051  23.426  11.653  0.00  0.00    +0.000 C 
ATOM     22  C   UNL     1      30.146  23.433  10.714  0.00  0.00    +0.000 C 
ATOM     23  C   UNL     1      31.232  22.699  11.642  0.00  0.00    +0.000 C 
ENDROOT
TORSDOF 0
ENDMDL
MODEL 7
REMARK VINA RESULT:      -7.0      2.273      5.935
REMARK  Name = 
REMARK  0 active torsions:
REMARK  status: ('A' for Active; 'I' for Inactive)
REMARK                            x       y       z     vdW  Elec       q    Type
REMARK                         _______ _______ _______ _____ _____    ______ ____
ROOT
ATOM      1  C   UNL     1      30.133  21.581  26.502  0.00  0.00    +0.000 C 
ATOM      2  C   UNL     1      30.133  22.985  27.158  0.00  0.00    +0.000 C 
ATOM      3  C   UNL     1      31.246  23.040  27.935  0.00  0.00    +0.000 C 
ATOM      4  C   UNL     1      31.192  23.121  29.220  0.00  0.00    +0.000 C 
ATOM      5  C   UNL     1      29.978  23.191  30.011  0.00  0.00    +0.000 C 
ATOM      6  O   UNL     1      29.872  23.243  31.242  0.00  0.00    +0.000 OA
ATOM      7  C   UNL     1      28.734  23.199  29.251  0.00  0.00    +0.000 A 
ATOM      8  N   UNL     1      27.431  23.332  29.524  0.00  0.00    +0.000 NA
ATOM      9  C   UNL     1      26.734  23.380  28.377  0.00  0.00    +0.000 A 
ATOM     10  C   UNL     1      27.620  23.273  27.304  0.00  0.00    +0.000 A 
ATOM     11  C   UNL     1      28.868  23.156  27.931  0.00  0.00    +0.000 A 
ATOM     12  C   UNL     1      27.438  23.349  25.836  0.00  0.00    +0.000 C 
ATOM     13  C   UNL     1      28.794  22.838  25.320  0.00  0.00    +0.000 C 
ATOM     14  C   UNL     1      29.710  24.040  26.062  0.00  0.00    +0.000 C 
ATOM     15  C   UNL     1      30.948  24.025  25.033  0.00  0.00    +0.000 C 
ATOM     16  C   UNL     1      30.364  25.142  24.136  0.00  0.00    +0.000 C 
ATOM     17  C   UNL     1      28.928  24.885  23.887  0.00  0.00    +0.000 C 
ATOM     18  C   UNL     1      27.884  25.500  24.571  0.00  0.00    +0.000 C 
ATOM     19  C   UNL     1      28.600  25.171  22.317  0.00  0.00    +0.000 C 
ATOM     20  O   UNL     1      29.733  24.314  21.802  0.00  0.00    +0.000 OA
ATOM     21  C   UNL     1      27.467  24.016  22.114  0.00  0.00    +0.000 C 
ATOM     22  C   UNL     1      27.370  23.274  23.348  0.00  0.00    +0.000 C 
ATOM     23  C   UNL     1      28.927  23.302  23.739  0.00  0.00    +0.000 C 
ENDROOT
TORSDOF 0
ENDMDL
MODEL 8
REMARK VINA RESULT:      -7.0      2.200      5.867
REMARK  Name = 
REMARK  0 active torsions:
REMARK  status: ('A' for Active; 'I' for Inactive)
REMARK                            x       y       z     vdW  Elec       q    Type
REMARK                         _______ _______ _______ _____ _____    ______ ____
ROOT
ATOM      1  C   UNL     1      29.210  25.560  29.133  0.00  0.00    +0.000 C 
ATOM      2  C   UNL     1      27.722  25.420  28.722  0.00  0.00    +0.000 C 
ATOM      3  C   UNL     1      27.113  26.569  29.111  0.00  0.00    +0.000 C 
ATOM      4  C   UNL     1      26.212  26.599  30.033  0.00  0.00    +0.000 C 
ATOM      5  C   UNL     1      25.706  25.449  30.756  0.00  0.00    +0.000 C 
ATOM      6  O   UNL     1      24.866  25.428  31.663  0.00  0.00    +0.000 OA
ATOM      7  C   UNL     1      26.264  24.163  30.358  0.00  0.00    +0.000 A 
ATOM      8  N   UNL     1      26.055  22.878  30.665  0.00  0.00    +0.000 NA
ATOM      9  C   UNL     1      26.808  22.097  29.871  0.00  0.00    +0.000 A 
ATOM     10  C   UNL     1      27.544  22.909  29.007  0.00  0.00    +0.000 A 
ATOM     11  C   UNL     1      27.155  24.204  29.374  0.00  0.00    +0.000 A 
ATOM     12  C   UNL     1      28.459  22.611  27.880  0.00  0.00    +0.000 C 
ATOM     13  C   UNL     1      29.110  23.981  27.627  0.00  0.00    +0.000 C 
ATOM     14  C   UNL     1      27.668  24.780  27.279  0.00  0.00    +0.000 C 
ATOM     15  C   UNL     1      28.288  25.929  26.338  0.00  0.00    +0.000 C 
ATOM     16  C   UNL     1      28.066  25.135  25.029  0.00  0.00    +0.000 C 
ATOM     17  C   UNL     1      28.499  23.733  25.213  0.00  0.00    +0.000 C 
ATOM     18  C   UNL     1      27.643  22.669  25.481  0.00  0.00    +0.000 C 
ATOM     19  C   UNL     1      29.330  23.254  23.896  0.00  0.00    +0.000 C 
ATOM     20  O   UNL     1      30.252  24.451  23.898  0.00  0.00    +0.000 OA
ATOM     21  C   UNL     1      30.394  22.275  24.650  0.00  0.00    +0.000 C 
ATOM     22  C   UNL     1      30.149  22.369  26.068  0.00  0.00    +0.000 C 
ATOM     23  C   UNL     1      29.789  23.934  26.121  0.00  0.00    +0.000 C 
ENDROOT
TORSDOF 0
ENDMDL
MODEL 9
REMARK VINA RESULT:      -6.8     33.203     34.462
REMARK  Name = 
REMARK  0 active torsions:
REMARK  status: ('A' for Active; 'I' for Inactive)
REMARK                            x       y       z     vdW  Elec       q    Type
REMARK                         _______ _______ _______ _____ _____    ______ ____
ROOT
ATOM      1  C   UNL     1      17.370  -9.231  26.401  0.00  0.00    +0.000 C 
ATOM      2  C   UNL     1      18.276  -8.298  27.244  0.00  0.00    +0.000 C 
ATOM      3  C   UNL     1      17.570  -7.153  27.431  0.00  0.00    +0.000 C 
ATOM      4  C   UNL     1      17.933  -6.024  26.926  0.00  0.00    +0.000 C 
ATOM      5  C   UNL     1      19.124  -5.800  26.130  0.00  0.00    +0.000 C 
ATOM      6  O   UNL     1      19.502  -4.746  25.603  0.00  0.00    +0.000 OA
ATOM      7  C   UNL     1      19.974  -6.967  25.931  0.00  0.00    +0.000 A 
ATOM      8  N   UNL     1      21.161  -7.218  25.366  0.00  0.00    +0.000 NA
ATOM      9  C   UNL     1      21.507  -8.496  25.596  0.00  0.00    +0.000 A 
ATOM     10  C   UNL     1      20.501  -9.109  26.343  0.00  0.00    +0.000 A 
ATOM     11  C   UNL     1      19.560  -8.085  26.514  0.00  0.00    +0.000 A 
ATOM     12  C   UNL     1      20.375 -10.454  26.951  0.00  0.00    +0.000 C 
ATOM     13  C   UNL     1      18.888 -10.492  27.338  0.00  0.00    +0.000 C 
ATOM     14  C   UNL     1      18.960  -9.165  28.374  0.00  0.00    +0.000 C 
ATOM     15  C   UNL     1      17.728  -9.575  29.325  0.00  0.00    +0.000 C 
ATOM     16  C   UNL     1      18.619 -10.316  30.350  0.00  0.00    +0.000 C 
ATOM     17  C   UNL     1      19.589 -11.178  29.641  0.00  0.00    +0.000 C 
ATOM     18  C   UNL     1      20.917 -10.842  29.396  0.00  0.00    +0.000 C 
ATOM     19  C   UNL     1      19.675 -12.619  30.396  0.00  0.00    +0.000 C 
ATOM     20  O   UNL     1      18.179 -12.832  30.413  0.00  0.00    +0.000 OA
ATOM     21  C   UNL     1      19.920 -13.547  29.078  0.00  0.00    +0.000 C 
ATOM     22  C   UNL     1      19.858 -12.689  27.920  0.00  0.00    +0.000 C 
ATOM     23  C   UNL     1      18.694 -11.710  28.438  0.00  0.00    +0.000 C 
ENDROOT
TORSDOF 0
ENDMDL
MODEL 10
REMARK VINA RESULT:      -6.5      3.250      6.305
REMARK  Name = 
REMARK  0 active torsions:
REMARK  status: ('A' for Active; 'I' for Inactive)
REMARK                            x       y       z     vdW  Elec       q    Type
REMARK                         _______ _______ _______ _____ _____    ______ ____
ROOT
ATOM      1  C   UNL     1      29.755  24.767  29.419  0.00  0.00    +0.000 C 
ATOM      2  C   UNL     1      29.744  23.217  29.407  0.00  0.00    +0.000 C 
ATOM      3  C   UNL     1      28.970  22.836  30.455  0.00  0.00    +0.000 C 
ATOM      4  C   UNL     1      29.445  22.207  31.476  0.00  0.00    +0.000 C 
ATOM      5  C   UNL     1      30.825  21.799  31.648  0.00  0.00    +0.000 C 
ATOM      6  O   UNL     1      31.334  21.219  32.615  0.00  0.00    +0.000 OA
ATOM      7  C   UNL     1      31.716  22.115  30.538  0.00  0.00    +0.000 A 
ATOM      8  N   UNL     1      32.992  21.873  30.219  0.00  0.00    +0.000 NA
ATOM      9  C   UNL     1      33.239  22.324  28.977  0.00  0.00    +0.000 A 
ATOM     10  C   UNL     1      32.071  22.886  28.461  0.00  0.00    +0.000 A 
ATOM     11  C   UNL     1      31.149  22.725  29.504  0.00  0.00    +0.000 A 
ATOM     12  C   UNL     1      31.726  23.451  27.135  0.00  0.00    +0.000 C 
ATOM     13  C   UNL     1      30.382  24.140  27.423  0.00  0.00    +0.000 C 
ATOM     14  C   UNL     1      29.586  22.738  27.911  0.00  0.00    +0.000 C 
ATOM     15  C   UNL     1      28.093  23.200  27.527  0.00  0.00    +0.000 C 
ATOM     16  C   UNL     1      28.142  22.579  26.111  0.00  0.00    +0.000 C 
ATOM     17  C   UNL     1      29.428  22.913  25.461  0.00  0.00    +0.000 C 
ATOM     18  C   UNL     1      30.525  22.060  25.391  0.00  0.00    +0.000 C 
ATOM     19  C   UNL     1      29.150  23.333  23.912  0.00  0.00    +0.000 C 
ATOM     20  O   UNL     1      28.068  24.331  24.253  0.00  0.00    +0.000 OA
ATOM     21  C   UNL     1      30.321  24.458  23.773  0.00  0.00    +0.000 C 
ATOM     22  C   UNL     1      30.955  24.594  25.062  0.00  0.00    +0.000 C 
ATOM     23  C   UNL     1      29.642  24.405  25.968  0.00  0.00    +0.000 C 
ENDROOT
TORSDOF 0
ENDMDL
