MODEL 1
REMARK VINA RESULT:      -8.5      0.000      0.000
REMARK  Name = 
REMARK  6 active torsions:
REMARK  status: ('A' for Active; 'I' for Inactive)
REMARK    1  A    between atoms: C_2  and  C_3
REMARK    2  A    between atoms: N_15  and  C_16
REMARK    3  A    between atoms: C_16  and  C_17
REMARK    4  A    between atoms: C_17  and  C_18
REMARK    5  A    between atoms: C_18  and  N_19
REMARK    6  A    between atoms: C_22  and  C_24
REMARK                            x       y       z     vdW  Elec       q    Type
REMARK                         _______ _______ _______ _____ _____    ______ ____
ROOT
ATOM      1  C   UNL     1      25.775  17.828  36.604  0.00  0.00    +0.000 C 
ENDROOT
BRANCH   1  14
ATOM      2  C   UNL     1      23.382  20.053  32.581  0.00  0.00    +0.000 A 
ATOM      3  C   UNL     1      23.652  20.626  33.808  0.00  0.00    +0.000 A 
ATOM      4  C   UNL     1      24.287  19.905  34.767  0.00  0.00    +0.000 A 
ATOM      5  C   UNL     1      24.651  18.600  34.490  0.00  0.00    +0.000 A 
ATOM      6  C   UNL     1      24.374  18.030  33.253  0.00  0.00    +0.000 A 
ATOM      7  C   UNL     1      23.738  18.756  32.293  0.00  0.00    +0.000 A 
ATOM      8  C   UNL     1      24.864  16.754  33.306  0.00  0.00    +0.000 A 
ATOM      9  C   UNL     1      24.870  15.737  32.380  0.00  0.00    +0.000 A 
ATOM     10  C   UNL     1      25.436  14.511  32.680  0.00  0.00    +0.000 A 
ATOM     11  C   UNL     1      25.988  14.332  33.916  0.00  0.00    +0.000 A 
ATOM     12  C   UNL     1      26.006  15.316  34.875  0.00  0.00    +0.000 A 
ATOM     13  C   UNL     1      25.435  16.537  34.558  0.00  0.00    +0.000 A 
ATOM     14  N   UNL     1      25.283  17.696  35.255  0.00  0.00    +0.000 N 
BRANCH   2  16
ATOM     15  C   UNL     1      22.243  22.142  32.232  0.00  0.00    +0.000 C 
ATOM     16  C   UNL     1      22.685  20.887  31.549  0.00  0.00    +0.000 C 
ENDBRANCH   2  16
ENDBRANCH   1  14
BRANCH   1  17
ATOM     17  C   UNL     1      24.753  17.200  37.520  0.00  0.00    +0.000 C 
BRANCH  17  18
ATOM     18  C   UNL     1      25.445  16.613  38.705  0.00  0.00    +0.000 C 
BRANCH  18  19
ATOM     19  N   UNL     1      25.867  15.269  38.423  0.00  0.00    +0.000 NA
ATOM     20  C   UNL     1      27.324  15.148  38.662  0.00  0.00    +0.000 C 
ATOM     21  C   UNL     1      27.613  15.583  40.091  0.00  0.00    +0.000 C 
ATOM     22  C   UNL     1      26.837  14.703  41.062  0.00  0.00    +0.000 C 
ATOM     23  O   UNL     1      27.098  15.191  42.356  0.00  0.00    +0.000 OA
ATOM     24  C   UNL     1      25.391  14.780  40.720  0.00  0.00    +0.000 C 
ATOM     25  C   UNL     1      25.157  14.365  39.306  0.00  0.00    +0.000 C 
BRANCH  22  26
ATOM     26  C   UNL     1      27.320  13.309  40.921  0.00  0.00    +0.000 A 
ATOM     27  C   UNL     1      28.696  13.160  40.766  0.00  0.00    +0.000 A 
ATOM     28  C   UNL     1      29.202  11.888  40.648  0.00  0.00    +0.000 A 
ATOM     29  C   UNL     1      28.410  10.760  40.677  0.00  0.00    +0.000 A 
ATOM     30  C   UNL     1      27.056  10.912  40.829  0.00  0.00    +0.000 A 
ATOM     31  C   UNL     1      26.525  12.178  40.949  0.00  0.00    +0.000 A 
ENDBRANCH  22  26
ENDBRANCH  18  19
ENDBRANCH  17  18
ENDBRANCH   1  17
TORSDOF 6
ENDMDL
MODEL 2
REMARK VINA RESULT:      -8.3     24.646     27.377
REMARK  Name = 
REMARK  6 active torsions:
REMARK  status: ('A' for Active; 'I' for Inactive)
REMARK    1  A    between atoms: C_2  and  C_3
REMARK    2  A    between atoms: N_15  and  C_16
REMARK    3  A    between atoms: C_16  and  C_17
REMARK    4  A    between atoms: C_17  and  C_18
REMARK    5  A    between atoms: C_18  and  N_19
REMARK    6  A    between atoms: C_22  and  C_24
REMARK                            x       y       z     vdW  Elec       q    Type
REMARK                         _______ _______ _______ _____ _____    ______ ____
ROOT
ATOM      1  C   UNL     1      37.194   3.901  14.432  0.00  0.00    +0.000 C 
ENDROOT
BRANCH   1  14
ATOM      2  C   UNL     1      38.991   6.324  18.647  0.00  0.00    +0.000 A 
ATOM      3  C   UNL     1      38.945   4.962  18.428  0.00  0.00    +0.000 A 
ATOM      4  C   UNL     1      38.436   4.480  17.265  0.00  0.00    +0.000 A 
ATOM      5  C   UNL     1      37.972   5.374  16.318  0.00  0.00    +0.000 A 
ATOM      6  C   UNL     1      38.021   6.744  16.547  0.00  0.00    +0.000 A 
ATOM      7  C   UNL     1      38.532   7.224  17.714  0.00  0.00    +0.000 A 
ATOM      8  C   UNL     1      37.499   7.333  15.428  0.00  0.00    +0.000 A 
ATOM      9  C   UNL     1      37.298   8.653  15.099  0.00  0.00    +0.000 A 
ATOM     10  C   UNL     1      36.738   9.001  13.883  0.00  0.00    +0.000 A 
ATOM     11  C   UNL     1      36.389   8.005  13.016  0.00  0.00    +0.000 A 
ATOM     12  C   UNL     1      36.569   6.673  13.299  0.00  0.00    +0.000 A 
ATOM     13  C   UNL     1      37.130   6.343  14.521  0.00  0.00    +0.000 A 
ATOM     14  N   UNL     1      37.437   5.153  15.107  0.00  0.00    +0.000 N 
BRANCH   2  16
ATOM     15  C   UNL     1      40.981   6.332  19.996  0.00  0.00    +0.000 C 
ATOM     16  C   UNL     1      39.566   6.813  19.942  0.00  0.00    +0.000 C 
ENDBRANCH   2  16
ENDBRANCH   1  14
BRANCH   1  17
ATOM     17  C   UNL     1      35.876   3.367  14.937  0.00  0.00    +0.000 C 
BRANCH  17  18
ATOM     18  C   UNL     1      35.936   1.876  14.994  0.00  0.00    +0.000 C 
BRANCH  18  19
ATOM     19  N   UNL     1      36.898   1.452  15.973  0.00  0.00    +0.000 NA
ATOM     20  C   UNL     1      36.198   1.086  17.227  0.00  0.00    +0.000 C 
ATOM     21  C   UNL     1      35.158   0.023  16.902  0.00  0.00    +0.000 C 
ATOM     22  C   UNL     1      35.842  -1.195  16.296  0.00  0.00    +0.000 C 
ATOM     23  O   UNL     1      34.826  -2.112  15.965  0.00  0.00    +0.000 OA
ATOM     24  C   UNL     1      36.611  -0.761  15.099  0.00  0.00    +0.000 C 
ATOM     25  C   UNL     1      37.603   0.294  15.460  0.00  0.00    +0.000 C 
BRANCH  22  26
ATOM     26  C   UNL     1      36.757  -1.771  17.309  0.00  0.00    +0.000 A 
ATOM     27  C   UNL     1      37.753  -2.611  16.816  0.00  0.00    +0.000 A 
ATOM     28  C   UNL     1      38.640  -3.160  17.709  0.00  0.00    +0.000 A 
ATOM     29  C   UNL     1      38.588  -2.916  19.065  0.00  0.00    +0.000 A 
ATOM     30  C   UNL     1      37.606  -2.090  19.546  0.00  0.00    +0.000 A 
ATOM     31  C   UNL     1      36.703  -1.527  18.669  0.00  0.00    +0.000 A 
ENDBRANCH  22  26
ENDBRANCH  18  19
ENDBRANCH  17  18
ENDBRANCH   1  17
TORSDOF 6
ENDMDL
MODEL 3
REMARK VINA RESULT:      -8.3     25.244     28.459
REMARK  Name = 
REMARK  6 active torsions:
REMARK  status: ('A' for Active; 'I' for Inactive)
REMARK    1  A    between atoms: C_2  and  C_3
REMARK    2  A    between atoms: N_15  and  C_16
REMARK    3  A    between atoms: C_16  and  C_17
REMARK    4  A    between atoms: C_17  and  C_18
REMARK    5  A    between atoms: C_18  and  N_19
REMARK    6  A    between atoms: C_22  and  C_24
REMARK                            x       y       z     vdW  Elec       q    Type
REMARK                         _______ _______ _______ _____ _____    ______ ____
ROOT
ATOM      1  C   UNL     1      36.107   2.412  15.314  0.00  0.00    +0.000 C 
ENDROOT
BRANCH   1  14
ATOM      2  C   UNL     1      40.320  -0.504  14.534  0.00  0.00    +0.000 A 
ATOM      3  C   UNL     1      40.140   0.812  14.159  0.00  0.00    +0.000 A 
ATOM      4  C   UNL     1      38.967   1.439  14.434  0.00  0.00    +0.000 A 
ATOM      5  C   UNL     1      37.972   0.738  15.089  0.00  0.00    +0.000 A 
ATOM      6  C   UNL     1      38.161  -0.588  15.461  0.00  0.00    +0.000 A 
ATOM      7  C   UNL     1      39.337  -1.214  15.185  0.00  0.00    +0.000 A 
ATOM      8  C   UNL     1      37.005  -0.974  16.083  0.00  0.00    +0.000 A 
ATOM      9  C   UNL     1      36.626  -2.169  16.648  0.00  0.00    +0.000 A 
ATOM     10  C   UNL     1      35.377  -2.314  17.225  0.00  0.00    +0.000 A 
ATOM     11  C   UNL     1      34.527  -1.245  17.219  0.00  0.00    +0.000 A 
ATOM     12  C   UNL     1      34.859  -0.032  16.666  0.00  0.00    +0.000 A 
ATOM     13  C   UNL     1      36.113   0.096  16.094  0.00  0.00    +0.000 A 
ATOM     14  N   UNL     1      36.746   1.128  15.473  0.00  0.00    +0.000 N 
BRANCH   2  16
ATOM     15  C   UNL     1      41.403  -2.634  14.265  0.00  0.00    +0.000 C 
ATOM     16  C   UNL     1      41.631  -1.157  14.217  0.00  0.00    +0.000 C 
ENDBRANCH   2  16
ENDBRANCH   1  14
BRANCH   1  17
ATOM     17  C   UNL     1      36.424   3.228  16.543  0.00  0.00    +0.000 C 
BRANCH  17  18
ATOM     18  C   UNL     1      37.370   4.323  16.179  0.00  0.00    +0.000 C 
BRANCH  18  19
ATOM     19  N   UNL     1      38.656   4.094  16.778  0.00  0.00    +0.000 NA
ATOM     20  C   UNL     1      39.698   4.796  15.993  0.00  0.00    +0.000 C 
ATOM     21  C   UNL     1      39.326   6.269  15.910  0.00  0.00    +0.000 C 
ATOM     22  C   UNL     1      39.229   6.852  17.314  0.00  0.00    +0.000 C 
ATOM     23  O   UNL     1      38.824   8.193  17.172  0.00  0.00    +0.000 OA
ATOM     24  C   UNL     1      38.243   6.054  18.092  0.00  0.00    +0.000 C 
ATOM     25  C   UNL     1      38.637   4.616  18.130  0.00  0.00    +0.000 C 
BRANCH  22  26
ATOM     26  C   UNL     1      40.565   6.773  17.949  0.00  0.00    +0.000 A 
ATOM     27  C   UNL     1      40.568   6.564  19.326  0.00  0.00    +0.000 A 
ATOM     28  C   UNL     1      41.780   6.466  19.965  0.00  0.00    +0.000 A 
ATOM     29  C   UNL     1      42.987   6.563  19.304  0.00  0.00    +0.000 A 
ATOM     30  C   UNL     1      42.978   6.768  17.949  0.00  0.00    +0.000 A 
ATOM     31  C   UNL     1      41.774   6.871  17.286  0.00  0.00    +0.000 A 
ENDBRANCH  22  26
ENDBRANCH  18  19
ENDBRANCH  17  18
ENDBRANCH   1  17
TORSDOF 6
ENDMDL
MODEL 4
REMARK VINA RESULT:      -8.3     20.434     22.828
REMARK  Name = 
REMARK  6 active torsions:
REMARK  status: ('A' for Active; 'I' for Inactive)
REMARK    1  A    between atoms: C_2  and  C_3
REMARK    2  A    between atoms: N_15  and  C_16
REMARK    3  A    between atoms: C_16  and  C_17
REMARK    4  A    between atoms: C_17  and  C_18
REMARK    5  A    between atoms: C_18  and  N_19
REMARK    6  A    between atoms: C_22  and  C_24
REMARK                            x       y       z     vdW  Elec       q    Type
REMARK                         _______ _______ _______ _____ _____    ______ ____
ROOT
ATOM      1  C   UNL     1      13.384  -0.038  27.860  0.00  0.00    +0.000 C 
ENDROOT
BRANCH   1  14
ATOM      2  C   UNL     1       9.527   3.416  27.618  0.00  0.00    +0.000 A 
ATOM      3  C   UNL     1      10.634   3.462  28.442  0.00  0.00    +0.000 A 
ATOM      4  C   UNL     1      11.559   2.471  28.389  0.00  0.00    +0.000 A 
ATOM      5  C   UNL     1      11.370   1.427  27.502  0.00  0.00    +0.000 A 
ATOM      6  C   UNL     1      10.253   1.388  26.676  0.00  0.00    +0.000 A 
ATOM      7  C   UNL     1       9.327   2.384  26.731  0.00  0.00    +0.000 A 
ATOM      8  C   UNL     1      10.375   0.248  25.930  0.00  0.00    +0.000 A 
ATOM      9  C   UNL     1       9.569  -0.301  24.960  0.00  0.00    +0.000 A 
ATOM     10  C   UNL     1       9.914  -1.490  24.342  0.00  0.00    +0.000 A 
ATOM     11  C   UNL     1      11.073  -2.108  24.718  0.00  0.00    +0.000 A 
ATOM     12  C   UNL     1      11.910  -1.600  25.682  0.00  0.00    +0.000 A 
ATOM     13  C   UNL     1      11.548  -0.410  26.290  0.00  0.00    +0.000 A 
ATOM     14  N   UNL     1      12.131   0.348  27.259  0.00  0.00    +0.000 N 
BRANCH   2  16
ATOM     15  C   UNL     1       7.199   3.955  27.358  0.00  0.00    +0.000 C 
ATOM     16  C   UNL     1       8.533   4.534  27.704  0.00  0.00    +0.000 C 
ENDBRANCH   2  16
ENDBRANCH   1  14
BRANCH   1  17
ATOM     17  C   UNL     1      14.430   0.942  27.390  0.00  0.00    +0.000 C 
BRANCH  17  18
ATOM     18  C   UNL     1      15.748   0.249  27.287  0.00  0.00    +0.000 C 
BRANCH  18  19
ATOM     19  N   UNL     1      16.524   0.808  26.215  0.00  0.00    +0.000 NA
ATOM     20  C   UNL     1      17.914   1.031  26.676  0.00  0.00    +0.000 C 
ATOM     21  C   UNL     1      18.465  -0.289  27.196  0.00  0.00    +0.000 C 
ATOM     22  C   UNL     1      18.431  -1.331  26.086  0.00  0.00    +0.000 C 
ATOM     23  O   UNL     1      18.894  -2.538  26.643  0.00  0.00    +0.000 OA
ATOM     24  C   UNL     1      17.034  -1.448  25.589  0.00  0.00    +0.000 C 
ATOM     25  C   UNL     1      16.529  -0.129  25.109  0.00  0.00    +0.000 C 
BRANCH  22  26
ATOM     26  C   UNL     1      19.325  -0.882  24.993  0.00  0.00    +0.000 A 
ATOM     27  C   UNL     1      19.421  -1.740  23.900  0.00  0.00    +0.000 A 
ATOM     28  C   UNL     1      20.224  -1.365  22.850  0.00  0.00    +0.000 A 
ATOM     29  C   UNL     1      20.934  -0.183  22.832  0.00  0.00    +0.000 A 
ATOM     30  C   UNL     1      20.836   0.657  23.910  0.00  0.00    +0.000 A 
ATOM     31  C   UNL     1      20.037   0.304  24.977  0.00  0.00    +0.000 A 
ENDBRANCH  22  26
ENDBRANCH  18  19
ENDBRANCH  17  18
ENDBRANCH   1  17
TORSDOF 6
ENDMDL
MODEL 5
REMARK VINA RESULT:      -8.0     20.127     22.036
REMARK  Name = 
REMARK  6 active torsions:
REMARK  status: ('A' for Active; 'I' for Inactive)
REMARK    1  A    between atoms: C_2  and  C_3
REMARK    2  A    between atoms: N_15  and  C_16
REMARK    3  A    between atoms: C_16  and  C_17
REMARK    4  A    between atoms: C_17  and  C_18
REMARK    5  A    between atoms: C_18  and  N_19
REMARK    6  A    between atoms: C_22  and  C_24
REMARK                            x       y       z     vdW  Elec       q    Type
REMARK                         _______ _______ _______ _____ _____    ______ ____
ROOT
ATOM      1  C   UNL     1      13.456   0.159  27.749  0.00  0.00    +0.000 C 
ENDROOT
BRANCH   1  14
ATOM      2  C   UNL     1      11.879   1.473  32.508  0.00  0.00    +0.000 A 
ATOM      3  C   UNL     1      12.864   0.563  32.181  0.00  0.00    +0.000 A 
ATOM      4  C   UNL     1      13.159   0.324  30.877  0.00  0.00    +0.000 A 
ATOM      5  C   UNL     1      12.459   1.005  29.898  0.00  0.00    +0.000 A 
ATOM      6  C   UNL     1      11.468   1.919  30.236  0.00  0.00    +0.000 A 
ATOM      7  C   UNL     1      11.175   2.156  31.544  0.00  0.00    +0.000 A 
ATOM      8  C   UNL     1      10.988   2.409  29.053  0.00  0.00    +0.000 A 
ATOM      9  C   UNL     1      10.006   3.332  28.777  0.00  0.00    +0.000 A 
ATOM     10  C   UNL     1       9.695   3.665  27.471  0.00  0.00    +0.000 A 
ATOM     11  C   UNL     1      10.384   3.057  26.461  0.00  0.00    +0.000 A 
ATOM     12  C   UNL     1      11.372   2.130  26.685  0.00  0.00    +0.000 A 
ATOM     13  C   UNL     1      11.670   1.808  27.999  0.00  0.00    +0.000 A 
ATOM     14  N   UNL     1      12.565   0.951  28.561  0.00  0.00    +0.000 N 
BRANCH   2  16
ATOM     15  C   UNL     1      11.232   3.157  34.097  0.00  0.00    +0.000 C 
ATOM     16  C   UNL     1      11.589   1.711  33.959  0.00  0.00    +0.000 C 
ENDBRANCH   2  16
ENDBRANCH   1  14
BRANCH   1  17
ATOM     17  C   UNL     1      14.616   1.042  27.360  0.00  0.00    +0.000 C 
BRANCH  17  18
ATOM     18  C   UNL     1      15.823   0.196  27.121  0.00  0.00    +0.000 C 
BRANCH  18  19
ATOM     19  N   UNL     1      16.627   0.758  26.071  0.00  0.00    +0.000 NA
ATOM     20  C   UNL     1      18.005   0.978  26.569  0.00  0.00    +0.000 C 
ATOM     21  C   UNL     1      18.541  -0.345  27.098  0.00  0.00    +0.000 C 
ATOM     22  C   UNL     1      18.534  -1.382  25.982  0.00  0.00    +0.000 C 
ATOM     23  O   UNL     1      18.981  -2.592  26.547  0.00  0.00    +0.000 OA
ATOM     24  C   UNL     1      17.150  -1.496  25.449  0.00  0.00    +0.000 C 
ATOM     25  C   UNL     1      16.659  -0.174  24.962  0.00  0.00    +0.000 C 
BRANCH  22  26
ATOM     26  C   UNL     1      19.456  -0.931  24.915  0.00  0.00    +0.000 A 
ATOM     27  C   UNL     1      19.479  -1.714  23.764  0.00  0.00    +0.000 A 
ATOM     28  C   UNL     1      20.304  -1.332  22.734  0.00  0.00    +0.000 A 
ATOM     29  C   UNL     1      21.106  -0.212  22.792  0.00  0.00    +0.000 A 
ATOM     30  C   UNL     1      21.081   0.556  23.927  0.00  0.00    +0.000 A 
ATOM     31  C   UNL     1      20.261   0.193  24.974  0.00  0.00    +0.000 A 
ENDBRANCH  22  26
ENDBRANCH  18  19
ENDBRANCH  17  18
ENDBRANCH   1  17
TORSDOF 6
ENDMDL
MODEL 6
REMARK VINA RESULT:      -7.9     25.042     27.935
REMARK  Name = 
REMARK  6 active torsions:
REMARK  status: ('A' for Active; 'I' for Inactive)
REMARK    1  A    between atoms: C_2  and  C_3
REMARK    2  A    between atoms: N_15  and  C_16
REMARK    3  A    between atoms: C_16  and  C_17
REMARK    4  A    between atoms: C_17  and  C_18
REMARK    5  A    between atoms: C_18  and  N_19
REMARK    6  A    between atoms: C_22  and  C_24
REMARK                            x       y       z     vdW  Elec       q    Type
REMARK                         _______ _______ _______ _____ _____    ______ ____
ROOT
ATOM      1  C   UNL     1      36.474   4.190  13.976  0.00  0.00    +0.000 C 
ENDROOT
BRANCH   1  14
ATOM      2  C   UNL     1      35.142  -0.027  16.679  0.00  0.00    +0.000 A 
ATOM      3  C   UNL     1      34.844   1.285  16.986  0.00  0.00    +0.000 A 
ATOM      4  C   UNL     1      35.272   2.284  16.174  0.00  0.00    +0.000 A 
ATOM      5  C   UNL     1      36.004   1.961  15.046  0.00  0.00    +0.000 A 
ATOM      6  C   UNL     1      36.301   0.637  14.744  0.00  0.00    +0.000 A 
ATOM      7  C   UNL     1      35.870  -0.363  15.561  0.00  0.00    +0.000 A 
ATOM      8  C   UNL     1      37.019   0.667  13.580  0.00  0.00    +0.000 A 
ATOM      9  C   UNL     1      37.574  -0.338  12.822  0.00  0.00    +0.000 A 
ATOM     10  C   UNL     1      38.271  -0.046  11.663  0.00  0.00    +0.000 A 
ATOM     11  C   UNL     1      38.395   1.261  11.287  0.00  0.00    +0.000 A 
ATOM     12  C   UNL     1      37.859   2.299  12.010  0.00  0.00    +0.000 A 
ATOM     13  C   UNL     1      37.166   1.989  13.168  0.00  0.00    +0.000 A 
ATOM     14  N   UNL     1      36.528   2.753  14.097  0.00  0.00    +0.000 N 
BRANCH   2  16
ATOM     15  C   UNL     1      34.572  -2.360  16.797  0.00  0.00    +0.000 C 
ATOM     16  C   UNL     1      34.645  -1.100  17.599  0.00  0.00    +0.000 C 
ENDBRANCH   2  16
ENDBRANCH   1  14
BRANCH   1  17
ATOM     17  C   UNL     1      37.828   4.727  14.368  0.00  0.00    +0.000 C 
BRANCH  17  18
ATOM     18  C   UNL     1      37.792   5.163  15.795  0.00  0.00    +0.000 C 
BRANCH  18  19
ATOM     19  N   UNL     1      38.980   4.733  16.480  0.00  0.00    +0.000 NA
ATOM     20  C   UNL     1      40.122   5.582  16.067  0.00  0.00    +0.000 C 
ATOM     21  C   UNL     1      39.762   7.035  16.339  0.00  0.00    +0.000 C 
ATOM     22  C   UNL     1      39.465   7.220  17.822  0.00  0.00    +0.000 C 
ATOM     23  O   UNL     1      39.083   8.564  17.998  0.00  0.00    +0.000 OA
ATOM     24  C   UNL     1      38.381   6.278  18.210  0.00  0.00    +0.000 C 
ATOM     25  C   UNL     1      38.768   4.870  17.907  0.00  0.00    +0.000 C 
BRANCH  22  26
ATOM     26  C   UNL     1      40.698   6.922  18.588  0.00  0.00    +0.000 A 
ATOM     27  C   UNL     1      41.896   7.117  17.905  0.00  0.00    +0.000 A 
ATOM     28  C   UNL     1      43.071   6.872  18.573  0.00  0.00    +0.000 A 
ATOM     29  C   UNL     1      43.114   6.445  19.884  0.00  0.00    +0.000 A 
ATOM     30  C   UNL     1      41.933   6.255  20.551  0.00  0.00    +0.000 A 
ATOM     31  C   UNL     1      40.740   6.493  19.902  0.00  0.00    +0.000 A 
ENDBRANCH  22  26
ENDBRANCH  18  19
ENDBRANCH  17  18
ENDBRANCH   1  17
TORSDOF 6
ENDMDL
MODEL 7
REMARK VINA RESULT:      -7.8     26.264     29.671
REMARK  Name = 
REMARK  6 active torsions:
REMARK  status: ('A' for Active; 'I' for Inactive)
REMARK    1  A    between atoms: C_2  and  C_3
REMARK    2  A    between atoms: N_15  and  C_16
REMARK    3  A    between atoms: C_16  and  C_17
REMARK    4  A    between atoms: C_17  and  C_18
REMARK    5  A    between atoms: C_18  and  N_19
REMARK    6  A    between atoms: C_22  and  C_24
REMARK                            x       y       z     vdW  Elec       q    Type
REMARK                         _______ _______ _______ _____ _____    ______ ____
ROOT
ATOM      1  C   UNL     1      38.079   4.965  13.319  0.00  0.00    +0.000 C 
ENDROOT
BRANCH   1  14
ATOM      2  C   UNL     1      39.626   5.658  18.217  0.00  0.00    +0.000 A 
ATOM      3  C   UNL     1      40.119   6.290  17.093  0.00  0.00    +0.000 A 
ATOM      4  C   UNL     1      39.608   5.993  15.871  0.00  0.00    +0.000 A 
ATOM      5  C   UNL     1      38.595   5.056  15.780  0.00  0.00    +0.000 A 
ATOM      6  C   UNL     1      38.105   4.424  16.917  0.00  0.00    +0.000 A 
ATOM      7  C   UNL     1      38.620   4.724  18.141  0.00  0.00    +0.000 A 
ATOM      8  C   UNL     1      37.123   3.576  16.484  0.00  0.00    +0.000 A 
ATOM      9  C   UNL     1      36.303   2.704  17.162  0.00  0.00    +0.000 A 
ATOM     10  C   UNL     1      35.372   1.937  16.485  0.00  0.00    +0.000 A 
ATOM     11  C   UNL     1      35.284   2.065  15.128  0.00  0.00    +0.000 A 
ATOM     12  C   UNL     1      36.080   2.921  14.407  0.00  0.00    +0.000 A 
ATOM     13  C   UNL     1      37.007   3.681  15.100  0.00  0.00    +0.000 A 
ATOM     14  N   UNL     1      37.930   4.600  14.707  0.00  0.00    +0.000 N 
BRANCH   2  16
ATOM     15  C   UNL     1      39.406   7.158  20.084  0.00  0.00    +0.000 C 
ATOM     16  C   UNL     1      40.215   6.020  19.547  0.00  0.00    +0.000 C 
ENDBRANCH   2  16
ENDBRANCH   1  14
BRANCH   1  17
ATOM     17  C   UNL     1      39.305   4.259  12.796  0.00  0.00    +0.000 C 
BRANCH  17  18
ATOM     18  C   UNL     1      38.910   2.938  12.224  0.00  0.00    +0.000 C 
BRANCH  18  19
ATOM     19  N   UNL     1      40.033   2.043  12.208  0.00  0.00    +0.000 NA
ATOM     20  C   UNL     1      40.342   1.615  13.593  0.00  0.00    +0.000 C 
ATOM     21  C   UNL     1      39.087   0.998  14.195  0.00  0.00    +0.000 C 
ATOM     22  C   UNL     1      38.646  -0.191  13.352  0.00  0.00    +0.000 C 
ATOM     23  O   UNL     1      37.455  -0.677  13.923  0.00  0.00    +0.000 OA
ATOM     24  C   UNL     1      38.444   0.268  11.952  0.00  0.00    +0.000 C 
ATOM     25  C   UNL     1      39.691   0.883  11.410  0.00  0.00    +0.000 C 
BRANCH  22  26
ATOM     26  C   UNL     1      39.709  -1.222  13.403  0.00  0.00    +0.000 A 
ATOM     27  C   UNL     1      39.733  -2.119  12.338  0.00  0.00    +0.000 A 
ATOM     28  C   UNL     1      40.708  -3.086  12.325  0.00  0.00    +0.000 A 
ATOM     29  C   UNL     1      41.660  -3.205  13.315  0.00  0.00    +0.000 A 
ATOM     30  C   UNL     1      41.633  -2.320  14.361  0.00  0.00    +0.000 A 
ATOM     31  C   UNL     1      40.664  -1.341  14.397  0.00  0.00    +0.000 A 
ENDBRANCH  22  26
ENDBRANCH  18  19
ENDBRANCH  17  18
ENDBRANCH   1  17
TORSDOF 6
ENDMDL
MODEL 8
REMARK VINA RESULT:      -7.8      2.737      3.345
REMARK  Name = 
REMARK  6 active torsions:
REMARK  status: ('A' for Active; 'I' for Inactive)
REMARK    1  A    between atoms: C_2  and  C_3
REMARK    2  A    between atoms: N_15  and  C_16
REMARK    3  A    between atoms: C_16  and  C_17
REMARK    4  A    between atoms: C_17  and  C_18
REMARK    5  A    between atoms: C_18  and  N_19
REMARK    6  A    between atoms: C_22  and  C_24
REMARK                            x       y       z     vdW  Elec       q    Type
REMARK                         _______ _______ _______ _____ _____    ______ ____
ROOT
ATOM      1  C   UNL     1      25.887  17.858  36.563  0.00  0.00    +0.000 C 
ENDROOT
BRANCH   1  14
ATOM      2  C   UNL     1      23.414  20.066  32.579  0.00  0.00    +0.000 A 
ATOM      3  C   UNL     1      23.730  20.652  33.789  0.00  0.00    +0.000 A 
ATOM      4  C   UNL     1      24.381  19.933  34.739  0.00  0.00    +0.000 A 
ATOM      5  C   UNL     1      24.714  18.619  34.471  0.00  0.00    +0.000 A 
ATOM      6  C   UNL     1      24.391  18.036  33.251  0.00  0.00    +0.000 A 
ATOM      7  C   UNL     1      23.739  18.759  32.300  0.00  0.00    +0.000 A 
ATOM      8  C   UNL     1      24.861  16.753  33.309  0.00  0.00    +0.000 A 
ATOM      9  C   UNL     1      24.823  15.723  32.398  0.00  0.00    +0.000 A 
ATOM     10  C   UNL     1      25.377  14.491  32.700  0.00  0.00    +0.000 A 
ATOM     11  C   UNL     1      25.962  14.320  33.922  0.00  0.00    +0.000 A 
ATOM     12  C   UNL     1      26.025  15.318  34.865  0.00  0.00    +0.000 A 
ATOM     13  C   UNL     1      25.465  16.544  34.547  0.00  0.00    +0.000 A 
ATOM     14  N   UNL     1      25.353  17.715  35.231  0.00  0.00    +0.000 N 
BRANCH   2  16
ATOM     15  C   UNL     1      22.214  22.125  32.257  0.00  0.00    +0.000 C 
ATOM     16  C   UNL     1      22.701  20.897  31.556  0.00  0.00    +0.000 C 
ENDBRANCH   2  16
ENDBRANCH   1  14
BRANCH   1  17
ATOM     17  C   UNL     1      27.288  18.401  36.432  0.00  0.00    +0.000 C 
BRANCH  17  18
ATOM     18  C   UNL     1      28.183  17.700  37.399  0.00  0.00    +0.000 C 
BRANCH  18  19
ATOM     19  N   UNL     1      28.422  16.349  36.971  0.00  0.00    +0.000 NA
ATOM     20  C   UNL     1      29.643  16.306  36.131  0.00  0.00    +0.000 C 
ATOM     21  C   UNL     1      30.795  16.899  36.930  0.00  0.00    +0.000 C 
ATOM     22  C   UNL     1      30.996  16.098  38.209  0.00  0.00    +0.000 C 
ATOM     23  O   UNL     1      32.030  16.728  38.928  0.00  0.00    +0.000 OA
ATOM     24  C   UNL     1      29.717  16.087  38.969  0.00  0.00    +0.000 C 
ATOM     25  C   UNL     1      28.614  15.518  38.142  0.00  0.00    +0.000 C 
BRANCH  22  26
ATOM     26  C   UNL     1      31.383  14.716  37.842  0.00  0.00    +0.000 A 
ATOM     27  C   UNL     1      32.011  14.572  36.607  0.00  0.00    +0.000 A 
ATOM     28  C   UNL     1      32.406  13.313  36.222  0.00  0.00    +0.000 A 
ATOM     29  C   UNL     1      32.209  12.194  37.002  0.00  0.00    +0.000 A 
ATOM     30  C   UNL     1      31.590  12.340  38.216  0.00  0.00    +0.000 A 
ATOM     31  C   UNL     1      31.184  13.593  38.625  0.00  0.00    +0.000 A 
ENDBRANCH  22  26
ENDBRANCH  18  19
ENDBRANCH  17  18
ENDBRANCH   1  17
TORSDOF 6
ENDMDL
MODEL 9
REMARK VINA RESULT:      -7.7     24.225     27.593
REMARK  Name = 
REMARK  6 active torsions:
REMARK  status: ('A' for Active; 'I' for Inactive)
REMARK    1  A    between atoms: C_2  and  C_3
REMARK    2  A    between atoms: N_15  and  C_16
REMARK    3  A    between atoms: C_16  and  C_17
REMARK    4  A    between atoms: C_17  and  C_18
REMARK    5  A    between atoms: C_18  and  N_19
REMARK    6  A    between atoms: C_22  and  C_24
REMARK                            x       y       z     vdW  Elec       q    Type
REMARK                         _______ _______ _______ _____ _____    ______ ____
ROOT
ATOM      1  C   UNL     1      38.307   4.413  14.643  0.00  0.00    +0.000 C 
ENDROOT
BRANCH   1  14
ATOM      2  C   UNL     1      38.931   6.998  19.091  0.00  0.00    +0.000 A 
ATOM      3  C   UNL     1      39.343   5.710  18.815  0.00  0.00    +0.000 A 
ATOM      4  C   UNL     1      39.098   5.170  17.594  0.00  0.00    +0.000 A 
ATOM      5  C   UNL     1      38.436   5.929  16.647  0.00  0.00    +0.000 A 
ATOM      6  C   UNL     1      38.023   7.225  16.934  0.00  0.00    +0.000 A 
ATOM      7  C   UNL     1      38.270   7.764  18.159  0.00  0.00    +0.000 A 
ATOM      8  C   UNL     1      37.417   7.688  15.800  0.00  0.00    +0.000 A 
ATOM      9  C   UNL     1      36.822   8.894  15.508  0.00  0.00    +0.000 A 
ATOM     10  C   UNL     1      36.264   9.125  14.263  0.00  0.00    +0.000 A 
ATOM     11  C   UNL     1      36.317   8.129  13.329  0.00  0.00    +0.000 A 
ATOM     12  C   UNL     1      36.899   6.909  13.573  0.00  0.00    +0.000 A 
ATOM     13  C   UNL     1      37.451   6.695  14.825  0.00  0.00    +0.000 A 
ATOM     14  N   UNL     1      38.086   5.629  15.386  0.00  0.00    +0.000 N 
BRANCH   2  16
ATOM     15  C   UNL     1      38.344   8.754  20.626  0.00  0.00    +0.000 C 
ATOM     16  C   UNL     1      39.226   7.559  20.450  0.00  0.00    +0.000 C 
ENDBRANCH   2  16
ENDBRANCH   1  14
BRANCH   1  17
ATOM     17  C   UNL     1      37.039   3.599  14.723  0.00  0.00    +0.000 C 
BRANCH  17  18
ATOM     18  C   UNL     1      37.364   2.223  15.202  0.00  0.00    +0.000 C 
BRANCH  18  19
ATOM     19  N   UNL     1      36.462   1.266  14.623  0.00  0.00    +0.000 NA
ATOM     20  C   UNL     1      37.231   0.099  14.130  0.00  0.00    +0.000 C 
ATOM     21  C   UNL     1      38.044  -0.462  15.287  0.00  0.00    +0.000 C 
ATOM     22  C   UNL     1      37.110  -0.875  16.417  0.00  0.00    +0.000 C 
ATOM     23  O   UNL     1      37.923  -1.327  17.474  0.00  0.00    +0.000 OA
ATOM     24  C   UNL     1      36.292   0.303  16.810  0.00  0.00    +0.000 C 
ATOM     25  C   UNL     1      35.528   0.832  15.642  0.00  0.00    +0.000 C 
BRANCH  22  26
ATOM     26  C   UNL     1      36.234  -1.964  15.928  0.00  0.00    +0.000 A 
ATOM     27  C   UNL     1      35.005  -2.088  16.572  0.00  0.00    +0.000 A 
ATOM     28  C   UNL     1      34.146  -3.071  16.147  0.00  0.00    +0.000 A 
ATOM     29  C   UNL     1      34.445  -3.936  15.116  0.00  0.00    +0.000 A 
ATOM     30  C   UNL     1      35.655  -3.811  14.486  0.00  0.00    +0.000 A 
ATOM     31  C   UNL     1      36.536  -2.832  14.893  0.00  0.00    +0.000 A 
ENDBRANCH  22  26
ENDBRANCH  18  19
ENDBRANCH  17  18
ENDBRANCH   1  17
TORSDOF 6
ENDMDL
MODEL 10
REMARK VINA RESULT:      -7.7     24.454     27.964
REMARK  Name = 
REMARK  6 active torsions:
REMARK  status: ('A' for Active; 'I' for Inactive)
REMARK    1  A    between atoms: C_2  and  C_3
REMARK    2  A    between atoms: N_15  and  C_16
REMARK    3  A    between atoms: C_16  and  C_17
REMARK    4  A    between atoms: C_17  and  C_18
REMARK    5  A    between atoms: C_18  and  N_19
REMARK    6  A    between atoms: C_22  and  C_24
REMARK                            x       y       z     vdW  Elec       q    Type
REMARK                         _______ _______ _______ _____ _____    ______ ____
ROOT
ATOM      1  C   UNL     1      38.284   3.057  14.582  0.00  0.00    +0.000 C 
ENDROOT
BRANCH   1  14
ATOM      2  C   UNL     1      35.759  -1.166  16.212  0.00  0.00    +0.000 A 
ATOM      3  C   UNL     1      35.275   0.127  16.170  0.00  0.00    +0.000 A 
ATOM      4  C   UNL     1      36.069   1.131  15.717  0.00  0.00    +0.000 A 
ATOM      5  C   UNL     1      37.355   0.834  15.306  0.00  0.00    +0.000 A 
ATOM      6  C   UNL     1      37.834  -0.470  15.353  0.00  0.00    +0.000 A 
ATOM      7  C   UNL     1      37.037  -1.475  15.806  0.00  0.00    +0.000 A 
ATOM      8  C   UNL     1      39.115  -0.419  14.877  0.00  0.00    +0.000 A 
ATOM      9  C   UNL     1      40.065  -1.398  14.701  0.00  0.00    +0.000 A 
ATOM     10  C   UNL     1      41.316  -1.087  14.195  0.00  0.00    +0.000 A 
ATOM     11  C   UNL     1      41.586   0.213  13.876  0.00  0.00    +0.000 A 
ATOM     12  C   UNL     1      40.671   1.225  14.035  0.00  0.00    +0.000 A 
ATOM     13  C   UNL     1      39.426   0.897  14.542  0.00  0.00    +0.000 A 
ATOM     14  N   UNL     1      38.317   1.635  14.821  0.00  0.00    +0.000 N 
BRANCH   2  16
ATOM     15  C   UNL     1      33.737  -1.568  17.449  0.00  0.00    +0.000 C 
ATOM     16  C   UNL     1      34.848  -2.246  16.712  0.00  0.00    +0.000 C 
ENDBRANCH   2  16
ENDBRANCH   1  14
BRANCH   1  17
ATOM     17  C   UNL     1      38.216   3.739  15.926  0.00  0.00    +0.000 C 
BRANCH  17  18
ATOM     18  C   UNL     1      39.172   4.885  15.949  0.00  0.00    +0.000 C 
BRANCH  18  19
ATOM     19  N   UNL     1      38.537   6.055  16.489  0.00  0.00    +0.000 NA
ATOM     20  C   UNL     1      38.239   5.836  17.924  0.00  0.00    +0.000 C 
ATOM     21  C   UNL     1      39.535   5.471  18.633  0.00  0.00    +0.000 C 
ATOM     22  C   UNL     1      40.547   6.597  18.462  0.00  0.00    +0.000 C 
ATOM     23  O   UNL     1      41.737   6.175  19.085  0.00  0.00    +0.000 OA
ATOM     24  C   UNL     1      40.739   6.846  17.008  0.00  0.00    +0.000 C 
ATOM     25  C   UNL     1      39.441   7.179  16.351  0.00  0.00    +0.000 C 
BRANCH  22  26
ATOM     26  C   UNL     1      40.013   7.812  19.121  0.00  0.00    +0.000 A 
ATOM     27  C   UNL     1      39.159   7.589  20.198  0.00  0.00    +0.000 A 
ATOM     28  C   UNL     1      38.648   8.680  20.858  0.00  0.00    +0.000 A 
ATOM     29  C   UNL     1      38.944   9.979  20.501  0.00  0.00    +0.000 A 
ATOM     30  C   UNL     1      39.784  10.193  19.441  0.00  0.00    +0.000 A 
ATOM     31  C   UNL     1      40.310   9.114  18.762  0.00  0.00    +0.000 A 
ENDBRANCH  22  26
ENDBRANCH  18  19
ENDBRANCH  17  18
ENDBRANCH   1  17
TORSDOF 6
ENDMDL
