MODEL 1
REMARK VINA RESULT:      -6.5      0.000      0.000
REMARK  Name = 
REMARK  4 active torsions:
REMARK  status: ('A' for Active; 'I' for Inactive)
REMARK    1  A    between atoms: C_2  and  C_3
REMARK    2  A    between atoms: C_3  and  C_4
REMARK    3  A    between atoms: C_6  and  C_7
REMARK    4  A    between atoms: C_7  and  C_9
REMARK                            x       y       z     vdW  Elec       q    Type
REMARK                         _______ _______ _______ _____ _____    ______ ____
ROOT
ATOM      1  C   UNL     1      15.831  10.012  39.620  0.00  0.00    +0.000 A 
ATOM      2  C   UNL     1      17.118   9.999  39.142  0.00  0.00    +0.000 A 
ATOM      3  C   UNL     1      17.451  10.605  37.930  0.00  0.00    +0.000 A 
ATOM      4  C   UNL     1      16.448  11.228  37.207  0.00  0.00    +0.000 A 
ATOM      5  O   UNL     1      16.508  11.868  36.040  0.00  0.00    +0.000 OA
ATOM      6  C   UNL     1      15.312  12.296  35.742  0.00  0.00    +0.000 A 
ATOM      7  C   UNL     1      14.418  11.936  36.731  0.00  0.00    +0.000 A 
ATOM      8  C   UNL     1      12.955  12.198  36.833  0.00  0.00    +0.000 C 
ATOM      9  C   UNL     1      15.151  11.249  37.676  0.00  0.00    +0.000 A 
ATOM     10  C   UNL     1      14.861  10.638  38.877  0.00  0.00    +0.000 A 
ATOM     11  O   UNL     1      13.544  10.649  39.371  0.00  0.00    +0.000 OA
ENDROOT
BRANCH   3  12
ATOM     12  C   UNL     1      18.819  10.564  37.472  0.00  0.00    +0.000 C 
ATOM     13  O   UNL     1      19.201   9.659  36.710  0.00  0.00    +0.000 OA
BRANCH  12  14
ATOM     14  C   UNL     1      19.755  11.592  37.907  0.00  0.00    +0.000 A 
ATOM     15  C   UNL     1      19.532  12.907  38.207  0.00  0.00    +0.000 A 
ATOM     16  C   UNL     1      20.575  13.644  38.586  0.00  0.00    +0.000 A 
ATOM     17  C   UNL     1      21.794  13.039  38.652  0.00  0.00    +0.000 A 
ATOM     18  S   UNL     1      21.438  11.441  38.175  0.00  0.00    +0.000 S 
ENDBRANCH  12  14
ENDBRANCH   3  12
BRANCH   1  19
ATOM     19  C   UNL     1      15.489   9.367  40.901  0.00  0.00    +0.000 C 
BRANCH  19  21
ATOM     20  C   UNL     1      16.462   9.907  43.109  0.00  0.00    +0.000 C 
ATOM     21  C   UNL     1      16.630   9.592  41.848  0.00  0.00    +0.000 C 
ENDBRANCH  19  21
ENDBRANCH   1  19
TORSDOF 4
ENDMDL
MODEL 2
REMARK VINA RESULT:      -6.4     18.829     21.508
REMARK  Name = 
REMARK  4 active torsions:
REMARK  status: ('A' for Active; 'I' for Inactive)
REMARK    1  A    between atoms: C_2  and  C_3
REMARK    2  A    between atoms: C_3  and  C_4
REMARK    3  A    between atoms: C_6  and  C_7
REMARK    4  A    between atoms: C_7  and  C_9
REMARK                            x       y       z     vdW  Elec       q    Type
REMARK                         _______ _______ _______ _____ _____    ______ ____
ROOT
ATOM      1  C   UNL     1      28.840  22.605  26.543  0.00  0.00    +0.000 A 
ATOM      2  C   UNL     1      28.462  22.772  25.234  0.00  0.00    +0.000 A 
ATOM      3  C   UNL     1      27.264  23.404  24.897  0.00  0.00    +0.000 A 
ATOM      4  C   UNL     1      26.452  23.864  25.919  0.00  0.00    +0.000 A 
ATOM      5  O   UNL     1      25.276  24.490  25.859  0.00  0.00    +0.000 OA
ATOM      6  C   UNL     1      24.877  24.736  27.077  0.00  0.00    +0.000 A 
ATOM      7  C   UNL     1      25.805  24.263  27.985  0.00  0.00    +0.000 A 
ATOM      8  C   UNL     1      25.788  24.312  29.474  0.00  0.00    +0.000 C 
ATOM      9  C   UNL     1      26.819  23.703  27.238  0.00  0.00    +0.000 A 
ATOM     10  C   UNL     1      28.010  23.073  27.531  0.00  0.00    +0.000 A 
ATOM     11  O   UNL     1      28.402  22.899  28.871  0.00  0.00    +0.000 OA
ENDROOT
BRANCH   3  12
ATOM     12  C   UNL     1      26.913  23.556  23.505  0.00  0.00    +0.000 C 
ATOM     13  O   UNL     1      25.937  22.947  23.032  0.00  0.00    +0.000 OA
BRANCH  12  14
ATOM     14  C   UNL     1      27.708  24.429  22.653  0.00  0.00    +0.000 A 
ATOM     15  C   UNL     1      28.717  24.119  21.783  0.00  0.00    +0.000 A 
ATOM     16  C   UNL     1      29.290  25.118  21.113  0.00  0.00    +0.000 A 
ATOM     17  C   UNL     1      28.831  26.382  21.338  0.00  0.00    +0.000 A 
ATOM     18  S   UNL     1      27.602  26.129  22.492  0.00  0.00    +0.000 S 
ENDBRANCH  12  14
ENDBRANCH   3  12
BRANCH   1  19
ATOM     19  C   UNL     1      30.107  21.936  26.889  0.00  0.00    +0.000 C 
BRANCH  19  21
ATOM     20  C   UNL     1      31.634  23.858  27.184  0.00  0.00    +0.000 C 
ATOM     21  C   UNL     1      31.232  22.834  26.470  0.00  0.00    +0.000 C 
ENDBRANCH  19  21
ENDBRANCH   1  19
TORSDOF 4
ENDMDL
MODEL 3
REMARK VINA RESULT:      -6.3     19.713     22.272
REMARK  Name = 
REMARK  4 active torsions:
REMARK  status: ('A' for Active; 'I' for Inactive)
REMARK    1  A    between atoms: C_2  and  C_3
REMARK    2  A    between atoms: C_3  and  C_4
REMARK    3  A    between atoms: C_6  and  C_7
REMARK    4  A    between atoms: C_7  and  C_9
REMARK                            x       y       z     vdW  Elec       q    Type
REMARK                         _______ _______ _______ _____ _____    ______ ____
ROOT
ATOM      1  C   UNL     1      26.407  23.869  26.148  0.00  0.00    +0.000 A 
ATOM      2  C   UNL     1      26.268  24.089  24.801  0.00  0.00    +0.000 A 
ATOM      3  C   UNL     1      27.284  23.763  23.900  0.00  0.00    +0.000 A 
ATOM      4  C   UNL     1      28.451  23.208  24.397  0.00  0.00    +0.000 A 
ATOM      5  O   UNL     1      29.552  22.817  23.754  0.00  0.00    +0.000 OA
ATOM      6  C   UNL     1      30.398  22.352  24.631  0.00  0.00    +0.000 A 
ATOM      7  C   UNL     1      29.859  22.431  25.900  0.00  0.00    +0.000 A 
ATOM      8  C   UNL     1      30.444  22.026  27.209  0.00  0.00    +0.000 C 
ATOM      9  C   UNL     1      28.604  22.982  25.748  0.00  0.00    +0.000 A 
ATOM     10  C   UNL     1      27.578  23.317  26.606  0.00  0.00    +0.000 A 
ATOM     11  O   UNL     1      27.716  23.094  27.988  0.00  0.00    +0.000 OA
ENDROOT
BRANCH   3  12
ATOM     12  C   UNL     1      27.088  24.014  22.492  0.00  0.00    +0.000 C 
ATOM     13  O   UNL     1      26.294  23.320  21.834  0.00  0.00    +0.000 OA
BRANCH  12  14
ATOM     14  C   UNL     1      27.827  25.088  21.843  0.00  0.00    +0.000 A 
ATOM     15  C   UNL     1      29.011  25.046  21.160  0.00  0.00    +0.000 A 
ATOM     16  C   UNL     1      29.478  26.187  20.655  0.00  0.00    +0.000 A 
ATOM     17  C   UNL     1      28.746  27.319  20.850  0.00  0.00    +0.000 A 
ATOM     18  S   UNL     1      27.412  26.745  21.745  0.00  0.00    +0.000 S 
ENDBRANCH  12  14
ENDBRANCH   3  12
BRANCH   1  19
ATOM     19  C   UNL     1      25.328  24.217  27.090  0.00  0.00    +0.000 C 
BRANCH  19  21
ATOM     20  C   UNL     1      23.558  25.942  27.120  0.00  0.00    +0.000 C 
ATOM     21  C   UNL     1      24.626  25.429  26.558  0.00  0.00    +0.000 C 
ENDBRANCH  19  21
ENDBRANCH   1  19
TORSDOF 4
ENDMDL
MODEL 4
REMARK VINA RESULT:      -6.2     18.855     21.364
REMARK  Name = 
REMARK  4 active torsions:
REMARK  status: ('A' for Active; 'I' for Inactive)
REMARK    1  A    between atoms: C_2  and  C_3
REMARK    2  A    between atoms: C_3  and  C_4
REMARK    3  A    between atoms: C_6  and  C_7
REMARK    4  A    between atoms: C_7  and  C_9
REMARK                            x       y       z     vdW  Elec       q    Type
REMARK                         _______ _______ _______ _____ _____    ______ ____
ROOT
ATOM      1  C   UNL     1      24.669  25.390  26.145  0.00  0.00    +0.000 A 
ATOM      2  C   UNL     1      24.948  25.016  24.854  0.00  0.00    +0.000 A 
ATOM      3  C   UNL     1      25.899  24.035  24.569  0.00  0.00    +0.000 A 
ATOM      4  C   UNL     1      26.567  23.439  25.625  0.00  0.00    +0.000 A 
ATOM      5  O   UNL     1      27.506  22.492  25.616  0.00  0.00    +0.000 OA
ATOM      6  C   UNL     1      27.846  22.237  26.850  0.00  0.00    +0.000 A 
ATOM      7  C   UNL     1      27.121  23.032  27.716  0.00  0.00    +0.000 A 
ATOM      8  C   UNL     1      27.162  23.099  29.204  0.00  0.00    +0.000 C 
ATOM      9  C   UNL     1      26.297  23.805  26.926  0.00  0.00    +0.000 A 
ATOM     10  C   UNL     1      25.351  24.778  27.168  0.00  0.00    +0.000 A 
ATOM     11  O   UNL     1      25.062  25.165  28.489  0.00  0.00    +0.000 OA
ENDROOT
BRANCH   3  12
ATOM     12  C   UNL     1      26.155  23.677  23.194  0.00  0.00    +0.000 C 
ATOM     13  O   UNL     1      25.404  22.884  22.600  0.00  0.00    +0.000 OA
BRANCH  12  14
ATOM     14  C   UNL     1      27.300  24.252  22.502  0.00  0.00    +0.000 A 
ATOM     15  C   UNL     1      28.556  23.742  22.318  0.00  0.00    +0.000 A 
ATOM     16  C   UNL     1      29.433  24.479  21.638  0.00  0.00    +0.000 A 
ATOM     17  C   UNL     1      29.021  25.691  21.169  0.00  0.00    +0.000 A 
ATOM     18  S   UNL     1      27.402  25.761  21.703  0.00  0.00    +0.000 S 
ENDBRANCH  12  14
ENDBRANCH   3  12
BRANCH   1  19
ATOM     19  C   UNL     1      23.663  26.428  26.436  0.00  0.00    +0.000 C 
BRANCH  19  21
ATOM     20  C   UNL     1      21.475  26.864  25.371  0.00  0.00    +0.000 C 
ATOM     21  C   UNL     1      22.732  26.507  25.264  0.00  0.00    +0.000 C 
ENDBRANCH  19  21
ENDBRANCH   1  19
TORSDOF 4
ENDMDL
MODEL 5
REMARK VINA RESULT:      -6.2     18.545     21.453
REMARK  Name = 
REMARK  4 active torsions:
REMARK  status: ('A' for Active; 'I' for Inactive)
REMARK    1  A    between atoms: C_2  and  C_3
REMARK    2  A    between atoms: C_3  and  C_4
REMARK    3  A    between atoms: C_6  and  C_7
REMARK    4  A    between atoms: C_7  and  C_9
REMARK                            x       y       z     vdW  Elec       q    Type
REMARK                         _______ _______ _______ _____ _____    ______ ____
ROOT
ATOM      1  C   UNL     1      30.172  23.146  24.791  0.00  0.00    +0.000 A 
ATOM      2  C   UNL     1      29.698  22.836  26.041  0.00  0.00    +0.000 A 
ATOM      3  C   UNL     1      28.330  22.788  26.310  0.00  0.00    +0.000 A 
ATOM      4  C   UNL     1      27.446  23.062  25.281  0.00  0.00    +0.000 A 
ATOM      5  O   UNL     1      26.113  23.082  25.282  0.00  0.00    +0.000 OA
ATOM      6  C   UNL     1      25.704  23.392  24.082  0.00  0.00    +0.000 A 
ATOM      7  C   UNL     1      26.786  23.588  23.247  0.00  0.00    +0.000 A 
ATOM      8  C   UNL     1      26.819  23.953  21.804  0.00  0.00    +0.000 C 
ATOM      9  C   UNL     1      27.908  23.375  24.020  0.00  0.00    +0.000 A 
ATOM     10  C   UNL     1      29.268  23.413  23.793  0.00  0.00    +0.000 A 
ATOM     11  O   UNL     1      29.758  23.730  22.513  0.00  0.00    +0.000 OA
ENDROOT
BRANCH   3  12
ATOM     12  C   UNL     1      27.882  22.457  27.642  0.00  0.00    +0.000 C 
ATOM     13  O   UNL     1      27.984  21.294  28.069  0.00  0.00    +0.000 OA
BRANCH  12  14
ATOM     14  C   UNL     1      27.309  23.495  28.488  0.00  0.00    +0.000 A 
ATOM     15  C   UNL     1      25.998  23.795  28.736  0.00  0.00    +0.000 A 
ATOM     16  C   UNL     1      25.738  24.808  29.562  0.00  0.00    +0.000 A 
ATOM     17  C   UNL     1      26.794  25.477  30.104  0.00  0.00    +0.000 A 
ATOM     18  S   UNL     1      28.132  24.659  29.434  0.00  0.00    +0.000 S 
ENDBRANCH  12  14
ENDBRANCH   3  12
BRANCH   1  19
ATOM     19  C   UNL     1      31.620  23.195  24.517  0.00  0.00    +0.000 C 
BRANCH  19  21
ATOM     20  C   UNL     1      33.389  24.867  24.950  0.00  0.00    +0.000 C 
ATOM     21  C   UNL     1      32.166  24.439  25.151  0.00  0.00    +0.000 C 
ENDBRANCH  19  21
ENDBRANCH   1  19
TORSDOF 4
ENDMDL
MODEL 6
REMARK VINA RESULT:      -6.0     32.359     34.612
REMARK  Name = 
REMARK  4 active torsions:
REMARK  status: ('A' for Active; 'I' for Inactive)
REMARK    1  A    between atoms: C_2  and  C_3
REMARK    2  A    between atoms: C_3  and  C_4
REMARK    3  A    between atoms: C_6  and  C_7
REMARK    4  A    between atoms: C_7  and  C_9
REMARK                            x       y       z     vdW  Elec       q    Type
REMARK                         _______ _______ _______ _____ _____    ______ ____
ROOT
ATOM      1  C   UNL     1      30.851  22.427  10.485  0.00  0.00    +0.000 A 
ATOM      2  C   UNL     1      30.816  22.394   9.114  0.00  0.00    +0.000 A 
ATOM      3  C   UNL     1      31.775  21.697   8.377  0.00  0.00    +0.000 A 
ATOM      4  C   UNL     1      32.777  21.032   9.063  0.00  0.00    +0.000 A 
ATOM      5  O   UNL     1      33.795  20.307   8.598  0.00  0.00    +0.000 OA
ATOM      6  C   UNL     1      34.487  19.869   9.613  0.00  0.00    +0.000 A 
ATOM      7  C   UNL     1      33.926  20.309  10.796  0.00  0.00    +0.000 A 
ATOM      8  C   UNL     1      34.359  20.067  12.201  0.00  0.00    +0.000 C 
ATOM      9  C   UNL     1      32.824  21.057  10.441  0.00  0.00    +0.000 A 
ATOM     10  C   UNL     1      31.858  21.756  11.133  0.00  0.00    +0.000 A 
ATOM     11  O   UNL     1      31.890  21.793  12.539  0.00  0.00    +0.000 OA
ENDROOT
BRANCH   3  12
ATOM     12  C   UNL     1      31.694  21.693   6.936  0.00  0.00    +0.000 C 
ATOM     13  O   UNL     1      32.406  22.457   6.263  0.00  0.00    +0.000 OA
BRANCH  12  14
ATOM     14  C   UNL     1      30.770  20.785   6.270  0.00  0.00    +0.000 A 
ATOM     15  C   UNL     1      30.371  19.526   6.628  0.00  0.00    +0.000 A 
ATOM     16  C   UNL     1      29.504  18.900   5.833  0.00  0.00    +0.000 A 
ATOM     17  C   UNL     1      29.071  19.554   4.719  0.00  0.00    +0.000 A 
ATOM     18  S   UNL     1      29.901  21.041   4.819  0.00  0.00    +0.000 S 
ENDBRANCH  12  14
ENDBRANCH   3  12
BRANCH   1  19
ATOM     19  C   UNL     1      29.833  23.166  11.254  0.00  0.00    +0.000 C 
BRANCH  19  21
ATOM     20  C   UNL     1      27.453  22.752  11.779  0.00  0.00    +0.000 C 
ATOM     21  C   UNL     1      28.604  22.312  11.331  0.00  0.00    +0.000 C 
ENDBRANCH  19  21
ENDBRANCH   1  19
TORSDOF 4
ENDMDL
MODEL 7
REMARK VINA RESULT:      -6.0     18.373     20.912
REMARK  Name = 
REMARK  4 active torsions:
REMARK  status: ('A' for Active; 'I' for Inactive)
REMARK    1  A    between atoms: C_2  and  C_3
REMARK    2  A    between atoms: C_3  and  C_4
REMARK    3  A    between atoms: C_6  and  C_7
REMARK    4  A    between atoms: C_7  and  C_9
REMARK                            x       y       z     vdW  Elec       q    Type
REMARK                         _______ _______ _______ _____ _____    ______ ____
ROOT
ATOM      1  C   UNL     1      26.885  23.226  28.249  0.00  0.00    +0.000 A 
ATOM      2  C   UNL     1      26.278  23.416  27.033  0.00  0.00    +0.000 A 
ATOM      3  C   UNL     1      26.975  23.243  25.836  0.00  0.00    +0.000 A 
ATOM      4  C   UNL     1      28.308  22.874  25.897  0.00  0.00    +0.000 A 
ATOM      5  O   UNL     1      29.178  22.651  24.912  0.00  0.00    +0.000 OA
ATOM      6  C   UNL     1      30.325  22.323  25.441  0.00  0.00    +0.000 A 
ATOM      7  C   UNL     1      30.230  22.326  26.819  0.00  0.00    +0.000 A 
ATOM      8  C   UNL     1      31.267  22.021  27.844  0.00  0.00    +0.000 C 
ATOM      9  C   UNL     1      28.930  22.680  27.111  0.00  0.00    +0.000 A 
ATOM     10  C   UNL     1      28.208  22.861  28.272  0.00  0.00    +0.000 A 
ATOM     11  O   UNL     1      28.826  22.667  29.521  0.00  0.00    +0.000 OA
ENDROOT
BRANCH   3  12
ATOM     12  C   UNL     1      26.290  23.455  24.583  0.00  0.00    +0.000 C 
ATOM     13  O   UNL     1      25.280  22.789  24.297  0.00  0.00    +0.000 OA
BRANCH  12  14
ATOM     14  C   UNL     1      26.789  24.456  23.650  0.00  0.00    +0.000 A 
ATOM     15  C   UNL     1      27.163  24.322  22.341  0.00  0.00    +0.000 A 
ATOM     16  C   UNL     1      27.590  25.410  21.702  0.00  0.00    +0.000 A 
ATOM     17  C   UNL     1      27.623  26.584  22.393  0.00  0.00    +0.000 A 
ATOM     18  S   UNL     1      27.051  26.123  23.932  0.00  0.00    +0.000 S 
ENDBRANCH  12  14
ENDBRANCH   3  12
BRANCH   1  19
ATOM     19  C   UNL     1      26.140  23.412  29.507  0.00  0.00    +0.000 C 
BRANCH  19  21
ATOM     20  C   UNL     1      25.382  25.495  30.603  0.00  0.00    +0.000 C 
ATOM     21  C   UNL     1      25.575  24.800  29.507  0.00  0.00    +0.000 C 
ENDBRANCH  19  21
ENDBRANCH   1  19
TORSDOF 4
ENDMDL
MODEL 8
REMARK VINA RESULT:      -5.8      2.865      5.206
REMARK  Name = 
REMARK  4 active torsions:
REMARK  status: ('A' for Active; 'I' for Inactive)
REMARK    1  A    between atoms: C_2  and  C_3
REMARK    2  A    between atoms: C_3  and  C_4
REMARK    3  A    between atoms: C_6  and  C_7
REMARK    4  A    between atoms: C_7  and  C_9
REMARK                            x       y       z     vdW  Elec       q    Type
REMARK                         _______ _______ _______ _____ _____    ______ ____
ROOT
ATOM      1  C   UNL     1      18.547   9.612  39.741  0.00  0.00    +0.000 A 
ATOM      2  C   UNL     1      17.834   9.573  38.569  0.00  0.00    +0.000 A 
ATOM      3  C   UNL     1      18.470   9.631  37.327  0.00  0.00    +0.000 A 
ATOM      4  C   UNL     1      19.851   9.732  37.299  0.00  0.00    +0.000 A 
ATOM      5  O   UNL     1      20.681   9.803  36.258  0.00  0.00    +0.000 OA
ATOM      6  C   UNL     1      21.902   9.887  36.709  0.00  0.00    +0.000 A 
ATOM      7  C   UNL     1      21.901   9.873  38.090  0.00  0.00    +0.000 A 
ATOM      8  C   UNL     1      23.043   9.947  39.043  0.00  0.00    +0.000 C 
ATOM      9  C   UNL     1      20.579   9.773  38.469  0.00  0.00    +0.000 A 
ATOM     10  C   UNL     1      19.914   9.713  39.676  0.00  0.00    +0.000 A 
ATOM     11  O   UNL     1      20.640   9.754  40.880  0.00  0.00    +0.000 OA
ENDROOT
BRANCH   3  12
ATOM     12  C   UNL     1      17.676   9.585  36.123  0.00  0.00    +0.000 C 
ATOM     13  O   UNL     1      17.749   8.609  35.358  0.00  0.00    +0.000 OA
BRANCH  12  14
ATOM     14  C   UNL     1      16.784  10.692  35.807  0.00  0.00    +0.000 A 
ATOM     15  C   UNL     1      16.386  11.744  36.585  0.00  0.00    +0.000 A 
ATOM     16  C   UNL     1      15.552  12.634  36.049  0.00  0.00    +0.000 A 
ATOM     17  C   UNL     1      15.151  12.437  34.761  0.00  0.00    +0.000 A 
ATOM     18  S   UNL     1      15.962  10.998  34.338  0.00  0.00    +0.000 S 
ENDBRANCH  12  14
ENDBRANCH   3  12
BRANCH   1  19
ATOM     19  C   UNL     1      17.865   9.551  41.047  0.00  0.00    +0.000 C 
BRANCH  19  21
ATOM     20  C   UNL     1      15.665   8.567  41.598  0.00  0.00    +0.000 C 
ATOM     21  C   UNL     1      16.411   9.286  40.795  0.00  0.00    +0.000 C 
ENDBRANCH  19  21
ENDBRANCH   1  19
TORSDOF 4
ENDMDL
MODEL 9
REMARK VINA RESULT:      -5.8     17.513     19.581
REMARK  Name = 
REMARK  4 active torsions:
REMARK  status: ('A' for Active; 'I' for Inactive)
REMARK    1  A    between atoms: C_2  and  C_3
REMARK    2  A    between atoms: C_3  and  C_4
REMARK    3  A    between atoms: C_6  and  C_7
REMARK    4  A    between atoms: C_7  and  C_9
REMARK                            x       y       z     vdW  Elec       q    Type
REMARK                         _______ _______ _______ _____ _____    ______ ____
ROOT
ATOM      1  C   UNL     1      30.253  22.853  29.930  0.00  0.00    +0.000 A 
ATOM      2  C   UNL     1      28.984  22.994  30.431  0.00  0.00    +0.000 A 
ATOM      3  C   UNL     1      27.864  22.971  29.598  0.00  0.00    +0.000 A 
ATOM      4  C   UNL     1      28.059  22.803  28.237  0.00  0.00    +0.000 A 
ATOM      5  O   UNL     1      27.168  22.748  27.247  0.00  0.00    +0.000 OA
ATOM      6  C   UNL     1      27.810  22.577  26.124  0.00  0.00    +0.000 A 
ATOM      7  C   UNL     1      29.170  22.516  26.358  0.00  0.00    +0.000 A 
ATOM      8  C   UNL     1      30.293  22.332  25.397  0.00  0.00    +0.000 C 
ATOM      9  C   UNL     1      29.329  22.660  27.720  0.00  0.00    +0.000 A 
ATOM     10  C   UNL     1      30.410  22.689  28.576  0.00  0.00    +0.000 A 
ATOM     11  O   UNL     1      31.714  22.545  28.066  0.00  0.00    +0.000 OA
ENDROOT
BRANCH   3  12
ATOM     12  C   UNL     1      26.550  23.123  30.175  0.00  0.00    +0.000 C 
ATOM     13  O   UNL     1      25.961  22.144  30.665  0.00  0.00    +0.000 OA
BRANCH  12  14
ATOM     14  C   UNL     1      25.914  24.433  30.182  0.00  0.00    +0.000 A 
ATOM     15  C   UNL     1      25.208  25.067  29.197  0.00  0.00    +0.000 A 
ATOM     16  C   UNL     1      24.723  26.279  29.462  0.00  0.00    +0.000 A 
ATOM     17  C   UNL     1      24.960  26.806  30.696  0.00  0.00    +0.000 A 
ATOM     18  S   UNL     1      25.865  25.576  31.455  0.00  0.00    +0.000 S 
ENDBRANCH  12  14
ENDBRANCH   3  12
BRANCH   1  19
ATOM     19  C   UNL     1      31.429  22.879  30.819  0.00  0.00    +0.000 C 
BRANCH  19  21
ATOM     20  C   UNL     1      32.821  20.923  31.407  0.00  0.00    +0.000 C 
ATOM     21  C   UNL     1      31.641  21.491  31.343  0.00  0.00    +0.000 C 
ENDBRANCH  19  21
ENDBRANCH   1  19
TORSDOF 4
ENDMDL
MODEL 10
REMARK VINA RESULT:      -5.7     22.649     24.146
REMARK  Name = 
REMARK  4 active torsions:
REMARK  status: ('A' for Active; 'I' for Inactive)
REMARK    1  A    between atoms: C_2  and  C_3
REMARK    2  A    between atoms: C_3  and  C_4
REMARK    3  A    between atoms: C_6  and  C_7
REMARK    4  A    between atoms: C_7  and  C_9
REMARK                            x       y       z     vdW  Elec       q    Type
REMARK                         _______ _______ _______ _____ _____    ______ ____
ROOT
ATOM      1  C   UNL     1      19.225  -7.722  26.346  0.00  0.00    +0.000 A 
ATOM      2  C   UNL     1      20.220  -7.415  25.452  0.00  0.00    +0.000 A 
ATOM      3  C   UNL     1      21.434  -8.104  25.447  0.00  0.00    +0.000 A 
ATOM      4  C   UNL     1      21.621  -9.116  26.374  0.00  0.00    +0.000 A 
ATOM      5  O   UNL     1      22.674  -9.909  26.572  0.00  0.00    +0.000 OA
ATOM      6  C   UNL     1      22.401 -10.718  27.559  0.00  0.00    +0.000 A 
ATOM      7  C   UNL     1      21.132 -10.466  28.043  0.00  0.00    +0.000 A 
ATOM      8  C   UNL     1      20.389 -11.127  29.152  0.00  0.00    +0.000 C 
ATOM      9  C   UNL     1      20.630  -9.434  27.278  0.00  0.00    +0.000 A 
ATOM     10  C   UNL     1      19.444  -8.731  27.251  0.00  0.00    +0.000 A 
ATOM     11  O   UNL     1      18.422  -9.042  28.166  0.00  0.00    +0.000 OA
ENDROOT
BRANCH   3  12
ATOM     12  C   UNL     1      22.448  -7.743  24.486  0.00  0.00    +0.000 C 
ATOM     13  O   UNL     1      23.439  -7.079  24.835  0.00  0.00    +0.000 OA
BRANCH  12  14
ATOM     14  C   UNL     1      22.306  -8.163  23.098  0.00  0.00    +0.000 A 
ATOM     15  C   UNL     1      22.890  -7.658  21.969  0.00  0.00    +0.000 A 
ATOM     16  C   UNL     1      22.588  -8.232  20.804  0.00  0.00    +0.000 A 
ATOM     17  C   UNL     1      21.721  -9.283  20.816  0.00  0.00    +0.000 A 
ATOM     18  S   UNL     1      21.349  -9.436  22.473  0.00  0.00    +0.000 S 
ENDBRANCH  12  14
ENDBRANCH   3  12
BRANCH   1  19
ATOM     19  C   UNL     1      17.947  -6.988  26.343  0.00  0.00    +0.000 C 
BRANCH  19  21
ATOM     20  C   UNL     1      18.846  -4.704  26.634  0.00  0.00    +0.000 C 
ATOM     21  C   UNL     1      18.148  -5.710  27.100  0.00  0.00    +0.000 C 
ENDBRANCH  19  21
ENDBRANCH   1  19
TORSDOF 4
ENDMDL
