MODEL 1
REMARK VINA RESULT:      -6.7      0.000      0.000
REMARK  Name = 
REMARK  3 active torsions:
REMARK  status: ('A' for Active; 'I' for Inactive)
REMARK    1  A    between atoms: C_2  and  C_12
REMARK    2  A    between atoms: N_3  and  N_4
REMARK    3  A    between atoms: N_4  and  C_5
REMARK                            x       y       z     vdW  Elec       q    Type
REMARK                         _______ _______ _______ _____ _____    ______ ____
ROOT
ATOM      1  O   UNL     1      16.686  10.509  36.937  0.00  0.00    +0.000 OA
ATOM      2  C   UNL     1      17.244  10.456  35.807  0.00  0.00    +0.000 C 
ATOM      3  N   UNL     1      18.589   9.966  35.816  0.00  0.00    +0.000 NA
ENDROOT
BRANCH   2   4
ATOM      4  C   UNL     1      16.587  10.864  34.563  0.00  0.00    +0.000 A 
ATOM      5  C   UNL     1      15.576  11.746  34.486  0.00  0.00    +0.000 A 
ATOM      6  C   UNL     1      14.925  12.148  33.331  0.00  0.00    +0.000 A 
ATOM      7  C   UNL     1      15.346  11.586  32.110  0.00  0.00    +0.000 A 
ATOM      8 CL   UNL     1      14.580  12.027  30.602  0.00  0.00    +0.000 Cl
ATOM      9  C   UNL     1      16.372  10.696  32.189  0.00  0.00    +0.000 A 
ATOM     10  C   UNL     1      17.021  10.295  33.342  0.00  0.00    +0.000 A 
ENDBRANCH   2   4
BRANCH   3  11
ATOM     11  N   UNL     1      19.218   9.569  37.020  0.00  0.00    +0.000 NA
BRANCH  11  12
ATOM     12  C   UNL     1      20.167  10.405  37.659  0.00  0.00    +0.000 C 
ATOM     13  C   UNL     1      21.444  10.434  37.383  0.00  0.00    +0.000 C 
ATOM     14  C   UNL     1      22.003   9.561  36.344  0.00  0.00    +0.000 C 
ATOM     15  C   UNL     1      23.447   9.288  36.592  0.00  0.00    +0.000 C 
ATOM     16  C   UNL     1      24.217  10.209  37.132  0.00  0.00    +0.000 C 
ATOM     17  C   UNL     1      23.649  11.529  37.493  0.00  0.00    +0.000 C 
ATOM     18  C   UNL     1      22.306  11.374  38.169  0.00  0.00    +0.000 C 
ENDBRANCH  11  12
ENDBRANCH   3  11
TORSDOF 3
ENDMDL
MODEL 2
REMARK VINA RESULT:      -6.7      3.969      7.842
REMARK  Name = 
REMARK  3 active torsions:
REMARK  status: ('A' for Active; 'I' for Inactive)
REMARK    1  A    between atoms: C_2  and  C_12
REMARK    2  A    between atoms: N_3  and  N_4
REMARK    3  A    between atoms: N_4  and  C_5
REMARK                            x       y       z     vdW  Elec       q    Type
REMARK                         _______ _______ _______ _____ _____    ______ ____
ROOT
ATOM      1  O   UNL     1      17.250   8.992  35.251  0.00  0.00    +0.000 OA
ATOM      2  C   UNL     1      17.234  10.044  35.946  0.00  0.00    +0.000 C 
ATOM      3  N   UNL     1      16.340  11.062  35.486  0.00  0.00    +0.000 NA
ENDROOT
BRANCH   2   4
ATOM      4  C   UNL     1      18.062  10.236  37.138  0.00  0.00    +0.000 A 
ATOM      5  C   UNL     1      18.348   9.274  38.034  0.00  0.00    +0.000 A 
ATOM      6  C   UNL     1      19.117   9.421  39.176  0.00  0.00    +0.000 A 
ATOM      7  C   UNL     1      19.659  10.693  39.445  0.00  0.00    +0.000 A 
ATOM      8 CL   UNL     1      20.638  10.975  40.865  0.00  0.00    +0.000 Cl
ATOM      9  C   UNL     1      19.373  11.664  38.536  0.00  0.00    +0.000 A 
ATOM     10  C   UNL     1      18.603  11.518  37.396  0.00  0.00    +0.000 A 
ENDBRANCH   2   4
BRANCH   3  11
ATOM     11  N   UNL     1      15.537  10.871  34.336  0.00  0.00    +0.000 NA
BRANCH  11  12
ATOM     12  C   UNL     1      16.004  11.240  33.050  0.00  0.00    +0.000 C 
ATOM     13  C   UNL     1      15.514  12.213  32.327  0.00  0.00    +0.000 C 
ATOM     14  C   UNL     1      14.396  13.023  32.826  0.00  0.00    +0.000 C 
ATOM     15  C   UNL     1      13.617  13.613  31.701  0.00  0.00    +0.000 C 
ATOM     16  C   UNL     1      14.220  13.975  30.588  0.00  0.00    +0.000 C 
ATOM     17  C   UNL     1      15.686  13.803  30.452  0.00  0.00    +0.000 C 
ATOM     18  C   UNL     1      16.124  12.456  30.981  0.00  0.00    +0.000 C 
ENDBRANCH  11  12
ENDBRANCH   3  11
TORSDOF 3
ENDMDL
MODEL 3
REMARK VINA RESULT:      -6.6      3.173      4.709
REMARK  Name = 
REMARK  3 active torsions:
REMARK  status: ('A' for Active; 'I' for Inactive)
REMARK    1  A    between atoms: C_2  and  C_12
REMARK    2  A    between atoms: N_3  and  N_4
REMARK    3  A    between atoms: N_4  and  C_5
REMARK                            x       y       z     vdW  Elec       q    Type
REMARK                         _______ _______ _______ _____ _____    ______ ____
ROOT
ATOM      1  O   UNL     1      16.753  11.615  37.469  0.00  0.00    +0.000 OA
ATOM      2  C   UNL     1      17.235  10.934  36.524  0.00  0.00    +0.000 C 
ATOM      3  N   UNL     1      18.322  10.077  36.886  0.00  0.00    +0.000 NA
ENDROOT
BRANCH   2   4
ATOM      4  C   UNL     1      16.741  11.001  35.147  0.00  0.00    +0.000 A 
ATOM      5  C   UNL     1      17.288  10.350  34.105  0.00  0.00    +0.000 A 
ATOM      6  C   UNL     1      16.854  10.397  32.791  0.00  0.00    +0.000 A 
ATOM      7  C   UNL     1      15.737  11.201  32.495  0.00  0.00    +0.000 A 
ATOM      8 CL   UNL     1      15.122  11.328  30.864  0.00  0.00    +0.000 Cl
ATOM      9  C   UNL     1      15.182  11.857  33.550  0.00  0.00    +0.000 A 
ATOM     10  C   UNL     1      15.616  11.811  34.863  0.00  0.00    +0.000 A 
ENDBRANCH   2   4
BRANCH   3  11
ATOM     11  N   UNL     1      18.794  10.012  38.218  0.00  0.00    +0.000 NA
BRANCH  11  12
ATOM     12  C   UNL     1      18.719   8.808  38.963  0.00  0.00    +0.000 C 
ATOM     13  C   UNL     1      17.816   8.545  39.870  0.00  0.00    +0.000 C 
ATOM     14  C   UNL     1      16.774   9.527  40.192  0.00  0.00    +0.000 C 
ATOM     15  C   UNL     1      16.267   9.337  41.581  0.00  0.00    +0.000 C 
ATOM     16  C   UNL     1      16.190   8.131  42.104  0.00  0.00    +0.000 C 
ATOM     17  C   UNL     1      16.604   6.951  41.308  0.00  0.00    +0.000 C 
ATOM     18  C   UNL     1      17.895   7.223  40.570  0.00  0.00    +0.000 C 
ENDBRANCH  11  12
ENDBRANCH   3  11
TORSDOF 3
ENDMDL
MODEL 4
REMARK VINA RESULT:      -6.6     17.975     20.988
REMARK  Name = 
REMARK  3 active torsions:
REMARK  status: ('A' for Active; 'I' for Inactive)
REMARK    1  A    between atoms: C_2  and  C_12
REMARK    2  A    between atoms: N_3  and  N_4
REMARK    3  A    between atoms: N_4  and  C_5
REMARK                            x       y       z     vdW  Elec       q    Type
REMARK                         _______ _______ _______ _____ _____    ______ ____
ROOT
ATOM      1  O   UNL     1      33.759  -3.004  35.123  0.00  0.00    +0.000 OA
ATOM      2  C   UNL     1      33.624  -2.480  33.984  0.00  0.00    +0.000 C 
ATOM      3  N   UNL     1      33.497  -3.407  32.901  0.00  0.00    +0.000 NA
ENDROOT
BRANCH   2   4
ATOM      4  C   UNL     1      33.600  -1.034  33.759  0.00  0.00    +0.000 A 
ATOM      5  C   UNL     1      34.254  -0.403  32.767  0.00  0.00    +0.000 A 
ATOM      6  C   UNL     1      34.263   0.962  32.530  0.00  0.00    +0.000 A 
ATOM      7  C   UNL     1      33.524   1.785  33.401  0.00  0.00    +0.000 A 
ATOM      8 CL   UNL     1      33.480   3.519  33.184  0.00  0.00    +0.000 Cl
ATOM      9  C   UNL     1      32.859   1.146  34.401  0.00  0.00    +0.000 A 
ATOM     10  C   UNL     1      32.852  -0.217  34.639  0.00  0.00    +0.000 A 
ENDBRANCH   2   4
BRANCH   3  11
ATOM     11  N   UNL     1      33.516  -4.805  33.124  0.00  0.00    +0.000 NA
BRANCH  11  12
ATOM     12  C   UNL     1      32.742  -5.683  32.325  0.00  0.00    +0.000 C 
ATOM     13  C   UNL     1      33.050  -6.056  31.111  0.00  0.00    +0.000 C 
ATOM     14  C   UNL     1      34.274  -5.565  30.466  0.00  0.00    +0.000 C 
ATOM     15  C   UNL     1      34.144  -5.580  28.982  0.00  0.00    +0.000 C 
ATOM     16  C   UNL     1      33.441  -6.519  28.383  0.00  0.00    +0.000 C 
ATOM     17  C   UNL     1      32.779  -7.574  29.187  0.00  0.00    +0.000 C 
ATOM     18  C   UNL     1      32.107  -6.983  30.406  0.00  0.00    +0.000 C 
ENDBRANCH  11  12
ENDBRANCH   3  11
TORSDOF 3
ENDMDL
MODEL 5
REMARK VINA RESULT:      -6.6      1.184      2.110
REMARK  Name = 
REMARK  3 active torsions:
REMARK  status: ('A' for Active; 'I' for Inactive)
REMARK    1  A    between atoms: C_2  and  C_12
REMARK    2  A    between atoms: N_3  and  N_4
REMARK    3  A    between atoms: N_4  and  C_5
REMARK                            x       y       z     vdW  Elec       q    Type
REMARK                         _______ _______ _______ _____ _____    ______ ____
ROOT
ATOM      1  O   UNL     1      16.601  10.682  36.799  0.00  0.00    +0.000 OA
ATOM      2  C   UNL     1      17.135  10.520  35.668  0.00  0.00    +0.000 C 
ATOM      3  N   UNL     1      18.436   9.924  35.690  0.00  0.00    +0.000 NA
ENDROOT
BRANCH   2   4
ATOM      4  C   UNL     1      16.493  10.907  34.410  0.00  0.00    +0.000 A 
ATOM      5  C   UNL     1      15.485  11.791  34.306  0.00  0.00    +0.000 A 
ATOM      6  C   UNL     1      14.847  12.173  33.137  0.00  0.00    +0.000 A 
ATOM      7  C   UNL     1      15.279  11.588  31.931  0.00  0.00    +0.000 A 
ATOM      8 CL   UNL     1      14.531  12.004  30.408  0.00  0.00    +0.000 Cl
ATOM      9  C   UNL     1      16.302  10.697  32.037  0.00  0.00    +0.000 A 
ATOM     10  C   UNL     1      16.938  10.314  33.204  0.00  0.00    +0.000 A 
ENDBRANCH   2   4
BRANCH   3  11
ATOM     11  N   UNL     1      19.051   9.547  36.908  0.00  0.00    +0.000 NA
BRANCH  11  12
ATOM     12  C   UNL     1      20.349  10.005  37.243  0.00  0.00    +0.000 C 
ATOM     13  C   UNL     1      20.611  11.130  37.855  0.00  0.00    +0.000 C 
ATOM     14  C   UNL     1      19.524  12.033  38.253  0.00  0.00    +0.000 C 
ATOM     15  C   UNL     1      20.004  13.440  38.350  0.00  0.00    +0.000 C 
ATOM     16  C   UNL     1      21.230  13.702  38.754  0.00  0.00    +0.000 C 
ATOM     17  C   UNL     1      22.140  12.591  39.122  0.00  0.00    +0.000 C 
ATOM     18  C   UNL     1      22.047  11.462  38.120  0.00  0.00    +0.000 C 
ENDBRANCH  11  12
ENDBRANCH   3  11
TORSDOF 3
ENDMDL
MODEL 6
REMARK VINA RESULT:      -6.2     16.368     18.522
REMARK  Name = 
REMARK  3 active torsions:
REMARK  status: ('A' for Active; 'I' for Inactive)
REMARK    1  A    between atoms: C_2  and  C_12
REMARK    2  A    between atoms: N_3  and  N_4
REMARK    3  A    between atoms: N_4  and  C_5
REMARK                            x       y       z     vdW  Elec       q    Type
REMARK                         _______ _______ _______ _____ _____    ______ ____
ROOT
ATOM      1  O   UNL     1      34.332   0.509  35.050  0.00  0.00    +0.000 OA
ATOM      2  C   UNL     1      33.860  -0.129  34.070  0.00  0.00    +0.000 C 
ATOM      3  N   UNL     1      33.864   0.578  32.826  0.00  0.00    +0.000 NA
ENDROOT
BRANCH   2   4
ATOM      4  C   UNL     1      33.336  -1.493  34.172  0.00  0.00    +0.000 A 
ATOM      5  C   UNL     1      33.728  -2.522  33.400  0.00  0.00    +0.000 A 
ATOM      6  C   UNL     1      33.248  -3.820  33.461  0.00  0.00    +0.000 A 
ATOM      7  C   UNL     1      32.252  -4.109  34.413  0.00  0.00    +0.000 A 
ATOM      8 CL   UNL     1      31.583  -5.717  34.560  0.00  0.00    +0.000 Cl
ATOM      9  C   UNL     1      31.860  -3.068  35.196  0.00  0.00    +0.000 A 
ATOM     10  C   UNL     1      32.337  -1.771  35.135  0.00  0.00    +0.000 A 
ENDBRANCH   2   4
BRANCH   3  11
ATOM     11  N   UNL     1      34.376   1.894  32.730  0.00  0.00    +0.000 NA
BRANCH  11  12
ATOM     12  C   UNL     1      33.529   3.020  32.882  0.00  0.00    +0.000 C 
ATOM     13  C   UNL     1      33.613   3.895  33.849  0.00  0.00    +0.000 C 
ATOM     14  C   UNL     1      34.638   3.759  34.891  0.00  0.00    +0.000 C 
ATOM     15  C   UNL     1      34.211   4.423  36.155  0.00  0.00    +0.000 C 
ATOM     16  C   UNL     1      33.479   5.517  36.120  0.00  0.00    +0.000 C 
ATOM     17  C   UNL     1      33.080   6.099  34.816  0.00  0.00    +0.000 C 
ATOM     18  C   UNL     1      32.624   5.020  33.859  0.00  0.00    +0.000 C 
ENDBRANCH  11  12
ENDBRANCH   3  11
TORSDOF 3
ENDMDL
MODEL 7
REMARK VINA RESULT:      -6.0     27.614     28.447
REMARK  Name = 
REMARK  3 active torsions:
REMARK  status: ('A' for Active; 'I' for Inactive)
REMARK    1  A    between atoms: C_2  and  C_12
REMARK    2  A    between atoms: N_3  and  N_4
REMARK    3  A    between atoms: N_4  and  C_5
REMARK                            x       y       z     vdW  Elec       q    Type
REMARK                         _______ _______ _______ _____ _____    ______ ____
ROOT
ATOM      1  O   UNL     1      35.626  20.490  11.130  0.00  0.00    +0.000 OA
ATOM      2  C   UNL     1      34.646  20.016  11.765  0.00  0.00    +0.000 C 
ATOM      3  N   UNL     1      34.973  18.990  12.708  0.00  0.00    +0.000 NA
ENDROOT
BRANCH   2   4
ATOM      4  C   UNL     1      33.265  20.462  11.570  0.00  0.00    +0.000 A 
ATOM      5  C   UNL     1      32.448  20.875  12.555  0.00  0.00    +0.000 A 
ATOM      6  C   UNL     1      31.136  21.294  12.409  0.00  0.00    +0.000 A 
ATOM      7  C   UNL     1      30.584  21.291  11.114  0.00  0.00    +0.000 A 
ATOM      8 CL   UNL     1      28.935  21.797  10.833  0.00  0.00    +0.000 Cl
ATOM      9  C   UNL     1      31.413  20.877  10.117  0.00  0.00    +0.000 A 
ATOM     10  C   UNL     1      32.723  20.458  10.262  0.00  0.00    +0.000 A 
ENDBRANCH   2   4
BRANCH   3  11
ATOM     11  N   UNL     1      36.309  18.564  12.897  0.00  0.00    +0.000 NA
BRANCH  11  12
ATOM     12  C   UNL     1      36.911  18.596  14.180  0.00  0.00    +0.000 C 
ATOM     13  C   UNL     1      36.766  17.677  15.097  0.00  0.00    +0.000 C 
ATOM     14  C   UNL     1      35.929  16.498  14.846  0.00  0.00    +0.000 C 
ATOM     15  C   UNL     1      35.405  15.930  16.120  0.00  0.00    +0.000 C 
ATOM     16  C   UNL     1      36.129  15.975  17.219  0.00  0.00    +0.000 C 
ATOM     17  C   UNL     1      37.478  16.589  17.191  0.00  0.00    +0.000 C 
ATOM     18  C   UNL     1      37.468  17.880  16.404  0.00  0.00    +0.000 C 
ENDBRANCH  11  12
ENDBRANCH   3  11
TORSDOF 3
ENDMDL
MODEL 8
REMARK VINA RESULT:      -6.0      5.035      7.929
REMARK  Name = 
REMARK  3 active torsions:
REMARK  status: ('A' for Active; 'I' for Inactive)
REMARK    1  A    between atoms: C_2  and  C_12
REMARK    2  A    between atoms: N_3  and  N_4
REMARK    3  A    between atoms: N_4  and  C_5
REMARK                            x       y       z     vdW  Elec       q    Type
REMARK                         _______ _______ _______ _____ _____    ______ ____
ROOT
ATOM      1  O   UNL     1      19.498   8.812  39.183  0.00  0.00    +0.000 OA
ATOM      2  C   UNL     1      18.292   9.079  39.434  0.00  0.00    +0.000 C 
ATOM      3  N   UNL     1      17.663   9.975  38.512  0.00  0.00    +0.000 NA
ENDROOT
BRANCH   2   4
ATOM      4  C   UNL     1      17.566   8.530  40.581  0.00  0.00    +0.000 A 
ATOM      5  C   UNL     1      17.496   7.223  40.888  0.00  0.00    +0.000 A 
ATOM      6  C   UNL     1      16.812   6.667  41.956  0.00  0.00    +0.000 A 
ATOM      7  C   UNL     1      16.113   7.538  42.814  0.00  0.00    +0.000 A 
ATOM      8 CL   UNL     1      15.217   6.928  44.185  0.00  0.00    +0.000 Cl
ATOM      9  C   UNL     1      16.188   8.861  42.506  0.00  0.00    +0.000 A 
ATOM     10  C   UNL     1      16.870   9.416  41.438  0.00  0.00    +0.000 A 
ENDBRANCH   2   4
BRANCH   3  11
ATOM     11  N   UNL     1      18.367  10.500  37.402  0.00  0.00    +0.000 NA
BRANCH  11  12
ATOM     12  C   UNL     1      18.085  10.061  36.084  0.00  0.00    +0.000 C 
ATOM     13  C   UNL     1      17.285  10.669  35.248  0.00  0.00    +0.000 C 
ATOM     14  C   UNL     1      16.594  11.903  35.641  0.00  0.00    +0.000 C 
ATOM     15  C   UNL     1      15.337  12.086  34.862  0.00  0.00    +0.000 C 
ATOM     16  C   UNL     1      15.263  11.685  33.610  0.00  0.00    +0.000 C 
ATOM     17  C   UNL     1      16.438  11.052  32.965  0.00  0.00    +0.000 C 
ATOM     18  C   UNL     1      17.094  10.056  33.895  0.00  0.00    +0.000 C 
ENDBRANCH  11  12
ENDBRANCH   3  11
TORSDOF 3
ENDMDL
MODEL 9
REMARK VINA RESULT:      -6.0     22.981     23.939
REMARK  Name = 
REMARK  3 active torsions:
REMARK  status: ('A' for Active; 'I' for Inactive)
REMARK    1  A    between atoms: C_2  and  C_12
REMARK    2  A    between atoms: N_3  and  N_4
REMARK    3  A    between atoms: N_4  and  C_5
REMARK                            x       y       z     vdW  Elec       q    Type
REMARK                         _______ _______ _______ _____ _____    ______ ____
ROOT
ATOM      1  O   UNL     1      27.511  25.307  21.328  0.00  0.00    +0.000 OA
ATOM      2  C   UNL     1      28.538  24.764  21.818  0.00  0.00    +0.000 C 
ATOM      3  N   UNL     1      29.724  24.882  21.026  0.00  0.00    +0.000 NA
ENDROOT
BRANCH   2   4
ATOM      4  C   UNL     1      28.542  24.056  23.100  0.00  0.00    +0.000 A 
ATOM      5  C   UNL     1      29.613  23.436  23.628  0.00  0.00    +0.000 A 
ATOM      6  C   UNL     1      29.652  22.749  24.830  0.00  0.00    +0.000 A 
ATOM      7  C   UNL     1      28.466  22.680  25.586  0.00  0.00    +0.000 A 
ATOM      8 CL   UNL     1      28.417  21.830  27.113  0.00  0.00    +0.000 Cl
ATOM      9  C   UNL     1      27.384  23.311  25.053  0.00  0.00    +0.000 A 
ATOM     10  C   UNL     1      27.345  23.996  23.852  0.00  0.00    +0.000 A 
ENDBRANCH   2   4
BRANCH   3  11
ATOM     11  N   UNL     1      29.716  25.571  19.790  0.00  0.00    +0.000 NA
BRANCH  11  12
ATOM     12  C   UNL     1      29.969  26.964  19.728  0.00  0.00    +0.000 C 
ATOM     13  C   UNL     1      30.199  27.635  18.630  0.00  0.00    +0.000 C 
ATOM     14  C   UNL     1      30.212  26.955  17.329  0.00  0.00    +0.000 C 
ATOM     15  C   UNL     1      31.055  27.691  16.346  0.00  0.00    +0.000 C 
ATOM     16  C   UNL     1      31.124  29.006  16.379  0.00  0.00    +0.000 C 
ATOM     17  C   UNL     1      30.354  29.762  17.395  0.00  0.00    +0.000 C 
ATOM     18  C   UNL     1      30.459  29.105  18.752  0.00  0.00    +0.000 C 
ENDBRANCH  11  12
ENDBRANCH   3  11
TORSDOF 3
ENDMDL
MODEL 10
REMARK VINA RESULT:      -5.8      4.097      5.062
REMARK  Name = 
REMARK  3 active torsions:
REMARK  status: ('A' for Active; 'I' for Inactive)
REMARK    1  A    between atoms: C_2  and  C_12
REMARK    2  A    between atoms: N_3  and  N_4
REMARK    3  A    between atoms: N_4  and  C_5
REMARK                            x       y       z     vdW  Elec       q    Type
REMARK                         _______ _______ _______ _____ _____    ______ ____
ROOT
ATOM      1  O   UNL     1      19.608  10.400  37.657  0.00  0.00    +0.000 OA
ATOM      2  C   UNL     1      18.482   9.952  37.310  0.00  0.00    +0.000 C 
ATOM      3  N   UNL     1      17.904   9.000  38.208  0.00  0.00    +0.000 NA
ENDROOT
BRANCH   2   4
ATOM      4  C   UNL     1      17.796  10.359  36.082  0.00  0.00    +0.000 A 
ATOM      5  C   UNL     1      18.026   9.831  34.866  0.00  0.00    +0.000 A 
ATOM      6  C   UNL     1      17.406  10.196  33.683  0.00  0.00    +0.000 A 
ATOM      7  C   UNL     1      16.439  11.219  33.736  0.00  0.00    +0.000 A 
ATOM      8 CL   UNL     1      15.608  11.752  32.295  0.00  0.00    +0.000 Cl
ATOM      9  C   UNL     1      16.204  11.750  34.967  0.00  0.00    +0.000 A 
ATOM     10  C   UNL     1      16.825  11.386  36.149  0.00  0.00    +0.000 A 
ENDBRANCH   2   4
BRANCH   3  11
ATOM     11  N   UNL     1      18.568   8.613  39.396  0.00  0.00    +0.000 NA
BRANCH  11  12
ATOM     12  C   UNL     1      17.930   7.789  40.356  0.00  0.00    +0.000 C 
ATOM     13  C   UNL     1      18.365   6.620  40.747  0.00  0.00    +0.000 C 
ATOM     14  C   UNL     1      19.603   6.061  40.189  0.00  0.00    +0.000 C 
ATOM     15  C   UNL     1      19.601   4.573  40.264  0.00  0.00    +0.000 C 
ATOM     16  C   UNL     1      19.020   3.956  41.272  0.00  0.00    +0.000 C 
ATOM     17  C   UNL     1      18.368   4.744  42.345  0.00  0.00    +0.000 C 
ATOM     18  C   UNL     1      17.554   5.878  41.763  0.00  0.00    +0.000 C 
ENDBRANCH  11  12
ENDBRANCH   3  11
TORSDOF 3
ENDMDL
