MODEL 1
REMARK VINA RESULT:      -8.3      0.000      0.000
REMARK  Name = 
REMARK  2 active torsions:
REMARK  status: ('A' for Active; 'I' for Inactive)
REMARK    1  A    between atoms: O_2  and  C_3
REMARK    2  A    between atoms: C_8  and  C_9
REMARK                            x       y       z     vdW  Elec       q    Type
REMARK                         _______ _______ _______ _____ _____    ______ ____
ROOT
ATOM      1  C   UNL     1      17.248  11.549  36.605  0.00  0.00    +0.000 C 
ATOM      2  N   UNL     1      17.188  10.262  35.636  0.00  0.00    +0.000 NA
ATOM      3  C   UNL     1      16.858  10.565  34.315  0.00  0.00    +0.000 C 
ATOM      4  O   UNL     1      17.444   9.957  33.392  0.00  0.00    +0.000 OA
ATOM      5  C   UNL     1      15.822  11.600  34.036  0.00  0.00    +0.000 A 
ATOM      6  C   UNL     1      15.279  12.169  35.138  0.00  0.00    +0.000 A 
ATOM      7  S   UNL     1      14.153  13.274  34.481  0.00  0.00    +0.000 S 
ATOM      8  C   UNL     1      14.403  12.982  32.819  0.00  0.00    +0.000 A 
ATOM      9  C   UNL     1      15.378  12.011  32.832  0.00  0.00    +0.000 A 
ATOM     10  C   UNL     1      15.773  11.583  31.419  0.00  0.00    +0.000 C 
ATOM     11  C   UNL     1      16.158  12.884  30.727  0.00  0.00    +0.000 C 
ATOM     12  C   UNL     1      14.949  13.744  30.520  0.00  0.00    +0.000 C 
ATOM     13  C   UNL     1      13.850  13.498  31.511  0.00  0.00    +0.000 C 
ATOM     14  N   UNL     1      15.672  11.801  36.449  0.00  0.00    +0.000 NA
ENDROOT
BRANCH   1  20
ATOM     15  C   UNL     1      18.107  10.269  38.676  0.00  0.00    +0.000 A 
ATOM     16  C   UNL     1      17.873   9.610  39.881  0.00  0.00    +0.000 A 
ATOM     17  C   UNL     1      16.609   9.489  40.356  0.00  0.00    +0.000 A 
ATOM     18  C   UNL     1      15.552  10.014  39.652  0.00  0.00    +0.000 A 
ATOM     19  C   UNL     1      15.774  10.678  38.439  0.00  0.00    +0.000 A 
ATOM     20  C   UNL     1      17.080  10.763  38.019  0.00  0.00    +0.000 A 
BRANCH  15  22
ATOM     21  C   UNL     1      20.506   9.712  38.514  0.00  0.00    +0.000 C 
ATOM     22  O   UNL     1      19.361  10.434  38.128  0.00  0.00    +0.000 OA
ENDBRANCH  15  22
ENDBRANCH   1  20
TORSDOF 2
ENDMDL
MODEL 2
REMARK VINA RESULT:      -7.8      2.089      7.022
REMARK  Name = 
REMARK  2 active torsions:
REMARK  status: ('A' for Active; 'I' for Inactive)
REMARK    1  A    between atoms: O_2  and  C_3
REMARK    2  A    between atoms: C_8  and  C_9
REMARK                            x       y       z     vdW  Elec       q    Type
REMARK                         _______ _______ _______ _____ _____    ______ ____
ROOT
ATOM      1  C   UNL     1      15.161  11.636  34.605  0.00  0.00    +0.000 C 
ATOM      2  N   UNL     1      16.201  10.528  34.067  0.00  0.00    +0.000 NA
ATOM      3  C   UNL     1      17.013   9.987  35.064  0.00  0.00    +0.000 C 
ATOM      4  O   UNL     1      17.272   8.763  35.032  0.00  0.00    +0.000 OA
ATOM      5  C   UNL     1      17.549  10.872  36.136  0.00  0.00    +0.000 A 
ATOM      6  C   UNL     1      17.181  12.171  36.035  0.00  0.00    +0.000 A 
ATOM      7  S   UNL     1      17.953  12.891  37.378  0.00  0.00    +0.000 S 
ATOM      8  C   UNL     1      18.725  11.520  38.034  0.00  0.00    +0.000 A 
ATOM      9  C   UNL     1      18.346  10.523  37.165  0.00  0.00    +0.000 A 
ATOM     10  C   UNL     1      18.932   9.169  37.563  0.00  0.00    +0.000 C 
ATOM     11  C   UNL     1      18.488   8.977  39.007  0.00  0.00    +0.000 C 
ATOM     12  C   UNL     1      19.188   9.951  39.903  0.00  0.00    +0.000 C 
ATOM     13  C   UNL     1      19.617  11.212  39.214  0.00  0.00    +0.000 C 
ATOM     14  N   UNL     1      16.351  12.641  34.986  0.00  0.00    +0.000 NA
ENDROOT
BRANCH   1  20
ATOM     15  C   UNL     1      14.128  13.451  33.085  0.00  0.00    +0.000 A 
ATOM     16  C   UNL     1      13.931  14.015  31.827  0.00  0.00    +0.000 A 
ATOM     17  C   UNL     1      14.497  13.450  30.733  0.00  0.00    +0.000 A 
ATOM     18  C   UNL     1      15.268  12.320  30.858  0.00  0.00    +0.000 A 
ATOM     19  C   UNL     1      15.475  11.743  32.117  0.00  0.00    +0.000 A 
ATOM     20  C   UNL     1      14.870  12.369  33.181  0.00  0.00    +0.000 A 
BRANCH  15  22
ATOM     21  C   UNL     1      12.924  15.203  34.340  0.00  0.00    +0.000 C 
ATOM     22  O   UNL     1      13.587  13.965  34.245  0.00  0.00    +0.000 OA
ENDBRANCH  15  22
ENDBRANCH   1  20
TORSDOF 2
ENDMDL
MODEL 3
REMARK VINA RESULT:      -7.1      2.585      7.579
REMARK  Name = 
REMARK  2 active torsions:
REMARK  status: ('A' for Active; 'I' for Inactive)
REMARK    1  A    between atoms: O_2  and  C_3
REMARK    2  A    between atoms: C_8  and  C_9
REMARK                            x       y       z     vdW  Elec       q    Type
REMARK                         _______ _______ _______ _____ _____    ______ ____
ROOT
ATOM      1  C   UNL     1      16.438  11.817  36.594  0.00  0.00    +0.000 C 
ATOM      2  N   UNL     1      15.111  11.073  37.127  0.00  0.00    +0.000 NA
ATOM      3  C   UNL     1      15.214  10.606  38.437  0.00  0.00    +0.000 C 
ATOM      4  O   UNL     1      14.223  10.709  39.194  0.00  0.00    +0.000 OA
ATOM      5  C   UNL     1      16.494  10.001  38.904  0.00  0.00    +0.000 A 
ATOM      6  C   UNL     1      17.474   9.961  37.970  0.00  0.00    +0.000 A 
ATOM      7  S   UNL     1      18.766   9.220  38.807  0.00  0.00    +0.000 S 
ATOM      8  C   UNL     1      18.025   8.980  40.324  0.00  0.00    +0.000 A 
ATOM      9  C   UNL     1      16.766   9.498  40.123  0.00  0.00    +0.000 A 
ATOM     10  C   UNL     1      15.901   9.391  41.378  0.00  0.00    +0.000 C 
ATOM     11  C   UNL     1      16.723  10.078  42.461  0.00  0.00    +0.000 C 
ATOM     12  C   UNL     1      17.938   9.266  42.789  0.00  0.00    +0.000 C 
ATOM     13  C   UNL     1      18.411   8.396  41.662  0.00  0.00    +0.000 C 
ATOM     14  N   UNL     1      17.285  10.458  36.656  0.00  0.00    +0.000 NA
ENDROOT
BRANCH   1  20
ATOM     15  C   UNL     1      15.207  12.372  34.393  0.00  0.00    +0.000 A 
ATOM     16  C   UNL     1      15.021  12.187  33.025  0.00  0.00    +0.000 A 
ATOM     17  C   UNL     1      15.794  11.303  32.347  0.00  0.00    +0.000 A 
ATOM     18  C   UNL     1      16.763  10.585  33.004  0.00  0.00    +0.000 A 
ATOM     19  C   UNL     1      16.961  10.762  34.379  0.00  0.00    +0.000 A 
ATOM     20  C   UNL     1      16.142  11.673  35.001  0.00  0.00    +0.000 A 
BRANCH  15  22
ATOM     21  C   UNL     1      13.534  14.170  34.632  0.00  0.00    +0.000 C 
ATOM     22  O   UNL     1      14.464  13.251  35.152  0.00  0.00    +0.000 OA
ENDBRANCH  15  22
ENDBRANCH   1  20
TORSDOF 2
ENDMDL
MODEL 4
REMARK VINA RESULT:      -6.4      5.605      7.981
REMARK  Name = 
REMARK  2 active torsions:
REMARK  status: ('A' for Active; 'I' for Inactive)
REMARK    1  A    between atoms: O_2  and  C_3
REMARK    2  A    between atoms: C_8  and  C_9
REMARK                            x       y       z     vdW  Elec       q    Type
REMARK                         _______ _______ _______ _____ _____    ______ ____
ROOT
ATOM      1  C   UNL     1      21.565  10.790  39.009  0.00  0.00    +0.000 C 
ATOM      2  N   UNL     1      20.342  11.026  37.984  0.00  0.00    +0.000 NA
ATOM      3  C   UNL     1      19.096  10.682  38.505  0.00  0.00    +0.000 C 
ATOM      4  O   UNL     1      18.111  11.409  38.244  0.00  0.00    +0.000 OA
ATOM      5  C   UNL     1      18.965   9.466  39.356  0.00  0.00    +0.000 A 
ATOM      6  C   UNL     1      20.119   8.783  39.549  0.00  0.00    +0.000 A 
ATOM      7  S   UNL     1      19.628   7.475  40.533  0.00  0.00    +0.000 S 
ATOM      8  C   UNL     1      17.966   7.832  40.674  0.00  0.00    +0.000 A 
ATOM      9  C   UNL     1      17.846   8.985  39.932  0.00  0.00    +0.000 A 
ATOM     10  C   UNL     1      16.409   9.503  39.916  0.00  0.00    +0.000 C 
ATOM     11  C   UNL     1      16.040   9.634  41.388  0.00  0.00    +0.000 C 
ATOM     12  C   UNL     1      15.929   8.282  42.021  0.00  0.00    +0.000 C 
ATOM     13  C   UNL     1      16.760   7.226  41.353  0.00  0.00    +0.000 C 
ATOM     14  N   UNL     1      21.348   9.202  38.979  0.00  0.00    +0.000 NA
ENDROOT
BRANCH   1  20
ATOM     15  C   UNL     1      23.701  11.664  37.850  0.00  0.00    +0.000 A 
ATOM     16  C   UNL     1      24.690  11.546  36.877  0.00  0.00    +0.000 A 
ATOM     17  C   UNL     1      24.676  10.499  36.016  0.00  0.00    +0.000 A 
ATOM     18  C   UNL     1      23.686   9.550  36.097  0.00  0.00    +0.000 A 
ATOM     19  C   UNL     1      22.685   9.657  37.070  0.00  0.00    +0.000 A 
ATOM     20  C   UNL     1      22.763  10.743  37.909  0.00  0.00    +0.000 A 
BRANCH  15  22
ATOM     21  C   UNL     1      23.733  14.062  38.431  0.00  0.00    +0.000 C 
ATOM     22  O   UNL     1      23.646  12.697  38.761  0.00  0.00    +0.000 OA
ENDBRANCH  15  22
ENDBRANCH   1  20
TORSDOF 2
ENDMDL
MODEL 5
REMARK VINA RESULT:      -6.4      5.724      7.307
REMARK  Name = 
REMARK  2 active torsions:
REMARK  status: ('A' for Active; 'I' for Inactive)
REMARK    1  A    between atoms: O_2  and  C_3
REMARK    2  A    between atoms: C_8  and  C_9
REMARK                            x       y       z     vdW  Elec       q    Type
REMARK                         _______ _______ _______ _____ _____    ______ ____
ROOT
ATOM      1  C   UNL     1      19.030   7.922  39.436  0.00  0.00    +0.000 C 
ATOM      2  N   UNL     1      18.717   9.070  38.348  0.00  0.00    +0.000 NA
ATOM      3  C   UNL     1      19.843   9.506  37.650  0.00  0.00    +0.000 C 
ATOM      4  O   UNL     1      19.737   9.749  36.427  0.00  0.00    +0.000 OA
ATOM      5  C   UNL     1      21.137   9.672  38.370  0.00  0.00    +0.000 A 
ATOM      6  C   UNL     1      21.093   9.369  39.690  0.00  0.00    +0.000 A 
ATOM      7  S   UNL     1      22.695   9.668  40.203  0.00  0.00    +0.000 S 
ATOM      8  C   UNL     1      23.380  10.170  38.724  0.00  0.00    +0.000 A 
ATOM      9  C   UNL     1      22.312  10.086  37.860  0.00  0.00    +0.000 A 
ATOM     10  C   UNL     1      22.698  10.497  36.439  0.00  0.00    +0.000 C 
ATOM     11  C   UNL     1      23.884   9.604  36.098  0.00  0.00    +0.000 C 
ATOM     12  C   UNL     1      25.077   9.982  36.921  0.00  0.00    +0.000 C 
ATOM     13  C   UNL     1      24.733  10.626  38.232  0.00  0.00    +0.000 C 
ATOM     14  N   UNL     1      19.902   8.932  40.325  0.00  0.00    +0.000 NA
ENDROOT
BRANCH   1  20
ATOM     15  C   UNL     1      17.177   7.138  41.054  0.00  0.00    +0.000 A 
ATOM     16  C   UNL     1      16.035   7.393  41.809  0.00  0.00    +0.000 A 
ATOM     17  C   UNL     1      15.481   8.631  41.807  0.00  0.00    +0.000 A 
ATOM     18  C   UNL     1      16.043   9.639  41.061  0.00  0.00    +0.000 A 
ATOM     19  C   UNL     1      17.191   9.395  40.298  0.00  0.00    +0.000 A 
ATOM     20  C   UNL     1      17.698   8.119  40.348  0.00  0.00    +0.000 A 
BRANCH  15  22
ATOM     21  C   UNL     1      17.973   5.053  42.108  0.00  0.00    +0.000 C 
ATOM     22  O   UNL     1      17.799   5.908  41.005  0.00  0.00    +0.000 OA
ENDBRANCH  15  22
ENDBRANCH   1  20
TORSDOF 2
ENDMDL
MODEL 6
REMARK VINA RESULT:      -6.4     22.029     23.428
REMARK  Name = 
REMARK  2 active torsions:
REMARK  status: ('A' for Active; 'I' for Inactive)
REMARK    1  A    between atoms: O_2  and  C_3
REMARK    2  A    between atoms: C_8  and  C_9
REMARK                            x       y       z     vdW  Elec       q    Type
REMARK                         _______ _______ _______ _____ _____    ______ ____
ROOT
ATOM      1  C   UNL     1      21.335  -8.270  25.580  0.00  0.00    +0.000 C 
ATOM      2  N   UNL     1      20.829  -8.435  24.058  0.00  0.00    +0.000 NA
ATOM      3  C   UNL     1      21.835  -8.812  23.169  0.00  0.00    +0.000 C 
ATOM      4  O   UNL     1      21.565  -9.639  22.269  0.00  0.00    +0.000 OA
ATOM      5  C   UNL     1      23.198  -8.227  23.309  0.00  0.00    +0.000 A 
ATOM      6  C   UNL     1      23.335  -7.349  24.331  0.00  0.00    +0.000 A 
ATOM      7  S   UNL     1      24.971  -6.872  24.207  0.00  0.00    +0.000 S 
ATOM      8  C   UNL     1      25.439  -7.804  22.858  0.00  0.00    +0.000 A 
ATOM      9  C   UNL     1      24.278  -8.472  22.542  0.00  0.00    +0.000 A 
ATOM     10  C   UNL     1      24.461  -9.390  21.334  0.00  0.00    +0.000 C 
ATOM     11  C   UNL     1      25.640 -10.278  21.713  0.00  0.00    +0.000 C 
ATOM     12  C   UNL     1      26.905  -9.478  21.754  0.00  0.00    +0.000 C 
ATOM     13  C   UNL     1      26.695  -8.022  22.047  0.00  0.00    +0.000 C 
ATOM     14  N   UNL     1      22.257  -7.018  25.191  0.00  0.00    +0.000 NA
ENDROOT
BRANCH   1  20
ATOM     15  C   UNL     1      19.122  -7.805  26.828  0.00  0.00    +0.000 A 
ATOM     16  C   UNL     1      18.122  -6.930  27.243  0.00  0.00    +0.000 A 
ATOM     17  C   UNL     1      18.185  -5.617  26.909  0.00  0.00    +0.000 A 
ATOM     18  C   UNL     1      19.235  -5.144  26.160  0.00  0.00    +0.000 A 
ATOM     19  C   UNL     1      20.247  -6.014  25.736  0.00  0.00    +0.000 A 
ATOM     20  C   UNL     1      20.118  -7.330  26.112  0.00  0.00    +0.000 A 
BRANCH  15  22
ATOM     21  C   UNL     1      19.331  -9.685  28.413  0.00  0.00    +0.000 C 
ATOM     22  O   UNL     1      19.130  -9.151  27.127  0.00  0.00    +0.000 OA
ENDBRANCH  15  22
ENDBRANCH   1  20
TORSDOF 2
ENDMDL
MODEL 7
REMARK VINA RESULT:      -6.4      2.623      7.273
REMARK  Name = 
REMARK  2 active torsions:
REMARK  status: ('A' for Active; 'I' for Inactive)
REMARK    1  A    between atoms: O_2  and  C_3
REMARK    2  A    between atoms: C_8  and  C_9
REMARK                            x       y       z     vdW  Elec       q    Type
REMARK                         _______ _______ _______ _____ _____    ______ ____
ROOT
ATOM      1  C   UNL     1      16.424  11.642  36.832  0.00  0.00    +0.000 C 
ATOM      2  N   UNL     1      17.254  10.272  36.660  0.00  0.00    +0.000 NA
ATOM      3  C   UNL     1      18.202  10.057  37.660  0.00  0.00    +0.000 C 
ATOM      4  O   UNL     1      18.358   8.898  38.105  0.00  0.00    +0.000 OA
ATOM      5  C   UNL     1      19.001  11.206  38.174  0.00  0.00    +0.000 A 
ATOM      6  C   UNL     1      18.717  12.397  37.595  0.00  0.00    +0.000 A 
ATOM      7  S   UNL     1      19.787  13.469  38.386  0.00  0.00    +0.000 S 
ATOM      8  C   UNL     1      20.568  12.373  39.433  0.00  0.00    +0.000 A 
ATOM      9  C   UNL     1      19.955  11.180  39.125  0.00  0.00    +0.000 A 
ATOM     10  C   UNL     1      20.505  10.026  39.961  0.00  0.00    +0.000 C 
ATOM     11  C   UNL     1      20.338  10.491  41.401  0.00  0.00    +0.000 C 
ATOM     12  C   UNL     1      21.269  11.627  41.696  0.00  0.00    +0.000 C 
ATOM     13  C   UNL     1      21.648  12.431  40.488  0.00  0.00    +0.000 C 
ATOM     14  N   UNL     1      17.737  12.528  36.580  0.00  0.00    +0.000 NA
ENDROOT
BRANCH   1  20
ATOM     15  C   UNL     1      14.846  12.475  34.965  0.00  0.00    +0.000 A 
ATOM     16  C   UNL     1      14.483  12.544  33.622  0.00  0.00    +0.000 A 
ATOM     17  C   UNL     1      15.226  11.908  32.683  0.00  0.00    +0.000 A 
ATOM     18  C   UNL     1      16.339  11.192  33.050  0.00  0.00    +0.000 A 
ATOM     19  C   UNL     1      16.715  11.114  34.396  0.00  0.00    +0.000 A 
ATOM     20  C   UNL     1      15.917  11.783  35.293  0.00  0.00    +0.000 A 
BRANCH  15  22
ATOM     21  C   UNL     1      12.921  12.636  36.501  0.00  0.00    +0.000 C 
ATOM     22  O   UNL     1      14.145  13.094  35.978  0.00  0.00    +0.000 OA
ENDBRANCH  15  22
ENDBRANCH   1  20
TORSDOF 2
ENDMDL
MODEL 8
REMARK VINA RESULT:      -6.3     18.513     19.958
REMARK  Name = 
REMARK  2 active torsions:
REMARK  status: ('A' for Active; 'I' for Inactive)
REMARK    1  A    between atoms: O_2  and  C_3
REMARK    2  A    between atoms: C_8  and  C_9
REMARK                            x       y       z     vdW  Elec       q    Type
REMARK                         _______ _______ _______ _____ _____    ______ ____
ROOT
ATOM      1  C   UNL     1      30.466  23.739  27.580  0.00  0.00    +0.000 C 
ATOM      2  N   UNL     1      31.265  22.987  26.399  0.00  0.00    +0.000 NA
ATOM      3  C   UNL     1      30.698  23.158  25.137  0.00  0.00    +0.000 C 
ATOM      4  O   UNL     1      31.454  23.322  24.153  0.00  0.00    +0.000 OA
ATOM      5  C   UNL     1      29.215  23.142  24.989  0.00  0.00    +0.000 A 
ATOM      6  C   UNL     1      28.533  22.955  26.144  0.00  0.00    +0.000 A 
ATOM      7  S   UNL     1      26.903  22.979  25.632  0.00  0.00    +0.000 S 
ATOM      8  C   UNL     1      27.132  23.226  23.961  0.00  0.00    +0.000 A 
ATOM      9  C   UNL     1      28.503  23.284  23.855  0.00  0.00    +0.000 A 
ATOM     10  C   UNL     1      28.952  23.507  22.411  0.00  0.00    +0.000 C 
ATOM     11  C   UNL     1      28.212  24.766  21.977  0.00  0.00    +0.000 C 
ATOM     12  C   UNL     1      26.744  24.495  21.861  0.00  0.00    +0.000 C 
ATOM     13  C   UNL     1      26.260  23.377  22.736  0.00  0.00    +0.000 C 
ATOM     14  N   UNL     1      29.190  22.787  27.389  0.00  0.00    +0.000 NA
ENDROOT
BRANCH   1  20
ATOM     15  C   UNL     1      30.638  23.046  30.062  0.00  0.00    +0.000 A 
ATOM     16  C   UNL     1      31.189  22.257  31.068  0.00  0.00    +0.000 A 
ATOM     17  C   UNL     1      32.130  21.329  30.765  0.00  0.00    +0.000 A 
ATOM     18  C   UNL     1      32.544  21.162  29.465  0.00  0.00    +0.000 A 
ATOM     19  C   UNL     1      31.997  21.949  28.445  0.00  0.00    +0.000 A 
ATOM     20  C   UNL     1      31.049  22.869  28.825  0.00  0.00    +0.000 A 
BRANCH  15  22
ATOM     21  C   UNL     1      28.437  23.774  30.909  0.00  0.00    +0.000 C 
ATOM     22  O   UNL     1      29.677  24.010  30.288  0.00  0.00    +0.000 OA
ENDBRANCH  15  22
ENDBRANCH   1  20
TORSDOF 2
ENDMDL
MODEL 9
REMARK VINA RESULT:      -6.3     10.370     12.490
REMARK  Name = 
REMARK  2 active torsions:
REMARK  status: ('A' for Active; 'I' for Inactive)
REMARK    1  A    between atoms: O_2  and  C_3
REMARK    2  A    between atoms: C_8  and  C_9
REMARK                            x       y       z     vdW  Elec       q    Type
REMARK                         _______ _______ _______ _____ _____    ______ ____
ROOT
ATOM      1  C   UNL     1      19.232  21.214  35.591  0.00  0.00    +0.000 C 
ATOM      2  N   UNL     1      20.077  22.492  36.095  0.00  0.00    +0.000 NA
ATOM      3  C   UNL     1      21.251  22.161  36.770  0.00  0.00    +0.000 C 
ATOM      4  O   UNL     1      22.278  22.847  36.568  0.00  0.00    +0.000 OA
ATOM      5  C   UNL     1      21.257  21.005  37.711  0.00  0.00    +0.000 A 
ATOM      6  C   UNL     1      20.071  20.360  37.823  0.00  0.00    +0.000 A 
ATOM      7  S   UNL     1      20.413  19.127  38.955  0.00  0.00    +0.000 S 
ATOM      8  C   UNL     1      22.058  19.464  39.256  0.00  0.00    +0.000 A 
ATOM      9  C   UNL     1      22.291  20.551  38.445  0.00  0.00    +0.000 A 
ATOM     10  C   UNL     1      23.735  21.038  38.551  0.00  0.00    +0.000 C 
ATOM     11  C   UNL     1      24.572  19.804  38.241  0.00  0.00    +0.000 C 
ATOM     12  C   UNL     1      24.449  18.799  39.345  0.00  0.00    +0.000 C 
ATOM     13  C   UNL     1      23.163  18.892  40.112  0.00  0.00    +0.000 C 
ATOM     14  N   UNL     1      18.921  20.765  37.099  0.00  0.00    +0.000 NA
ENDROOT
BRANCH   1  20
ATOM     15  C   UNL     1      17.199  22.071  34.249  0.00  0.00    +0.000 A 
ATOM     16  C   UNL     1      15.971  22.724  34.189  0.00  0.00    +0.000 A 
ATOM     17  C   UNL     1      15.413  23.230  35.316  0.00  0.00    +0.000 A 
ATOM     18  C   UNL     1      16.056  23.101  36.524  0.00  0.00    +0.000 A 
ATOM     19  C   UNL     1      17.292  22.447  36.598  0.00  0.00    +0.000 A 
ATOM     20  C   UNL     1      17.797  21.960  35.416  0.00  0.00    +0.000 A 
BRANCH  15  22
ATOM     21  C   UNL     1      17.568  20.251  32.623  0.00  0.00    +0.000 C 
ATOM     22  O   UNL     1      17.830  21.529  33.149  0.00  0.00    +0.000 OA
ENDBRANCH  15  22
ENDBRANCH   1  20
TORSDOF 2
ENDMDL
MODEL 10
REMARK VINA RESULT:      -6.2     17.603     19.081
REMARK  Name = 
REMARK  2 active torsions:
REMARK  status: ('A' for Active; 'I' for Inactive)
REMARK    1  A    between atoms: O_2  and  C_3
REMARK    2  A    between atoms: C_8  and  C_9
REMARK                            x       y       z     vdW  Elec       q    Type
REMARK                         _______ _______ _______ _____ _____    ______ ____
ROOT
ATOM      1  C   UNL     1      25.395  25.945  27.909  0.00  0.00    +0.000 C 
ATOM      2  N   UNL     1      25.453  24.444  28.493  0.00  0.00    +0.000 NA
ATOM      3  C   UNL     1      26.554  23.709  28.052  0.00  0.00    +0.000 C 
ATOM      4  O   UNL     1      27.137  22.953  28.860  0.00  0.00    +0.000 OA
ATOM      5  C   UNL     1      27.007  23.842  26.639  0.00  0.00    +0.000 A 
ATOM      6  C   UNL     1      26.276  24.700  25.888  0.00  0.00    +0.000 A 
ATOM      7  S   UNL     1      27.037  24.612  24.360  0.00  0.00    +0.000 S 
ATOM      8  C   UNL     1      28.267  23.486  24.718  0.00  0.00    +0.000 A 
ATOM      9  C   UNL     1      28.038  23.210  26.046  0.00  0.00    +0.000 A 
ATOM     10  C   UNL     1      29.045  22.200  26.597  0.00  0.00    +0.000 C 
ATOM     11  C   UNL     1      30.403  22.814  26.284  0.00  0.00    +0.000 C 
ATOM     12  C   UNL     1      30.653  22.804  24.807  0.00  0.00    +0.000 C 
ATOM     13  C   UNL     1      29.403  22.819  23.978  0.00  0.00    +0.000 C 
ATOM     14  N   UNL     1      25.167  25.408  26.415  0.00  0.00    +0.000 NA
ENDROOT
BRANCH   1  20
ATOM     15  C   UNL     1      23.341  26.652  29.305  0.00  0.00    +0.000 A 
ATOM     16  C   UNL     1      21.969  26.855  29.432  0.00  0.00    +0.000 A 
ATOM     17  C   UNL     1      21.145  26.602  28.386  0.00  0.00    +0.000 A 
ATOM     18  C   UNL     1      21.658  26.144  27.196  0.00  0.00    +0.000 A 
ATOM     19  C   UNL     1      23.035  25.936  27.056  0.00  0.00    +0.000 A 
ATOM     20  C   UNL     1      23.810  26.213  28.157  0.00  0.00    +0.000 A 
BRANCH  15  22
ATOM     21  C   UNL     1      24.190  26.289  31.594  0.00  0.00    +0.000 C 
ATOM     22  O   UNL     1      24.244  26.886  30.321  0.00  0.00    +0.000 OA
ENDBRANCH  15  22
ENDBRANCH   1  20
TORSDOF 2
ENDMDL
