MODEL 1
REMARK VINA RESULT:      -7.8      0.000      0.000
REMARK  Name = 
REMARK  8 active torsions:
REMARK  status: ('A' for Active; 'I' for Inactive)
REMARK    1  A    between atoms: C_2  and  C_3
REMARK    2  A    between atoms: C_6  and  O_7
REMARK    3  A    between atoms: O_7  and  C_8
REMARK    4  A    between atoms: C_8  and  C_9
REMARK    5  A    between atoms: C_12  and  C_13
REMARK    6  A    between atoms: N_15  and  C_16
REMARK    7  A    between atoms: C_19  and  C_20
REMARK    8  A    between atoms: C_20  and  N_21
REMARK                            x       y       z     vdW  Elec       q    Type
REMARK                         _______ _______ _______ _____ _____    ______ ____
ROOT
ATOM      1  C   UNL     1      14.427   0.192  27.806  0.00  0.00    +0.000 C 
ATOM      2  O   UNL     1      15.338   0.325  28.658  0.00  0.00    +0.000 OA
ATOM      3  N   UNL     1      14.794  -0.088  26.473  0.00  0.00    +0.000 NA
ENDROOT
BRANCH   3   4
ATOM      4  C   UNL     1      16.146  -0.226  26.049  0.00  0.00    +0.000 A 
ATOM      5  C   UNL     1      16.859   0.888  25.661  0.00  0.00    +0.000 A 
ATOM      6  C   UNL     1      18.187   0.792  25.239  0.00  0.00    +0.000 A 
ATOM      7  C   UNL     1      18.830  -0.428  25.197  0.00  0.00    +0.000 A 
ATOM      8  C   UNL     1      18.104  -1.533  25.587  0.00  0.00    +0.000 A 
ATOM      9  C   UNL     1      16.784  -1.444  26.008  0.00  0.00    +0.000 A 
BRANCH   7  10
ATOM     10  C   UNL     1      20.242  -0.533  24.748  0.00  0.00    +0.000 C 
BRANCH  10  11
ATOM     11  N   UNL     1      20.324  -0.394  23.314  0.00  0.00    +0.000 NA
ATOM     12  C   UNL     1      20.485  -1.653  22.630  0.00  0.00    +0.000 C 
ATOM     13  C   UNL     1      20.437  -1.363  21.138  0.00  0.00    +0.000 C 
ATOM     14  C   UNL     1      20.065   0.084  20.865  0.00  0.00    +0.000 C 
ATOM     15  C   UNL     1      21.118   0.945  21.511  0.00  0.00    +0.000 C 
ATOM     16  C   UNL     1      21.349   0.537  22.939  0.00  0.00    +0.000 C 
ENDBRANCH  10  11
ENDBRANCH   7  10
ENDBRANCH   3   4
BRANCH   1  20
ATOM     17  C   UNL     1      11.148   1.268  28.754  0.00  0.00    +0.000 A 
ATOM     18  C   UNL     1      10.928  -0.078  28.795  0.00  0.00    +0.000 A 
ATOM     19  C   UNL     1      12.109  -0.682  28.451  0.00  0.00    +0.000 A 
ATOM     20  C   UNL     1      13.014   0.329  28.209  0.00  0.00    +0.000 A 
ATOM     21  O   UNL     1      12.398   1.455  28.402  0.00  0.00    +0.000 OA
BRANCH  17  22
ATOM     22  C   UNL     1      10.157   2.351  29.050  0.00  0.00    +0.000 C 
BRANCH  22  23
ATOM     23  O   UNL     1       9.978   3.139  27.911  0.00  0.00    +0.000 OA
BRANCH  23  27
ATOM     24  C   UNL     1       7.291   1.903  24.921  0.00  0.00    +0.000 A 
ATOM     25  C   UNL     1       6.841   2.476  26.089  0.00  0.00    +0.000 A 
ATOM     26  C   UNL     1       7.729   2.877  27.063  0.00  0.00    +0.000 A 
ATOM     27  C   UNL     1       9.094   2.727  26.916  0.00  0.00    +0.000 A 
ATOM     28  C   UNL     1       9.528   2.151  25.738  0.00  0.00    +0.000 A 
ATOM     29  C   UNL     1       8.648   1.745  24.753  0.00  0.00    +0.000 A 
BRANCH  24  31
ATOM     30  C   UNL     1       6.497  -0.007  23.552  0.00  0.00    +0.000 C 
ATOM     31  C   UNL     1       6.339   1.459  23.846  0.00  0.00    +0.000 C 
ENDBRANCH  24  31
ENDBRANCH  23  27
ENDBRANCH  22  23
ENDBRANCH  17  22
ENDBRANCH   1  20
TORSDOF 8
ENDMDL
MODEL 2
REMARK VINA RESULT:      -7.5     23.874     27.408
REMARK  Name = 
REMARK  8 active torsions:
REMARK  status: ('A' for Active; 'I' for Inactive)
REMARK    1  A    between atoms: C_2  and  C_3
REMARK    2  A    between atoms: C_6  and  O_7
REMARK    3  A    between atoms: O_7  and  C_8
REMARK    4  A    between atoms: C_8  and  C_9
REMARK    5  A    between atoms: C_12  and  C_13
REMARK    6  A    between atoms: N_15  and  C_16
REMARK    7  A    between atoms: C_19  and  C_20
REMARK    8  A    between atoms: C_20  and  N_21
REMARK                            x       y       z     vdW  Elec       q    Type
REMARK                         _______ _______ _______ _____ _____    ______ ____
ROOT
ATOM      1  C   UNL     1      38.199   5.823  16.299  0.00  0.00    +0.000 C 
ATOM      2  O   UNL     1      38.344   7.066  16.217  0.00  0.00    +0.000 OA
ATOM      3  N   UNL     1      39.007   5.116  17.215  0.00  0.00    +0.000 NA
ENDROOT
BRANCH   3   4
ATOM      4  C   UNL     1      39.976   5.744  18.047  0.00  0.00    +0.000 A 
ATOM      5  C   UNL     1      41.203   6.095  17.525  0.00  0.00    +0.000 A 
ATOM      6  C   UNL     1      42.179   6.712  18.310  0.00  0.00    +0.000 A 
ATOM      7  C   UNL     1      41.945   6.992  19.641  0.00  0.00    +0.000 A 
ATOM      8  C   UNL     1      40.713   6.634  20.149  0.00  0.00    +0.000 A 
ATOM      9  C   UNL     1      39.739   6.020  19.374  0.00  0.00    +0.000 A 
BRANCH   7  10
ATOM     10  C   UNL     1      42.980   7.648  20.479  0.00  0.00    +0.000 C 
BRANCH  10  11
ATOM     11  N   UNL     1      43.784   6.655  21.150  0.00  0.00    +0.000 NA
ATOM     12  C   UNL     1      43.847   6.848  22.578  0.00  0.00    +0.000 C 
ATOM     13  C   UNL     1      44.621   5.673  23.155  0.00  0.00    +0.000 C 
ATOM     14  C   UNL     1      44.908   4.622  22.097  0.00  0.00    +0.000 C 
ATOM     15  C   UNL     1      45.728   5.284  21.021  0.00  0.00    +0.000 C 
ATOM     16  C   UNL     1      45.097   6.575  20.577  0.00  0.00    +0.000 C 
ENDBRANCH  10  11
ENDBRANCH   7  10
ENDBRANCH   3   4
BRANCH   1  20
ATOM     17  C   UNL     1      35.903   3.578  14.718  0.00  0.00    +0.000 A 
ATOM     18  C   UNL     1      35.726   4.649  13.892  0.00  0.00    +0.000 A 
ATOM     19  C   UNL     1      36.549   5.643  14.350  0.00  0.00    +0.000 A 
ATOM     20  C   UNL     1      37.204   5.137  15.452  0.00  0.00    +0.000 A 
ATOM     21  O   UNL     1      36.789   3.920  15.625  0.00  0.00    +0.000 OA
BRANCH  17  22
ATOM     22  C   UNL     1      35.222   2.248  14.627  0.00  0.00    +0.000 C 
BRANCH  22  23
ATOM     23  O   UNL     1      34.789   1.862  15.898  0.00  0.00    +0.000 OA
BRANCH  23  27
ATOM     24  C   UNL     1      36.852  -1.136  18.006  0.00  0.00    +0.000 A 
ATOM     25  C   UNL     1      36.309  -0.053  18.659  0.00  0.00    +0.000 A 
ATOM     26  C   UNL     1      35.636   0.924  17.960  0.00  0.00    +0.000 A 
ATOM     27  C   UNL     1      35.473   0.865  16.590  0.00  0.00    +0.000 A 
ATOM     28  C   UNL     1      36.024  -0.229  15.951  0.00  0.00    +0.000 A 
ATOM     29  C   UNL     1      36.701  -1.216  16.639  0.00  0.00    +0.000 A 
BRANCH  24  31
ATOM     30  C   UNL     1      38.625  -2.866  17.875  0.00  0.00    +0.000 C 
ATOM     31  C   UNL     1      37.590  -2.214  18.750  0.00  0.00    +0.000 C 
ENDBRANCH  24  31
ENDBRANCH  23  27
ENDBRANCH  22  23
ENDBRANCH  17  22
ENDBRANCH   1  20
TORSDOF 8
ENDMDL
MODEL 3
REMARK VINA RESULT:      -7.4      2.380      4.514
REMARK  Name = 
REMARK  8 active torsions:
REMARK  status: ('A' for Active; 'I' for Inactive)
REMARK    1  A    between atoms: C_2  and  C_3
REMARK    2  A    between atoms: C_6  and  O_7
REMARK    3  A    between atoms: O_7  and  C_8
REMARK    4  A    between atoms: C_8  and  C_9
REMARK    5  A    between atoms: C_12  and  C_13
REMARK    6  A    between atoms: N_15  and  C_16
REMARK    7  A    between atoms: C_19  and  C_20
REMARK    8  A    between atoms: C_20  and  N_21
REMARK                            x       y       z     vdW  Elec       q    Type
REMARK                         _______ _______ _______ _____ _____    ______ ____
ROOT
ATOM      1  C   UNL     1      14.597   0.250  27.986  0.00  0.00    +0.000 C 
ATOM      2  O   UNL     1      15.537   0.219  28.817  0.00  0.00    +0.000 OA
ATOM      3  N   UNL     1      14.913   0.132  26.616  0.00  0.00    +0.000 NA
ENDROOT
BRANCH   3   4
ATOM      4  C   UNL     1      16.243  -0.019  26.132  0.00  0.00    +0.000 A 
ATOM      5  C   UNL     1      16.997   1.097  25.840  0.00  0.00    +0.000 A 
ATOM      6  C   UNL     1      18.306   0.988  25.363  0.00  0.00    +0.000 A 
ATOM      7  C   UNL     1      18.888  -0.247  25.169  0.00  0.00    +0.000 A 
ATOM      8  C   UNL     1      18.121  -1.355  25.466  0.00  0.00    +0.000 A 
ATOM      9  C   UNL     1      16.821  -1.253  25.939  0.00  0.00    +0.000 A 
BRANCH   7  10
ATOM     10  C   UNL     1      20.278  -0.367  24.662  0.00  0.00    +0.000 C 
BRANCH  10  11
ATOM     11  N   UNL     1      20.285  -0.398  23.219  0.00  0.00    +0.000 NA
ATOM     12  C   UNL     1      20.494  -1.719  22.681  0.00  0.00    +0.000 C 
ATOM     13  C   UNL     1      20.358  -1.615  21.170  0.00  0.00    +0.000 C 
ATOM     14  C   UNL     1      19.883  -0.235  20.748  0.00  0.00    +0.000 C 
ATOM     15  C   UNL     1      20.909   0.757  21.231  0.00  0.00    +0.000 C 
ATOM     16  C   UNL     1      21.232   0.538  22.684  0.00  0.00    +0.000 C 
ENDBRANCH  10  11
ENDBRANCH   7  10
ENDBRANCH   3   4
BRANCH   1  20
ATOM     17  C   UNL     1      11.273   1.310  28.781  0.00  0.00    +0.000 A 
ATOM     18  C   UNL     1      11.227   0.078  29.366  0.00  0.00    +0.000 A 
ATOM     19  C   UNL     1      12.451  -0.502  29.161  0.00  0.00    +0.000 A 
ATOM     20  C   UNL     1      13.206   0.406  28.451  0.00  0.00    +0.000 A 
ATOM     21  O   UNL     1      12.466   1.455  28.254  0.00  0.00    +0.000 OA
BRANCH  17  22
ATOM     22  C   UNL     1      10.175   2.326  28.736  0.00  0.00    +0.000 C 
BRANCH  22  23
ATOM     23  O   UNL     1       9.443   2.269  29.924  0.00  0.00    +0.000 OA
BRANCH  23  27
ATOM     24  C   UNL     1      10.365   4.904  33.070  0.00  0.00    +0.000 A 
ATOM     25  C   UNL     1       9.608   5.316  31.997  0.00  0.00    +0.000 A 
ATOM     26  C   UNL     1       9.312   4.445  30.972  0.00  0.00    +0.000 A 
ATOM     27  C   UNL     1       9.752   3.137  30.970  0.00  0.00    +0.000 A 
ATOM     28  C   UNL     1      10.510   2.740  32.055  0.00  0.00    +0.000 A 
ATOM     29  C   UNL     1      10.815   3.603  33.090  0.00  0.00    +0.000 A 
BRANCH  24  31
ATOM     30  C   UNL     1      12.115   5.638  34.668  0.00  0.00    +0.000 C 
ATOM     31  C   UNL     1      10.700   5.837  34.201  0.00  0.00    +0.000 C 
ENDBRANCH  24  31
ENDBRANCH  23  27
ENDBRANCH  22  23
ENDBRANCH  17  22
ENDBRANCH   1  20
TORSDOF 8
ENDMDL
MODEL 4
REMARK VINA RESULT:      -7.4     23.673     26.936
REMARK  Name = 
REMARK  8 active torsions:
REMARK  status: ('A' for Active; 'I' for Inactive)
REMARK    1  A    between atoms: C_2  and  C_3
REMARK    2  A    between atoms: C_6  and  O_7
REMARK    3  A    between atoms: O_7  and  C_8
REMARK    4  A    between atoms: C_8  and  C_9
REMARK    5  A    between atoms: C_12  and  C_13
REMARK    6  A    between atoms: N_15  and  C_16
REMARK    7  A    between atoms: C_19  and  C_20
REMARK    8  A    between atoms: C_20  and  N_21
REMARK                            x       y       z     vdW  Elec       q    Type
REMARK                         _______ _______ _______ _____ _____    ______ ____
ROOT
ATOM      1  C   UNL     1      37.084   3.854  15.742  0.00  0.00    +0.000 C 
ATOM      2  O   UNL     1      37.912   3.310  16.511  0.00  0.00    +0.000 OA
ATOM      3  N   UNL     1      36.015   3.073  15.252  0.00  0.00    +0.000 NA
ENDROOT
BRANCH   3   4
ATOM      4  C   UNL     1      35.833   1.702  15.586  0.00  0.00    +0.000 A 
ATOM      5  C   UNL     1      35.061   1.359  16.676  0.00  0.00    +0.000 A 
ATOM      6  C   UNL     1      34.860   0.024  17.034  0.00  0.00    +0.000 A 
ATOM      7  C   UNL     1      35.430  -0.999  16.306  0.00  0.00    +0.000 A 
ATOM      8  C   UNL     1      36.200  -0.640  15.219  0.00  0.00    +0.000 A 
ATOM      9  C   UNL     1      36.404   0.684  14.857  0.00  0.00    +0.000 A 
BRANCH   7  10
ATOM     10  C   UNL     1      35.218  -2.419  16.684  0.00  0.00    +0.000 C 
BRANCH  10  11
ATOM     11  N   UNL     1      36.486  -3.090  16.843  0.00  0.00    +0.000 NA
ATOM     12  C   UNL     1      36.393  -4.521  16.694  0.00  0.00    +0.000 C 
ATOM     13  C   UNL     1      37.808  -5.073  16.768  0.00  0.00    +0.000 C 
ATOM     14  C   UNL     1      38.839  -3.958  16.791  0.00  0.00    +0.000 C 
ATOM     15  C   UNL     1      38.562  -3.119  18.011  0.00  0.00    +0.000 C 
ATOM     16  C   UNL     1      37.110  -2.735  18.086  0.00  0.00    +0.000 C 
ENDBRANCH  10  11
ENDBRANCH   7  10
ENDBRANCH   3   4
BRANCH   1  20
ATOM     17  C   UNL     1      37.919   7.322  15.455  0.00  0.00    +0.000 A 
ATOM     18  C   UNL     1      37.093   7.233  14.373  0.00  0.00    +0.000 A 
ATOM     19  C   UNL     1      36.657   5.935  14.314  0.00  0.00    +0.000 A 
ATOM     20  C   UNL     1      37.241   5.274  15.373  0.00  0.00    +0.000 A 
ATOM     21  O   UNL     1      37.972   6.134  16.012  0.00  0.00    +0.000 OA
BRANCH  17  22
ATOM     22  C   UNL     1      38.644   8.540  15.936  0.00  0.00    +0.000 C 
BRANCH  22  23
ATOM     23  O   UNL     1      38.512   8.639  17.324  0.00  0.00    +0.000 OA
BRANCH  23  27
ATOM     24  C   UNL     1      41.340   6.813  19.845  0.00  0.00    +0.000 A 
ATOM     25  C   UNL     1      40.015   6.901  20.208  0.00  0.00    +0.000 A 
ATOM     26  C   UNL     1      39.097   7.501  19.376  0.00  0.00    +0.000 A 
ATOM     27  C   UNL     1      39.454   8.035  18.154  0.00  0.00    +0.000 A 
ATOM     28  C   UNL     1      40.788   7.939  17.805  0.00  0.00    +0.000 A 
ATOM     29  C   UNL     1      41.719   7.339  18.630  0.00  0.00    +0.000 A 
BRANCH  24  31
ATOM     30  C   UNL     1      43.755   6.574  20.360  0.00  0.00    +0.000 C 
ATOM     31  C   UNL     1      42.359   6.162  20.738  0.00  0.00    +0.000 C 
ENDBRANCH  24  31
ENDBRANCH  23  27
ENDBRANCH  22  23
ENDBRANCH  17  22
ENDBRANCH   1  20
TORSDOF 8
ENDMDL
MODEL 5
REMARK VINA RESULT:      -7.4     23.908     27.890
REMARK  Name = 
REMARK  8 active torsions:
REMARK  status: ('A' for Active; 'I' for Inactive)
REMARK    1  A    between atoms: C_2  and  C_3
REMARK    2  A    between atoms: C_6  and  O_7
REMARK    3  A    between atoms: O_7  and  C_8
REMARK    4  A    between atoms: C_8  and  C_9
REMARK    5  A    between atoms: C_12  and  C_13
REMARK    6  A    between atoms: N_15  and  C_16
REMARK    7  A    between atoms: C_19  and  C_20
REMARK    8  A    between atoms: C_20  and  N_21
REMARK                            x       y       z     vdW  Elec       q    Type
REMARK                         _______ _______ _______ _____ _____    ______ ____
ROOT
ATOM      1  C   UNL     1      37.674   4.411  16.543  0.00  0.00    +0.000 C 
ATOM      2  O   UNL     1      37.736   5.453  15.848  0.00  0.00    +0.000 OA
ATOM      3  N   UNL     1      38.535   4.298  17.656  0.00  0.00    +0.000 NA
ENDROOT
BRANCH   3   4
ATOM      4  C   UNL     1      39.470   5.306  18.024  0.00  0.00    +0.000 A 
ATOM      5  C   UNL     1      39.395   5.886  19.273  0.00  0.00    +0.000 A 
ATOM      6  C   UNL     1      40.295   6.877  19.670  0.00  0.00    +0.000 A 
ATOM      7  C   UNL     1      41.292   7.310  18.821  0.00  0.00    +0.000 A 
ATOM      8  C   UNL     1      41.354   6.721  17.576  0.00  0.00    +0.000 A 
ATOM      9  C   UNL     1      40.463   5.735  17.175  0.00  0.00    +0.000 A 
BRANCH   7  10
ATOM     10  C   UNL     1      42.250   8.364  19.241  0.00  0.00    +0.000 C 
BRANCH  10  11
ATOM     11  N   UNL     1      43.004   7.927  20.391  0.00  0.00    +0.000 NA
ATOM     12  C   UNL     1      43.469   9.017  21.213  0.00  0.00    +0.000 C 
ATOM     13  C   UNL     1      44.136   8.405  22.435  0.00  0.00    +0.000 C 
ATOM     14  C   UNL     1      43.942   6.899  22.479  0.00  0.00    +0.000 C 
ATOM     15  C   UNL     1      44.563   6.332  21.230  0.00  0.00    +0.000 C 
ATOM     16  C   UNL     1      44.087   7.067  20.007  0.00  0.00    +0.000 C 
ENDBRANCH  10  11
ENDBRANCH   7  10
ENDBRANCH   3   4
BRANCH   1  20
ATOM     17  C   UNL     1      35.637   1.479  16.303  0.00  0.00    +0.000 A 
ATOM     18  C   UNL     1      35.157   2.136  15.209  0.00  0.00    +0.000 A 
ATOM     19  C   UNL     1      35.838   3.323  15.130  0.00  0.00    +0.000 A 
ATOM     20  C   UNL     1      36.717   3.345  16.191  0.00  0.00    +0.000 A 
ATOM     21  O   UNL     1      36.559   2.237  16.849  0.00  0.00    +0.000 OA
BRANCH  17  22
ATOM     22  C   UNL     1      35.205   0.137  16.808  0.00  0.00    +0.000 C 
BRANCH  22  23
ATOM     23  O   UNL     1      35.487  -0.833  15.843  0.00  0.00    +0.000 OA
BRANCH  23  27
ATOM     24  C   UNL     1      39.482  -1.894  15.069  0.00  0.00    +0.000 A 
ATOM     25  C   UNL     1      38.973  -1.929  16.347  0.00  0.00    +0.000 A 
ATOM     26  C   UNL     1      37.663  -1.579  16.590  0.00  0.00    +0.000 A 
ATOM     27  C   UNL     1      36.810  -1.184  15.579  0.00  0.00    +0.000 A 
ATOM     28  C   UNL     1      37.338  -1.155  14.303  0.00  0.00    +0.000 A 
ATOM     29  C   UNL     1      38.649  -1.503  14.044  0.00  0.00    +0.000 A 
BRANCH  24  31
ATOM     30  C   UNL     1      41.040  -2.898  13.420  0.00  0.00    +0.000 C 
ATOM     31  C   UNL     1      40.909  -2.272  14.780  0.00  0.00    +0.000 C 
ENDBRANCH  24  31
ENDBRANCH  23  27
ENDBRANCH  22  23
ENDBRANCH  17  22
ENDBRANCH   1  20
TORSDOF 8
ENDMDL
MODEL 6
REMARK VINA RESULT:      -7.3     24.040     26.378
REMARK  Name = 
REMARK  8 active torsions:
REMARK  status: ('A' for Active; 'I' for Inactive)
REMARK    1  A    between atoms: C_2  and  C_3
REMARK    2  A    between atoms: C_6  and  O_7
REMARK    3  A    between atoms: O_7  and  C_8
REMARK    4  A    between atoms: C_8  and  C_9
REMARK    5  A    between atoms: C_12  and  C_13
REMARK    6  A    between atoms: N_15  and  C_16
REMARK    7  A    between atoms: C_19  and  C_20
REMARK    8  A    between atoms: C_20  and  N_21
REMARK                            x       y       z     vdW  Elec       q    Type
REMARK                         _______ _______ _______ _____ _____    ______ ____
ROOT
ATOM      1  C   UNL     1      36.200  -1.464  15.675  0.00  0.00    +0.000 C 
ATOM      2  O   UNL     1      35.517  -1.587  16.720  0.00  0.00    +0.000 OA
ATOM      3  N   UNL     1      36.313  -2.578  14.817  0.00  0.00    +0.000 NA
ENDROOT
BRANCH   3   4
ATOM      4  C   UNL     1      35.693  -3.832  15.080  0.00  0.00    +0.000 A 
ATOM      5  C   UNL     1      34.508  -4.156  14.454  0.00  0.00    +0.000 A 
ATOM      6  C   UNL     1      33.871  -5.376  14.687  0.00  0.00    +0.000 A 
ATOM      7  C   UNL     1      34.409  -6.302  15.556  0.00  0.00    +0.000 A 
ATOM      8  C   UNL     1      35.594  -5.964  16.175  0.00  0.00    +0.000 A 
ATOM      9  C   UNL     1      36.233  -4.753  15.948  0.00  0.00    +0.000 A 
BRANCH   7  10
ATOM     10  C   UNL     1      33.734  -7.600  15.806  0.00  0.00    +0.000 C 
BRANCH  10  11
ATOM     11  N   UNL     1      33.390  -8.235  14.556  0.00  0.00    +0.000 NA
ATOM     12  C   UNL     1      32.307  -9.180  14.678  0.00  0.00    +0.000 C 
ATOM     13  C   UNL     1      31.982  -9.673  13.278  0.00  0.00    +0.000 C 
ATOM     14  C   UNL     1      32.754  -8.901  12.222  0.00  0.00    +0.000 C 
ATOM     15  C   UNL     1      34.220  -9.108  12.501  0.00  0.00    +0.000 C 
ATOM     16  C   UNL     1      34.540  -8.838  13.945  0.00  0.00    +0.000 C 
ENDBRANCH  10  11
ENDBRANCH   7  10
ENDBRANCH   3   4
BRANCH   1  20
ATOM     17  C   UNL     1      37.193   1.952  15.287  0.00  0.00    +0.000 A 
ATOM     18  C   UNL     1      38.255   1.370  14.660  0.00  0.00    +0.000 A 
ATOM     19  C   UNL     1      38.050   0.017  14.708  0.00  0.00    +0.000 A 
ATOM     20  C   UNL     1      36.857  -0.179  15.370  0.00  0.00    +0.000 A 
ATOM     21  O   UNL     1      36.394   0.991  15.688  0.00  0.00    +0.000 OA
BRANCH  17  22
ATOM     22  C   UNL     1      36.960   3.417  15.492  0.00  0.00    +0.000 C 
BRANCH  22  23
ATOM     23  O   UNL     1      38.153   4.110  15.275  0.00  0.00    +0.000 OA
BRANCH  23  27
ATOM     24  C   UNL     1      40.136   5.957  18.491  0.00  0.00    +0.000 A 
ATOM     25  C   UNL     1      40.571   6.127  17.196  0.00  0.00    +0.000 A 
ATOM     26  C   UNL     1      39.915   5.517  16.150  0.00  0.00    +0.000 A 
ATOM     27  C   UNL     1      38.805   4.719  16.345  0.00  0.00    +0.000 A 
ATOM     28  C   UNL     1      38.383   4.559  17.651  0.00  0.00    +0.000 A 
ATOM     29  C   UNL     1      39.031   5.165  18.710  0.00  0.00    +0.000 A 
BRANCH  24  31
ATOM     30  C   UNL     1      42.326   6.636  19.439  0.00  0.00    +0.000 C 
ATOM     31  C   UNL     1      40.837   6.613  19.648  0.00  0.00    +0.000 C 
ENDBRANCH  24  31
ENDBRANCH  23  27
ENDBRANCH  22  23
ENDBRANCH  17  22
ENDBRANCH   1  20
TORSDOF 8
ENDMDL
MODEL 7
REMARK VINA RESULT:      -7.2     23.837     27.648
REMARK  Name = 
REMARK  8 active torsions:
REMARK  status: ('A' for Active; 'I' for Inactive)
REMARK    1  A    between atoms: C_2  and  C_3
REMARK    2  A    between atoms: C_6  and  O_7
REMARK    3  A    between atoms: O_7  and  C_8
REMARK    4  A    between atoms: C_8  and  C_9
REMARK    5  A    between atoms: C_12  and  C_13
REMARK    6  A    between atoms: N_15  and  C_16
REMARK    7  A    between atoms: C_19  and  C_20
REMARK    8  A    between atoms: C_20  and  N_21
REMARK                            x       y       z     vdW  Elec       q    Type
REMARK                         _______ _______ _______ _____ _____    ______ ____
ROOT
ATOM      1  C   UNL     1      37.807   4.486  16.909  0.00  0.00    +0.000 C 
ATOM      2  O   UNL     1      37.849   5.472  16.135  0.00  0.00    +0.000 OA
ATOM      3  N   UNL     1      38.689   4.464  18.011  0.00  0.00    +0.000 NA
ENDROOT
BRANCH   3   4
ATOM      4  C   UNL     1      39.622   5.504  18.284  0.00  0.00    +0.000 A 
ATOM      5  C   UNL     1      39.521   6.225  19.455  0.00  0.00    +0.000 A 
ATOM      6  C   UNL     1      40.418   7.251  19.757  0.00  0.00    +0.000 A 
ATOM      7  C   UNL     1      41.439   7.578  18.890  0.00  0.00    +0.000 A 
ATOM      8  C   UNL     1      41.527   6.848  17.723  0.00  0.00    +0.000 A 
ATOM      9  C   UNL     1      40.639   5.827  17.416  0.00  0.00    +0.000 A 
BRANCH   7  10
ATOM     10  C   UNL     1      42.395   8.669  19.209  0.00  0.00    +0.000 C 
BRANCH  10  11
ATOM     11  N   UNL     1      41.702   9.781  19.814  0.00  0.00    +0.000 NA
ATOM     12  C   UNL     1      41.186  10.721  18.849  0.00  0.00    +0.000 C 
ATOM     13  C   UNL     1      40.389  11.762  19.619  0.00  0.00    +0.000 C 
ATOM     14  C   UNL     1      40.248  11.384  21.083  0.00  0.00    +0.000 C 
ATOM     15  C   UNL     1      41.638  11.290  21.656  0.00  0.00    +0.000 C 
ATOM     16  C   UNL     1      42.523  10.436  20.791  0.00  0.00    +0.000 C 
ENDBRANCH  10  11
ENDBRANCH   7  10
ENDBRANCH   3   4
BRANCH   1  20
ATOM     17  C   UNL     1      35.808   1.518  16.917  0.00  0.00    +0.000 A 
ATOM     18  C   UNL     1      35.271   2.109  15.811  0.00  0.00    +0.000 A 
ATOM     19  C   UNL     1      35.929   3.298  15.639  0.00  0.00    +0.000 A 
ATOM     20  C   UNL     1      36.853   3.390  16.657  0.00  0.00    +0.000 A 
ATOM     21  O   UNL     1      36.740   2.317  17.380  0.00  0.00    +0.000 OA
BRANCH  17  22
ATOM     22  C   UNL     1      35.420   0.200  17.511  0.00  0.00    +0.000 C 
BRANCH  22  23
ATOM     23  O   UNL     1      35.530  -0.797  16.539  0.00  0.00    +0.000 OA
BRANCH  23  27
ATOM     24  C   UNL     1      39.334  -2.190  15.411  0.00  0.00    +0.000 A 
ATOM     25  C   UNL     1      38.913  -2.253  16.720  0.00  0.00    +0.000 A 
ATOM     26  C   UNL     1      37.666  -1.793  17.080  0.00  0.00    +0.000 A 
ATOM     27  C   UNL     1      36.789  -1.257  16.158  0.00  0.00    +0.000 A 
ATOM     28  C   UNL     1      37.227  -1.202  14.849  0.00  0.00    +0.000 A 
ATOM     29  C   UNL     1      38.475  -1.660  14.475  0.00  0.00    +0.000 A 
BRANCH  24  31
ATOM     30  C   UNL     1      40.794  -2.804  13.502  0.00  0.00    +0.000 C 
ATOM     31  C   UNL     1      40.692  -2.687  14.997  0.00  0.00    +0.000 C 
ENDBRANCH  24  31
ENDBRANCH  23  27
ENDBRANCH  22  23
ENDBRANCH  17  22
ENDBRANCH   1  20
TORSDOF 8
ENDMDL
MODEL 8
REMARK VINA RESULT:      -7.1     23.853     27.346
REMARK  Name = 
REMARK  8 active torsions:
REMARK  status: ('A' for Active; 'I' for Inactive)
REMARK    1  A    between atoms: C_2  and  C_3
REMARK    2  A    between atoms: C_6  and  O_7
REMARK    3  A    between atoms: O_7  and  C_8
REMARK    4  A    between atoms: C_8  and  C_9
REMARK    5  A    between atoms: C_12  and  C_13
REMARK    6  A    between atoms: N_15  and  C_16
REMARK    7  A    between atoms: C_19  and  C_20
REMARK    8  A    between atoms: C_20  and  N_21
REMARK                            x       y       z     vdW  Elec       q    Type
REMARK                         _______ _______ _______ _____ _____    ______ ____
ROOT
ATOM      1  C   UNL     1      38.200   5.586  16.518  0.00  0.00    +0.000 C 
ATOM      2  O   UNL     1      38.214   6.829  16.355  0.00  0.00    +0.000 OA
ATOM      3  N   UNL     1      39.103   5.024  17.446  0.00  0.00    +0.000 NA
ENDROOT
BRANCH   3   4
ATOM      4  C   UNL     1      40.027   5.798  18.202  0.00  0.00    +0.000 A 
ATOM      5  C   UNL     1      41.249   6.131  17.657  0.00  0.00    +0.000 A 
ATOM      6  C   UNL     1      42.181   6.890  18.368  0.00  0.00    +0.000 A 
ATOM      7  C   UNL     1      41.908   7.331  19.646  0.00  0.00    +0.000 A 
ATOM      8  C   UNL     1      40.682   6.989  20.178  0.00  0.00    +0.000 A 
ATOM      9  C   UNL     1      39.751   6.236  19.477  0.00  0.00    +0.000 A 
BRANCH   7  10
ATOM     10  C   UNL     1      42.897   8.137  20.406  0.00  0.00    +0.000 C 
BRANCH  10  11
ATOM     11  N   UNL     1      42.379   9.460  20.656  0.00  0.00    +0.000 NA
ATOM     12  C   UNL     1      42.313  10.278  19.470  0.00  0.00    +0.000 C 
ATOM     13  C   UNL     1      41.644  11.586  19.863  0.00  0.00    +0.000 C 
ATOM     14  C   UNL     1      41.117  11.535  21.287  0.00  0.00    +0.000 C 
ATOM     15  C   UNL     1      42.295  11.281  22.190  0.00  0.00    +0.000 C 
ATOM     16  C   UNL     1      43.111  10.117  21.701  0.00  0.00    +0.000 C 
ENDBRANCH  10  11
ENDBRANCH   7  10
ENDBRANCH   3   4
BRANCH   1  20
ATOM     17  C   UNL     1      35.939   3.109  15.269  0.00  0.00    +0.000 A 
ATOM     18  C   UNL     1      35.917   3.949  14.194  0.00  0.00    +0.000 A 
ATOM     19  C   UNL     1      36.751   4.994  14.492  0.00  0.00    +0.000 A 
ATOM     20  C   UNL     1      37.255   4.751  15.751  0.00  0.00    +0.000 A 
ATOM     21  O   UNL     1      36.747   3.630  16.163  0.00  0.00    +0.000 OA
BRANCH  17  22
ATOM     22  C   UNL     1      35.186   1.824  15.422  0.00  0.00    +0.000 C 
BRANCH  22  23
ATOM     23  O   UNL     1      35.083   1.507  16.779  0.00  0.00    +0.000 OA
BRANCH  23  27
ATOM     24  C   UNL     1      37.412  -1.595  18.404  0.00  0.00    +0.000 A 
ATOM     25  C   UNL     1      36.618  -0.807  19.206  0.00  0.00    +0.000 A 
ATOM     26  C   UNL     1      35.860   0.207  18.664  0.00  0.00    +0.000 A 
ATOM     27  C   UNL     1      35.857   0.477  17.310  0.00  0.00    +0.000 A 
ATOM     28  C   UNL     1      36.659  -0.323  16.520  0.00  0.00    +0.000 A 
ATOM     29  C   UNL     1      37.424  -1.344  17.050  0.00  0.00    +0.000 A 
BRANCH  24  31
ATOM     30  C   UNL     1      38.708  -3.648  17.895  0.00  0.00    +0.000 C 
ATOM     31  C   UNL     1      38.248  -2.708  18.974  0.00  0.00    +0.000 C 
ENDBRANCH  24  31
ENDBRANCH  23  27
ENDBRANCH  22  23
ENDBRANCH  17  22
ENDBRANCH   1  20
TORSDOF 8
ENDMDL
MODEL 9
REMARK VINA RESULT:      -7.0      2.731     11.482
REMARK  Name = 
REMARK  8 active torsions:
REMARK  status: ('A' for Active; 'I' for Inactive)
REMARK    1  A    between atoms: C_2  and  C_3
REMARK    2  A    between atoms: C_6  and  O_7
REMARK    3  A    between atoms: O_7  and  C_8
REMARK    4  A    between atoms: C_8  and  C_9
REMARK    5  A    between atoms: C_12  and  C_13
REMARK    6  A    between atoms: N_15  and  C_16
REMARK    7  A    between atoms: C_19  and  C_20
REMARK    8  A    between atoms: C_20  and  N_21
REMARK                            x       y       z     vdW  Elec       q    Type
REMARK                         _______ _______ _______ _____ _____    ______ ____
ROOT
ATOM      1  C   UNL     1      10.993   0.686  27.084  0.00  0.00    +0.000 C 
ATOM      2  O   UNL     1      10.142  -0.056  27.629  0.00  0.00    +0.000 OA
ATOM      3  N   UNL     1      10.532   1.769  26.305  0.00  0.00    +0.000 NA
ENDROOT
BRANCH   3   4
ATOM      4  C   UNL     1       9.152   2.057  26.107  0.00  0.00    +0.000 A 
ATOM      5  C   UNL     1       8.477   2.836  27.022  0.00  0.00    +0.000 A 
ATOM      6  C   UNL     1       7.123   3.139  26.861  0.00  0.00    +0.000 A 
ATOM      7  C   UNL     1       6.415   2.667  25.775  0.00  0.00    +0.000 A 
ATOM      8  C   UNL     1       7.105   1.889  24.869  0.00  0.00    +0.000 A 
ATOM      9  C   UNL     1       8.450   1.584  25.023  0.00  0.00    +0.000 A 
BRANCH   7  10
ATOM     10  C   UNL     1       4.976   2.988  25.602  0.00  0.00    +0.000 C 
BRANCH  10  11
ATOM     11  N   UNL     1       4.396   2.152  24.578  0.00  0.00    +0.000 NA
ATOM     12  C   UNL     1       3.718   2.902  23.549  0.00  0.00    +0.000 C 
ATOM     13  C   UNL     1       3.267   1.906  22.492  0.00  0.00    +0.000 C 
ATOM     14  C   UNL     1       3.818   0.517  22.765  0.00  0.00    +0.000 C 
ATOM     15  C   UNL     1       3.301   0.089  24.113  0.00  0.00    +0.000 C 
ATOM     16  C   UNL     1       3.537   1.154  25.147  0.00  0.00    +0.000 C 
ENDBRANCH  10  11
ENDBRANCH   7  10
ENDBRANCH   3   4
BRANCH   1  20
ATOM     17  C   UNL     1      14.438  -0.245  26.823  0.00  0.00    +0.000 A 
ATOM     18  C   UNL     1      14.473   0.270  28.086  0.00  0.00    +0.000 A 
ATOM     19  C   UNL     1      13.203   0.694  28.375  0.00  0.00    +0.000 A 
ATOM     20  C   UNL     1      12.432   0.418  27.267  0.00  0.00    +0.000 A 
ATOM     21  O   UNL     1      13.206  -0.133  26.383  0.00  0.00    +0.000 OA
BRANCH  17  22
ATOM     22  C   UNL     1      15.583  -0.834  26.059  0.00  0.00    +0.000 C 
BRANCH  22  23
ATOM     23  O   UNL     1      16.744  -0.106  26.331  0.00  0.00    +0.000 OA
BRANCH  23  27
ATOM     24  C   UNL     1      20.009  -0.343  23.691  0.00  0.00    +0.000 A 
ATOM     25  C   UNL     1      19.366  -1.478  24.129  0.00  0.00    +0.000 A 
ATOM     26  C   UNL     1      18.298  -1.390  24.994  0.00  0.00    +0.000 A 
ATOM     27  C   UNL     1      17.826  -0.177  25.456  0.00  0.00    +0.000 A 
ATOM     28  C   UNL     1      18.483   0.951  25.006  0.00  0.00    +0.000 A 
ATOM     29  C   UNL     1      19.556   0.878  24.138  0.00  0.00    +0.000 A 
BRANCH  24  31
ATOM     30  C   UNL     1      20.855  -1.268  21.550  0.00  0.00    +0.000 C 
ATOM     31  C   UNL     1      21.177  -0.416  22.746  0.00  0.00    +0.000 C 
ENDBRANCH  24  31
ENDBRANCH  23  27
ENDBRANCH  22  23
ENDBRANCH  17  22
ENDBRANCH   1  20
TORSDOF 8
ENDMDL
MODEL 10
REMARK VINA RESULT:      -6.9     23.550     26.524
REMARK  Name = 
REMARK  8 active torsions:
REMARK  status: ('A' for Active; 'I' for Inactive)
REMARK    1  A    between atoms: C_2  and  C_3
REMARK    2  A    between atoms: C_6  and  O_7
REMARK    3  A    between atoms: O_7  and  C_8
REMARK    4  A    between atoms: C_8  and  C_9
REMARK    5  A    between atoms: C_12  and  C_13
REMARK    6  A    between atoms: N_15  and  C_16
REMARK    7  A    between atoms: C_19  and  C_20
REMARK    8  A    between atoms: C_20  and  N_21
REMARK                            x       y       z     vdW  Elec       q    Type
REMARK                         _______ _______ _______ _____ _____    ______ ____
ROOT
ATOM      1  C   UNL     1      36.279   1.876  16.516  0.00  0.00    +0.000 C 
ATOM      2  O   UNL     1      36.787   2.770  17.234  0.00  0.00    +0.000 OA
ATOM      3  N   UNL     1      35.860   2.224  15.214  0.00  0.00    +0.000 NA
ENDROOT
BRANCH   3   4
ATOM      4  C   UNL     1      35.984   3.538  14.680  0.00  0.00    +0.000 A 
ATOM      5  C   UNL     1      34.872   4.348  14.589  0.00  0.00    +0.000 A 
ATOM      6  C   UNL     1      34.955   5.642  14.071  0.00  0.00    +0.000 A 
ATOM      7  C   UNL     1      36.158   6.153  13.630  0.00  0.00    +0.000 A 
ATOM      8  C   UNL     1      37.261   5.330  13.726  0.00  0.00    +0.000 A 
ATOM      9  C   UNL     1      37.186   4.043  14.240  0.00  0.00    +0.000 A 
BRANCH   7  10
ATOM     10  C   UNL     1      36.249   7.528  13.077  0.00  0.00    +0.000 C 
BRANCH  10  11
ATOM     11  N   UNL     1      35.498   8.448  13.897  0.00  0.00    +0.000 NA
ATOM     12  C   UNL     1      34.943   9.551  13.151  0.00  0.00    +0.000 C 
ATOM     13  C   UNL     1      34.089  10.360  14.114  0.00  0.00    +0.000 C 
ATOM     14  C   UNL     1      33.957   9.666  15.458  0.00  0.00    +0.000 C 
ATOM     15  C   UNL     1      35.346   9.515  16.021  0.00  0.00    +0.000 C 
ATOM     16  C   UNL     1      36.278   8.912  15.008  0.00  0.00    +0.000 C 
ENDBRANCH  10  11
ENDBRANCH   7  10
ENDBRANCH   3   4
BRANCH   1  20
ATOM     17  C   UNL     1      36.687  -1.434  17.813  0.00  0.00    +0.000 A 
ATOM     18  C   UNL     1      35.326  -1.425  17.733  0.00  0.00    +0.000 A 
ATOM     19  C   UNL     1      34.966  -0.199  17.240  0.00  0.00    +0.000 A 
ATOM     20  C   UNL     1      36.135   0.503  17.037  0.00  0.00    +0.000 A 
ATOM     21  O   UNL     1      37.117  -0.268  17.389  0.00  0.00    +0.000 OA
BRANCH  17  22
ATOM     22  C   UNL     1      37.553  -2.556  18.295  0.00  0.00    +0.000 C 
BRANCH  22  23
ATOM     23  O   UNL     1      37.598  -3.557  17.322  0.00  0.00    +0.000 OA
BRANCH  23  27
ATOM     24  C   UNL     1      39.237  -2.712  13.542  0.00  0.00    +0.000 A 
ATOM     25  C   UNL     1      39.978  -2.549  14.691  0.00  0.00    +0.000 A 
ATOM     26  C   UNL     1      39.432  -2.827  15.924  0.00  0.00    +0.000 A 
ATOM     27  C   UNL     1      38.135  -3.279  16.066  0.00  0.00    +0.000 A 
ATOM     28  C   UNL     1      37.406  -3.438  14.904  0.00  0.00    +0.000 A 
ATOM     29  C   UNL     1      37.942  -3.162  13.660  0.00  0.00    +0.000 A 
BRANCH  24  31
ATOM     30  C   UNL     1      39.323  -1.092  11.666  0.00  0.00    +0.000 C 
ATOM     31  C   UNL     1      39.814  -2.414  12.186  0.00  0.00    +0.000 C 
ENDBRANCH  24  31
ENDBRANCH  23  27
ENDBRANCH  22  23
ENDBRANCH  17  22
ENDBRANCH   1  20
TORSDOF 8
ENDMDL
