MODEL 1
REMARK VINA RESULT:      -8.3      0.000      0.000
REMARK  Name = 
REMARK  8 active torsions:
REMARK  status: ('A' for Active; 'I' for Inactive)
REMARK    1  A    between atoms: C_2  and  O_3
REMARK    2  A    between atoms: O_3  and  C_4
REMARK    3  A    between atoms: C_7  and  N_8
REMARK    4  A    between atoms: C_11  and  N_12
REMARK    5  A    between atoms: N_12  and  C_13
REMARK    6  A    between atoms: C_18  and  O_19
REMARK    7  A    between atoms: C_21  and  S_22
REMARK    8  A    between atoms: S_22  and  C_23
REMARK                            x       y       z     vdW  Elec       q    Type
REMARK                         _______ _______ _______ _____ _____    ______ ____
ROOT
ATOM      1  N   UNL     1      36.674   2.012  15.145  0.00  0.00    +0.000 N 
ATOM      2  C   UNL     1      35.748   3.071  14.967  0.00  0.00    +0.000 C 
ATOM      3  O   UNL     1      34.507   2.919  14.915  0.00  0.00    +0.000 OA
ATOM      4  C   UNL     1      36.446   4.317  14.858  0.00  0.00    +0.000 C 
ATOM      5  C   UNL     1      37.780   4.082  14.964  0.00  0.00    +0.000 C 
ATOM      6  C   UNL     1      37.961   2.648  15.145  0.00  0.00    +0.000 C 
ATOM      7  O   UNL     1      39.013   2.011  15.282  0.00  0.00    +0.000 OA
ENDROOT
BRANCH   1  11
ATOM      8  C   UNL     1      35.610  -2.028  15.730  0.00  0.00    +0.000 A 
ATOM      9  C   UNL     1      35.209  -1.061  16.587  0.00  0.00    +0.000 A 
ATOM     10  C   UNL     1      35.569   0.237  16.374  0.00  0.00    +0.000 A 
ATOM     11  C   UNL     1      36.350   0.638  15.288  0.00  0.00    +0.000 A 
ATOM     12  C   UNL     1      36.758  -0.346  14.419  0.00  0.00    +0.000 A 
ATOM     13  C   UNL     1      36.389  -1.678  14.639  0.00  0.00    +0.000 A 
BRANCH   8  14
ATOM     14  O   UNL     1      35.269  -3.365  15.905  0.00  0.00    +0.000 OA
BRANCH  14  16
ATOM     15  C   UNL     1      33.446  -4.456  14.737  0.00  0.00    +0.000 C 
ATOM     16  C   UNL     1      34.909  -4.221  14.870  0.00  0.00    +0.000 C 
ENDBRANCH  14  16
ENDBRANCH   8  14
ENDBRANCH   1  11
BRANCH   4  17
ATOM     17  N   UNL     1      35.855   5.586  14.663  0.00  0.00    +0.000 NA
BRANCH  17  18
ATOM     18  C   UNL     1      35.415   6.006  13.381  0.00  0.00    +0.000 A 
ATOM     19  C   UNL     1      36.114   5.657  12.261  0.00  0.00    +0.000 A 
ATOM     20  C   UNL     1      35.732   6.039  10.991  0.00  0.00    +0.000 A 
ATOM     21  C   UNL     1      34.588   6.808  10.854  0.00  0.00    +0.000 A 
ATOM     22  C   UNL     1      33.884   7.160  11.988  0.00  0.00    +0.000 A 
ATOM     23  C   UNL     1      34.275   6.774  13.245  0.00  0.00    +0.000 A 
BRANCH  23  24
ATOM     24  O   UNL     1      33.559   7.134  14.380  0.00  0.00    +0.000 OA
ATOM     25  C   UNL     1      33.636   8.466  14.820  0.00  0.00    +0.000 C 
ENDBRANCH  23  24
ENDBRANCH  17  18
ENDBRANCH   4  17
BRANCH   5  26
ATOM     26  S   UNL     1      38.944   5.415  14.867  0.00  0.00    +0.000 S 
BRANCH  26  27
ATOM     27  C   UNL     1      39.713   5.708  16.434  0.00  0.00    +0.000 A 
ATOM     28  C   UNL     1      39.020   5.442  17.629  0.00  0.00    +0.000 A 
ATOM     29  C   UNL     1      39.556   5.686  18.871  0.00  0.00    +0.000 A 
ATOM     30  C   UNL     1      40.821   6.215  19.018  0.00  0.00    +0.000 A 
ATOM     31  C   UNL     1      41.405   6.486  20.364  0.00  0.00    +0.000 C 
ATOM     32  C   UNL     1      41.518   6.485  17.861  0.00  0.00    +0.000 A 
ATOM     33  C   UNL     1      40.965   6.233  16.624  0.00  0.00    +0.000 A 
ENDBRANCH  26  27
ENDBRANCH   5  26
TORSDOF 8
ENDMDL
MODEL 2
REMARK VINA RESULT:      -7.9      1.609      2.188
REMARK  Name = 
REMARK  8 active torsions:
REMARK  status: ('A' for Active; 'I' for Inactive)
REMARK    1  A    between atoms: C_2  and  O_3
REMARK    2  A    between atoms: O_3  and  C_4
REMARK    3  A    between atoms: C_7  and  N_8
REMARK    4  A    between atoms: C_11  and  N_12
REMARK    5  A    between atoms: N_12  and  C_13
REMARK    6  A    between atoms: C_18  and  O_19
REMARK    7  A    between atoms: C_21  and  S_22
REMARK    8  A    between atoms: S_22  and  C_23
REMARK                            x       y       z     vdW  Elec       q    Type
REMARK                         _______ _______ _______ _____ _____    ______ ____
ROOT
ATOM      1  N   UNL     1      36.905   2.745  15.726  0.00  0.00    +0.000 N 
ATOM      2  C   UNL     1      36.732   3.384  14.472  0.00  0.00    +0.000 C 
ATOM      3  O   UNL     1      36.270   2.822  13.454  0.00  0.00    +0.000 OA
ATOM      4  C   UNL     1      37.160   4.748  14.555  0.00  0.00    +0.000 C 
ATOM      5  C   UNL     1      37.596   4.993  15.819  0.00  0.00    +0.000 C 
ATOM      6  C   UNL     1      37.451   3.760  16.582  0.00  0.00    +0.000 C 
ATOM      7  O   UNL     1      37.730   3.546  17.767  0.00  0.00    +0.000 OA
ENDROOT
BRANCH   1  11
ATOM      8  C   UNL     1      35.807  -1.214  16.683  0.00  0.00    +0.000 A 
ATOM      9  C   UNL     1      35.005  -0.166  16.982  0.00  0.00    +0.000 A 
ATOM     10  C   UNL     1      35.386   1.104  16.662  0.00  0.00    +0.000 A 
ATOM     11  C   UNL     1      36.593   1.393  16.022  0.00  0.00    +0.000 A 
ATOM     12  C   UNL     1      37.408   0.328  15.720  0.00  0.00    +0.000 A 
ATOM     13  C   UNL     1      37.016  -0.975  16.050  0.00  0.00    +0.000 A 
BRANCH   8  14
ATOM     14  O   UNL     1      35.462  -2.526  16.990  0.00  0.00    +0.000 OA
BRANCH  14  16
ATOM     15  C   UNL     1      36.208  -4.625  16.033  0.00  0.00    +0.000 C 
ATOM     16  C   UNL     1      35.221  -3.512  16.039  0.00  0.00    +0.000 C 
ENDBRANCH  14  16
ENDBRANCH   8  14
ENDBRANCH   1  11
BRANCH   4  17
ATOM     17  N   UNL     1      37.146   5.689  13.501  0.00  0.00    +0.000 NA
BRANCH  17  18
ATOM     18  C   UNL     1      35.927   6.189  12.974  0.00  0.00    +0.000 A 
ATOM     19  C   UNL     1      34.904   6.537  13.809  0.00  0.00    +0.000 A 
ATOM     20  C   UNL     1      33.698   7.029  13.351  0.00  0.00    +0.000 A 
ATOM     21  C   UNL     1      33.526   7.174  11.983  0.00  0.00    +0.000 A 
ATOM     22  C   UNL     1      34.562   6.822  11.143  0.00  0.00    +0.000 A 
ATOM     23  C   UNL     1      35.756   6.334  11.611  0.00  0.00    +0.000 A 
BRANCH  23  24
ATOM     24  O   UNL     1      36.793   5.981  10.756  0.00  0.00    +0.000 OA
ATOM     25  C   UNL     1      36.649   4.818   9.981  0.00  0.00    +0.000 C 
ENDBRANCH  23  24
ENDBRANCH  17  18
ENDBRANCH   4  17
BRANCH   5  26
ATOM     26  S   UNL     1      38.206   6.595  16.270  0.00  0.00    +0.000 S 
BRANCH  26  27
ATOM     27  C   UNL     1      39.473   6.474  17.500  0.00  0.00    +0.000 A 
ATOM     28  C   UNL     1      39.141   6.457  18.866  0.00  0.00    +0.000 A 
ATOM     29  C   UNL     1      40.087   6.402  19.863  0.00  0.00    +0.000 A 
ATOM     30  C   UNL     1      41.435   6.360  19.574  0.00  0.00    +0.000 A 
ATOM     31  C   UNL     1      42.464   6.305  20.652  0.00  0.00    +0.000 C 
ATOM     32  C   UNL     1      41.783   6.376  18.242  0.00  0.00    +0.000 A 
ATOM     33  C   UNL     1      40.821   6.431  17.256  0.00  0.00    +0.000 A 
ENDBRANCH  26  27
ENDBRANCH   5  26
TORSDOF 8
ENDMDL
MODEL 3
REMARK VINA RESULT:      -7.9      3.559      8.691
REMARK  Name = 
REMARK  8 active torsions:
REMARK  status: ('A' for Active; 'I' for Inactive)
REMARK    1  A    between atoms: C_2  and  O_3
REMARK    2  A    between atoms: O_3  and  C_4
REMARK    3  A    between atoms: C_7  and  N_8
REMARK    4  A    between atoms: C_11  and  N_12
REMARK    5  A    between atoms: N_12  and  C_13
REMARK    6  A    between atoms: C_18  and  O_19
REMARK    7  A    between atoms: C_21  and  S_22
REMARK    8  A    between atoms: S_22  and  C_23
REMARK                            x       y       z     vdW  Elec       q    Type
REMARK                         _______ _______ _______ _____ _____    ______ ____
ROOT
ATOM      1  N   UNL     1      38.213   4.004  16.101  0.00  0.00    +0.000 N 
ATOM      2  C   UNL     1      39.047   3.649  15.011  0.00  0.00    +0.000 C 
ATOM      3  O   UNL     1      40.111   4.240  14.718  0.00  0.00    +0.000 OA
ATOM      4  C   UNL     1      38.491   2.530  14.312  0.00  0.00    +0.000 C 
ATOM      5  C   UNL     1      37.334   2.163  14.925  0.00  0.00    +0.000 C 
ATOM      6  C   UNL     1      37.127   3.065  16.051  0.00  0.00    +0.000 C 
ATOM      7  O   UNL     1      36.200   3.082  16.868  0.00  0.00    +0.000 OA
ENDROOT
BRANCH   1  11
ATOM      8  C   UNL     1      38.814   7.281  18.688  0.00  0.00    +0.000 A 
ATOM      9  C   UNL     1      38.271   7.441  17.459  0.00  0.00    +0.000 A 
ATOM     10  C   UNL     1      38.089   6.364  16.643  0.00  0.00    +0.000 A 
ATOM     11  C   UNL     1      38.441   5.064  17.015  0.00  0.00    +0.000 A 
ATOM     12  C   UNL     1      38.994   4.903  18.263  0.00  0.00    +0.000 A 
ATOM     13  C   UNL     1      39.181   6.010  19.099  0.00  0.00    +0.000 A 
BRANCH   8  14
ATOM     14  O   UNL     1      39.021   8.348  19.555  0.00  0.00    +0.000 OA
BRANCH  14  16
ATOM     15  C   UNL     1      38.445  10.120  21.108  0.00  0.00    +0.000 C 
ATOM     16  C   UNL     1      38.029   8.905  20.356  0.00  0.00    +0.000 C 
ENDBRANCH  14  16
ENDBRANCH   8  14
ENDBRANCH   1  11
BRANCH   4  17
ATOM     17  N   UNL     1      39.040   1.908  13.168  0.00  0.00    +0.000 NA
BRANCH  17  18
ATOM     18  C   UNL     1      39.620   0.615  13.238  0.00  0.00    +0.000 A 
ATOM     19  C   UNL     1      40.359   0.246  14.325  0.00  0.00    +0.000 A 
ATOM     20  C   UNL     1      40.946  -0.998  14.444  0.00  0.00    +0.000 A 
ATOM     21  C   UNL     1      40.772  -1.907  13.412  0.00  0.00    +0.000 A 
ATOM     22  C   UNL     1      40.025  -1.530  12.315  0.00  0.00    +0.000 A 
ATOM     23  C   UNL     1      39.447  -0.291  12.209  0.00  0.00    +0.000 A 
BRANCH  23  24
ATOM     24  O   UNL     1      38.697   0.079  11.099  0.00  0.00    +0.000 OA
ATOM     25  C   UNL     1      39.380   0.460   9.932  0.00  0.00    +0.000 C 
ENDBRANCH  23  24
ENDBRANCH  17  18
ENDBRANCH   4  17
BRANCH   5  26
ATOM     26  S   UNL     1      36.377   0.803  14.311  0.00  0.00    +0.000 S 
BRANCH  26  27
ATOM     27  C   UNL     1      36.924  -0.729  15.005  0.00  0.00    +0.000 A 
ATOM     28  C   UNL     1      37.442  -0.775  16.312  0.00  0.00    +0.000 A 
ATOM     29  C   UNL     1      37.915  -1.932  16.887  0.00  0.00    +0.000 A 
ATOM     30  C   UNL     1      37.909  -3.129  16.202  0.00  0.00    +0.000 A 
ATOM     31  C   UNL     1      38.426  -4.385  16.820  0.00  0.00    +0.000 C 
ATOM     32  C   UNL     1      37.407  -3.107  14.920  0.00  0.00    +0.000 A 
ATOM     33  C   UNL     1      36.937  -1.939  14.361  0.00  0.00    +0.000 A 
ENDBRANCH  26  27
ENDBRANCH   5  26
TORSDOF 8
ENDMDL
MODEL 4
REMARK VINA RESULT:      -7.6      2.672      7.432
REMARK  Name = 
REMARK  8 active torsions:
REMARK  status: ('A' for Active; 'I' for Inactive)
REMARK    1  A    between atoms: C_2  and  O_3
REMARK    2  A    between atoms: O_3  and  C_4
REMARK    3  A    between atoms: C_7  and  N_8
REMARK    4  A    between atoms: C_11  and  N_12
REMARK    5  A    between atoms: N_12  and  C_13
REMARK    6  A    between atoms: C_18  and  O_19
REMARK    7  A    between atoms: C_21  and  S_22
REMARK    8  A    between atoms: S_22  and  C_23
REMARK                            x       y       z     vdW  Elec       q    Type
REMARK                         _______ _______ _______ _____ _____    ______ ____
ROOT
ATOM      1  N   UNL     1      38.606   5.834  16.489  0.00  0.00    +0.000 N 
ATOM      2  C   UNL     1      38.137   6.770  15.534  0.00  0.00    +0.000 C 
ATOM      3  O   UNL     1      38.515   7.962  15.471  0.00  0.00    +0.000 OA
ATOM      4  C   UNL     1      37.180   6.148  14.668  0.00  0.00    +0.000 C 
ATOM      5  C   UNL     1      37.031   4.851  15.042  0.00  0.00    +0.000 C 
ATOM      6  C   UNL     1      37.909   4.617  16.181  0.00  0.00    +0.000 C 
ATOM      7  O   UNL     1      38.080   3.576  16.827  0.00  0.00    +0.000 OA
ENDROOT
BRANCH   1  11
ATOM      8  C   UNL     1      41.290   6.597  19.653  0.00  0.00    +0.000 A 
ATOM      9  C   UNL     1      39.958   6.483  19.868  0.00  0.00    +0.000 A 
ATOM     10  C   UNL     1      39.113   6.238  18.826  0.00  0.00    +0.000 A 
ATOM     11  C   UNL     1      39.558   6.091  17.509  0.00  0.00    +0.000 A 
ATOM     12  C   UNL     1      40.910   6.208  17.293  0.00  0.00    +0.000 A 
ATOM     13  C   UNL     1      41.776   6.461  18.363  0.00  0.00    +0.000 A 
BRANCH   8  14
ATOM     14  O   UNL     1      42.190   6.848  20.683  0.00  0.00    +0.000 OA
BRANCH  14  16
ATOM     15  C   UNL     1      43.984   5.604  21.739  0.00  0.00    +0.000 C 
ATOM     16  C   UNL     1      43.537   6.505  20.642  0.00  0.00    +0.000 C 
ENDBRANCH  14  16
ENDBRANCH   8  14
ENDBRANCH   1  11
BRANCH   4  17
ATOM     17  N   UNL     1      36.492   6.774  13.604  0.00  0.00    +0.000 NA
BRANCH  17  18
ATOM     18  C   UNL     1      35.666   7.906  13.823  0.00  0.00    +0.000 A 
ATOM     19  C   UNL     1      34.580   7.821  14.646  0.00  0.00    +0.000 A 
ATOM     20  C   UNL     1      33.743   8.891  14.894  0.00  0.00    +0.000 A 
ATOM     21  C   UNL     1      34.025  10.100  14.279  0.00  0.00    +0.000 A 
ATOM     22  C   UNL     1      35.124  10.182  13.448  0.00  0.00    +0.000 A 
ATOM     23  C   UNL     1      35.947   9.112  13.210  0.00  0.00    +0.000 A 
BRANCH  23  24
ATOM     24  O   UNL     1      37.051   9.205  12.371  0.00  0.00    +0.000 OA
ATOM     25  C   UNL     1      38.102  10.059  12.746  0.00  0.00    +0.000 C 
ENDBRANCH  23  24
ENDBRANCH  17  18
ENDBRANCH   4  17
BRANCH   5  26
ATOM     26  S   UNL     1      35.909   3.783  14.179  0.00  0.00    +0.000 S 
BRANCH  26  27
ATOM     27  C   UNL     1      35.671   2.264  15.054  0.00  0.00    +0.000 A 
ATOM     28  C   UNL     1      34.927   2.238  16.248  0.00  0.00    +0.000 A 
ATOM     29  C   UNL     1      34.742   1.094  16.987  0.00  0.00    +0.000 A 
ATOM     30  C   UNL     1      35.285  -0.112  16.593  0.00  0.00    +0.000 A 
ATOM     31  C   UNL     1      35.090  -1.356  17.395  0.00  0.00    +0.000 C 
ATOM     32  C   UNL     1      36.018  -0.110  15.428  0.00  0.00    +0.000 A 
ATOM     33  C   UNL     1      36.192   1.047  14.700  0.00  0.00    +0.000 A 
ENDBRANCH  26  27
ENDBRANCH   5  26
TORSDOF 8
ENDMDL
MODEL 5
REMARK VINA RESULT:      -7.6      2.318      5.787
REMARK  Name = 
REMARK  8 active torsions:
REMARK  status: ('A' for Active; 'I' for Inactive)
REMARK    1  A    between atoms: C_2  and  O_3
REMARK    2  A    between atoms: O_3  and  C_4
REMARK    3  A    between atoms: C_7  and  N_8
REMARK    4  A    between atoms: C_11  and  N_12
REMARK    5  A    between atoms: N_12  and  C_13
REMARK    6  A    between atoms: C_18  and  O_19
REMARK    7  A    between atoms: C_21  and  S_22
REMARK    8  A    between atoms: S_22  and  C_23
REMARK                            x       y       z     vdW  Elec       q    Type
REMARK                         _______ _______ _______ _____ _____    ______ ____
ROOT
ATOM      1  N   UNL     1      36.786   3.771  15.665  0.00  0.00    +0.000 N 
ATOM      2  C   UNL     1      37.797   4.409  16.426  0.00  0.00    +0.000 C 
ATOM      3  O   UNL     1      38.400   3.873  17.383  0.00  0.00    +0.000 OA
ATOM      4  C   UNL     1      38.014   5.737  15.936  0.00  0.00    +0.000 C 
ATOM      5  C   UNL     1      37.176   5.958  14.889  0.00  0.00    +0.000 C 
ATOM      6  C   UNL     1      36.390   4.748  14.690  0.00  0.00    +0.000 C 
ATOM      7  O   UNL     1      35.513   4.524  13.847  0.00  0.00    +0.000 OA
ENDROOT
BRANCH   1  11
ATOM      8  C   UNL     1      35.487  -0.216  16.129  0.00  0.00    +0.000 A 
ATOM      9  C   UNL     1      36.525   0.099  15.320  0.00  0.00    +0.000 A 
ATOM     10  C   UNL     1      36.923   1.397  15.188  0.00  0.00    +0.000 A 
ATOM     11  C   UNL     1      36.302   2.452  15.861  0.00  0.00    +0.000 A 
ATOM     12  C   UNL     1      35.246   2.130  16.682  0.00  0.00    +0.000 A 
ATOM     13  C   UNL     1      34.839   0.798  16.815  0.00  0.00    +0.000 A 
BRANCH   8  14
ATOM     14  O   UNL     1      35.045  -1.524  16.295  0.00  0.00    +0.000 OA
BRANCH  14  16
ATOM     15  C   UNL     1      35.331  -3.516  14.942  0.00  0.00    +0.000 C 
ATOM     16  C   UNL     1      35.824  -2.648  16.045  0.00  0.00    +0.000 C 
ENDBRANCH  14  16
ENDBRANCH   8  14
ENDBRANCH   1  11
BRANCH   4  17
ATOM     17  N   UNL     1      38.937   6.673  16.454  0.00  0.00    +0.000 NA
BRANCH  17  18
ATOM     18  C   UNL     1      38.856   7.126  17.796  0.00  0.00    +0.000 A 
ATOM     19  C   UNL     1      37.801   7.891  18.205  0.00  0.00    +0.000 A 
ATOM     20  C   UNL     1      37.673   8.358  19.498  0.00  0.00    +0.000 A 
ATOM     21  C   UNL     1      38.659   8.030  20.415  0.00  0.00    +0.000 A 
ATOM     22  C   UNL     1      39.723   7.257  19.997  0.00  0.00    +0.000 A 
ATOM     23  C   UNL     1      39.839   6.799  18.709  0.00  0.00    +0.000 A 
BRANCH  23  24
ATOM     24  O   UNL     1      40.915   6.021  18.299  0.00  0.00    +0.000 OA
ATOM     25  C   UNL     1      42.188   6.616  18.257  0.00  0.00    +0.000 C 
ENDBRANCH  23  24
ENDBRANCH  17  18
ENDBRANCH   4  17
BRANCH   5  26
ATOM     26  S   UNL     1      37.178   7.516  14.043  0.00  0.00    +0.000 S 
BRANCH  26  27
ATOM     27  C   UNL     1      36.171   8.703  14.884  0.00  0.00    +0.000 A 
ATOM     28  C   UNL     1      34.776   8.538  14.946  0.00  0.00    +0.000 A 
ATOM     29  C   UNL     1      33.943   9.448  15.554  0.00  0.00    +0.000 A 
ATOM     30  C   UNL     1      34.438  10.591  16.147  0.00  0.00    +0.000 A 
ATOM     31  C   UNL     1      33.537  11.583  16.804  0.00  0.00    +0.000 C 
ATOM     32  C   UNL     1      35.802  10.773  16.098  0.00  0.00    +0.000 A 
ATOM     33  C   UNL     1      36.621   9.850  15.484  0.00  0.00    +0.000 A 
ENDBRANCH  26  27
ENDBRANCH   5  26
TORSDOF 8
ENDMDL
MODEL 6
REMARK VINA RESULT:      -7.5      2.159      5.581
REMARK  Name = 
REMARK  8 active torsions:
REMARK  status: ('A' for Active; 'I' for Inactive)
REMARK    1  A    between atoms: C_2  and  O_3
REMARK    2  A    between atoms: O_3  and  C_4
REMARK    3  A    between atoms: C_7  and  N_8
REMARK    4  A    between atoms: C_11  and  N_12
REMARK    5  A    between atoms: N_12  and  C_13
REMARK    6  A    between atoms: C_18  and  O_19
REMARK    7  A    between atoms: C_21  and  S_22
REMARK    8  A    between atoms: S_22  and  C_23
REMARK                            x       y       z     vdW  Elec       q    Type
REMARK                         _______ _______ _______ _____ _____    ______ ____
ROOT
ATOM      1  N   UNL     1      36.976   3.473  15.693  0.00  0.00    +0.000 N 
ATOM      2  C   UNL     1      37.689   4.209  16.672  0.00  0.00    +0.000 C 
ATOM      3  O   UNL     1      38.133   3.720  17.735  0.00  0.00    +0.000 OA
ATOM      4  C   UNL     1      37.820   5.574  16.259  0.00  0.00    +0.000 C 
ATOM      5  C   UNL     1      37.215   5.726  15.052  0.00  0.00    +0.000 C 
ATOM      6  C   UNL     1      36.674   4.429  14.665  0.00  0.00    +0.000 C 
ATOM      7  O   UNL     1      36.050   4.125  13.641  0.00  0.00    +0.000 OA
ENDROOT
BRANCH   1  11
ATOM      8  C   UNL     1      35.858  -0.583  15.996  0.00  0.00    +0.000 A 
ATOM      9  C   UNL     1      35.139   0.395  16.596  0.00  0.00    +0.000 A 
ATOM     10  C   UNL     1      35.525   1.698  16.482  0.00  0.00    +0.000 A 
ATOM     11  C   UNL     1      36.653   2.094  15.759  0.00  0.00    +0.000 A 
ATOM     12  C   UNL     1      37.382   1.099  15.151  0.00  0.00    +0.000 A 
ATOM     13  C   UNL     1      36.986  -0.238  15.270  0.00  0.00    +0.000 A 
BRANCH   8  14
ATOM     14  O   UNL     1      35.505  -1.925  16.085  0.00  0.00    +0.000 OA
BRANCH  14  16
ATOM     15  C   UNL     1      34.571  -3.883  15.001  0.00  0.00    +0.000 C 
ATOM     16  C   UNL     1      35.625  -2.834  15.039  0.00  0.00    +0.000 C 
ENDBRANCH  14  16
ENDBRANCH   8  14
ENDBRANCH   1  11
BRANCH   4  17
ATOM     17  N   UNL     1      38.461   6.604  16.985  0.00  0.00    +0.000 NA
BRANCH  17  18
ATOM     18  C   UNL     1      39.851   6.556  17.263  0.00  0.00    +0.000 A 
ATOM     19  C   UNL     1      40.762   6.596  16.247  0.00  0.00    +0.000 A 
ATOM     20  C   UNL     1      42.125   6.552  16.461  0.00  0.00    +0.000 A 
ATOM     21  C   UNL     1      42.581   6.465  17.767  0.00  0.00    +0.000 A 
ATOM     22  C   UNL     1      41.657   6.425  18.792  0.00  0.00    +0.000 A 
ATOM     23  C   UNL     1      40.305   6.469  18.565  0.00  0.00    +0.000 A 
BRANCH  23  24
ATOM     24  O   UNL     1      39.383   6.427  19.604  0.00  0.00    +0.000 OA
ATOM     25  C   UNL     1      39.233   7.570  20.406  0.00  0.00    +0.000 C 
ENDBRANCH  23  24
ENDBRANCH  17  18
ENDBRANCH   4  17
BRANCH   5  26
ATOM     26  S   UNL     1      37.186   7.305  14.246  0.00  0.00    +0.000 S 
BRANCH  26  27
ATOM     27  C   UNL     1      36.027   8.395  15.019  0.00  0.00    +0.000 A 
ATOM     28  C   UNL     1      36.454   9.315  15.994  0.00  0.00    +0.000 A 
ATOM     29  C   UNL     1      35.591  10.159  16.653  0.00  0.00    +0.000 A 
ATOM     30  C   UNL     1      34.237  10.150  16.390  0.00  0.00    +0.000 A 
ATOM     31  C   UNL     1      33.296  11.061  17.106  0.00  0.00    +0.000 C 
ATOM     32  C   UNL     1      33.796   9.257  15.439  0.00  0.00    +0.000 A 
ATOM     33  C   UNL     1      34.676   8.419  14.789  0.00  0.00    +0.000 A 
ENDBRANCH  26  27
ENDBRANCH   5  26
TORSDOF 8
ENDMDL
MODEL 7
REMARK VINA RESULT:      -7.5      2.101      2.802
REMARK  Name = 
REMARK  8 active torsions:
REMARK  status: ('A' for Active; 'I' for Inactive)
REMARK    1  A    between atoms: C_2  and  O_3
REMARK    2  A    between atoms: O_3  and  C_4
REMARK    3  A    between atoms: C_7  and  N_8
REMARK    4  A    between atoms: C_11  and  N_12
REMARK    5  A    between atoms: N_12  and  C_13
REMARK    6  A    between atoms: C_18  and  O_19
REMARK    7  A    between atoms: C_21  and  S_22
REMARK    8  A    between atoms: S_22  and  C_23
REMARK                            x       y       z     vdW  Elec       q    Type
REMARK                         _______ _______ _______ _____ _____    ______ ____
ROOT
ATOM      1  N   UNL     1      36.959   3.644  15.664  0.00  0.00    +0.000 N 
ATOM      2  C   UNL     1      36.572   4.498  14.601  0.00  0.00    +0.000 C 
ATOM      3  O   UNL     1      35.847   4.145  13.643  0.00  0.00    +0.000 OA
ATOM      4  C   UNL     1      37.131   5.803  14.793  0.00  0.00    +0.000 C 
ATOM      5  C   UNL     1      37.855   5.803  15.942  0.00  0.00    +0.000 C 
ATOM      6  C   UNL     1      37.771   4.467  16.517  0.00  0.00    +0.000 C 
ATOM      7  O   UNL     1      38.284   4.037  17.557  0.00  0.00    +0.000 OA
ENDROOT
BRANCH   1  11
ATOM      8  C   UNL     1      35.734  -0.355  16.212  0.00  0.00    +0.000 A 
ATOM      9  C   UNL     1      35.067   0.673  16.786  0.00  0.00    +0.000 A 
ATOM     10  C   UNL     1      35.486   1.956  16.593  0.00  0.00    +0.000 A 
ATOM     11  C   UNL     1      36.598   2.280  15.811  0.00  0.00    +0.000 A 
ATOM     12  C   UNL     1      37.275   1.234  15.230  0.00  0.00    +0.000 A 
ATOM     13  C   UNL     1      36.844  -0.082  15.430  0.00  0.00    +0.000 A 
BRANCH   8  14
ATOM     14  O   UNL     1      35.346  -1.680  16.381  0.00  0.00    +0.000 OA
BRANCH  14  16
ATOM     15  C   UNL     1      36.728  -1.843  18.366  0.00  0.00    +0.000 C 
ATOM     16  C   UNL     1      35.764  -2.487  17.434  0.00  0.00    +0.000 C 
ENDBRANCH  14  16
ENDBRANCH   8  14
ENDBRANCH   1  11
BRANCH   4  17
ATOM     17  N   UNL     1      36.970   6.911  13.930  0.00  0.00    +0.000 NA
BRANCH  17  18
ATOM     18  C   UNL     1      35.977   7.896  14.171  0.00  0.00    +0.000 A 
ATOM     19  C   UNL     1      34.691   7.529  14.445  0.00  0.00    +0.000 A 
ATOM     20  C   UNL     1      33.687   8.445  14.687  0.00  0.00    +0.000 A 
ATOM     21  C   UNL     1      34.006   9.793  14.649  0.00  0.00    +0.000 A 
ATOM     22  C   UNL     1      35.307  10.159  14.372  0.00  0.00    +0.000 A 
ATOM     23  C   UNL     1      36.296   9.239  14.133  0.00  0.00    +0.000 A 
BRANCH  23  24
ATOM     24  O   UNL     1      37.603   9.619  13.855  0.00  0.00    +0.000 OA
ATOM     25  C   UNL     1      38.133  10.727  14.538  0.00  0.00    +0.000 C 
ENDBRANCH  23  24
ENDBRANCH  17  18
ENDBRANCH   4  17
BRANCH   5  26
ATOM     26  S   UNL     1      38.694   7.268  16.483  0.00  0.00    +0.000 S 
BRANCH  26  27
ATOM     27  C   UNL     1      39.884   6.898  17.739  0.00  0.00    +0.000 A 
ATOM     28  C   UNL     1      39.492   6.801  19.086  0.00  0.00    +0.000 A 
ATOM     29  C   UNL     1      40.380   6.552  20.105  0.00  0.00    +0.000 A 
ATOM     30  C   UNL     1      41.727   6.383  19.860  0.00  0.00    +0.000 A 
ATOM     31  C   UNL     1      42.696   6.118  20.964  0.00  0.00    +0.000 C 
ATOM     32  C   UNL     1      42.134   6.475  18.547  0.00  0.00    +0.000 A 
ATOM     33  C   UNL     1      41.229   6.724  17.539  0.00  0.00    +0.000 A 
ENDBRANCH  26  27
ENDBRANCH   5  26
TORSDOF 8
ENDMDL
MODEL 8
REMARK VINA RESULT:      -7.5     24.297     26.535
REMARK  Name = 
REMARK  8 active torsions:
REMARK  status: ('A' for Active; 'I' for Inactive)
REMARK    1  A    between atoms: C_2  and  O_3
REMARK    2  A    between atoms: O_3  and  C_4
REMARK    3  A    between atoms: C_7  and  N_8
REMARK    4  A    between atoms: C_11  and  N_12
REMARK    5  A    between atoms: N_12  and  C_13
REMARK    6  A    between atoms: C_18  and  O_19
REMARK    7  A    between atoms: C_21  and  S_22
REMARK    8  A    between atoms: S_22  and  C_23
REMARK                            x       y       z     vdW  Elec       q    Type
REMARK                         _______ _______ _______ _____ _____    ______ ____
ROOT
ATOM      1  N   UNL     1      15.085  -0.161  27.026  0.00  0.00    +0.000 N 
ATOM      2  C   UNL     1      13.779  -0.427  26.545  0.00  0.00    +0.000 C 
ATOM      3  O   UNL     1      13.517  -0.756  25.365  0.00  0.00    +0.000 OA
ATOM      4  C   UNL     1      12.825  -0.264  27.600  0.00  0.00    +0.000 C 
ATOM      5  C   UNL     1      13.485   0.094  28.733  0.00  0.00    +0.000 C 
ATOM      6  C   UNL     1      14.904   0.169  28.412  0.00  0.00    +0.000 C 
ATOM      7  O   UNL     1      15.851   0.461  29.152  0.00  0.00    +0.000 OA
ENDROOT
BRANCH   1  11
ATOM      8  C   UNL     1      18.652  -0.140  24.773  0.00  0.00    +0.000 A 
ATOM      9  C   UNL     1      18.071   1.010  25.188  0.00  0.00    +0.000 A 
ATOM     10  C   UNL     1      16.917   0.974  25.914  0.00  0.00    +0.000 A 
ATOM     11  C   UNL     1      16.281  -0.219  26.266  0.00  0.00    +0.000 A 
ATOM     12  C   UNL     1      16.872  -1.387  25.842  0.00  0.00    +0.000 A 
ATOM     13  C   UNL     1      18.055  -1.347  25.097  0.00  0.00    +0.000 A 
BRANCH   8  14
ATOM     14  O   UNL     1      19.827  -0.153  24.030  0.00  0.00    +0.000 OA
BRANCH  14  16
ATOM     15  C   UNL     1      20.944  -0.734  21.958  0.00  0.00    +0.000 C 
ATOM     16  C   UNL     1      20.188  -1.176  23.160  0.00  0.00    +0.000 C 
ENDBRANCH  14  16
ENDBRANCH   8  14
ENDBRANCH   1  11
BRANCH   4  17
ATOM     17  N   UNL     1      11.427  -0.435  27.491  0.00  0.00    +0.000 NA
BRANCH  17  18
ATOM     18  C   UNL     1      10.652   0.365  26.612  0.00  0.00    +0.000 A 
ATOM     19  C   UNL     1      10.661   1.725  26.726  0.00  0.00    +0.000 A 
ATOM     20  C   UNL     1       9.926   2.550  25.898  0.00  0.00    +0.000 A 
ATOM     21  C   UNL     1       9.149   1.965  24.910  0.00  0.00    +0.000 A 
ATOM     22  C   UNL     1       9.143   0.590  24.799  0.00  0.00    +0.000 A 
ATOM     23  C   UNL     1       9.878  -0.219  25.628  0.00  0.00    +0.000 A 
BRANCH  23  24
ATOM     24  O   UNL     1       9.864  -1.603  25.507  0.00  0.00    +0.000 OA
ATOM     25  C   UNL     1      10.467  -2.178  24.376  0.00  0.00    +0.000 C 
ENDBRANCH  23  24
ENDBRANCH  17  18
ENDBRANCH   4  17
BRANCH   5  26
ATOM     26  S   UNL     1      12.600   0.385  30.242  0.00  0.00    +0.000 S 
BRANCH  26  27
ATOM     27  C   UNL     1      13.567  -0.078  31.649  0.00  0.00    +0.000 A 
ATOM     28  C   UNL     1      13.591  -1.413  32.090  0.00  0.00    +0.000 A 
ATOM     29  C   UNL     1      14.294  -1.821  33.199  0.00  0.00    +0.000 A 
ATOM     30  C   UNL     1      15.027  -0.928  33.954  0.00  0.00    +0.000 A 
ATOM     31  C   UNL     1      15.788  -1.365  35.161  0.00  0.00    +0.000 C 
ATOM     32  C   UNL     1      15.017   0.386  33.541  0.00  0.00    +0.000 A 
ATOM     33  C   UNL     1      14.306   0.776  32.427  0.00  0.00    +0.000 A 
ENDBRANCH  26  27
ENDBRANCH   5  26
TORSDOF 8
ENDMDL
MODEL 9
REMARK VINA RESULT:      -7.4      1.313      6.072
REMARK  Name = 
REMARK  8 active torsions:
REMARK  status: ('A' for Active; 'I' for Inactive)
REMARK    1  A    between atoms: C_2  and  O_3
REMARK    2  A    between atoms: O_3  and  C_4
REMARK    3  A    between atoms: C_7  and  N_8
REMARK    4  A    between atoms: C_11  and  N_12
REMARK    5  A    between atoms: N_12  and  C_13
REMARK    6  A    between atoms: C_18  and  O_19
REMARK    7  A    between atoms: C_21  and  S_22
REMARK    8  A    between atoms: S_22  and  C_23
REMARK                            x       y       z     vdW  Elec       q    Type
REMARK                         _______ _______ _______ _____ _____    ______ ____
ROOT
ATOM      1  N   UNL     1      36.623   2.104  15.063  0.00  0.00    +0.000 N 
ATOM      2  C   UNL     1      37.882   2.743  15.189  0.00  0.00    +0.000 C 
ATOM      3  O   UNL     1      38.958   2.140  15.403  0.00  0.00    +0.000 OA
ATOM      4  C   UNL     1      37.730   4.159  15.036  0.00  0.00    +0.000 C 
ATOM      5  C   UNL     1      36.418   4.436  14.815  0.00  0.00    +0.000 C 
ATOM      6  C   UNL     1      35.693   3.172  14.825  0.00  0.00    +0.000 C 
ATOM      7  O   UNL     1      34.483   2.972  14.664  0.00  0.00    +0.000 OA
ENDROOT
BRANCH   1  11
ATOM      8  C   UNL     1      35.797  -2.009  15.505  0.00  0.00    +0.000 A 
ATOM      9  C   UNL     1      35.304  -1.093  16.370  0.00  0.00    +0.000 A 
ATOM     10  C   UNL     1      35.588   0.231  16.204  0.00  0.00    +0.000 A 
ATOM     11  C   UNL     1      36.382   0.709  15.158  0.00  0.00    +0.000 A 
ATOM     12  C   UNL     1      36.883  -0.224  14.282  0.00  0.00    +0.000 A 
ATOM     13  C   UNL     1      36.592  -1.581  14.454  0.00  0.00    +0.000 A 
BRANCH   8  14
ATOM     14  O   UNL     1      35.536  -3.369  15.635  0.00  0.00    +0.000 OA
BRANCH  14  16
ATOM     15  C   UNL     1      33.364  -4.330  15.147  0.00  0.00    +0.000 C 
ATOM     16  C   UNL     1      34.776  -4.106  14.733  0.00  0.00    +0.000 C 
ENDBRANCH  14  16
ENDBRANCH   8  14
ENDBRANCH   1  11
BRANCH   4  17
ATOM     17  N   UNL     1      38.764   5.118  15.111  0.00  0.00    +0.000 NA
BRANCH  17  18
ATOM     18  C   UNL     1      39.360   5.467  16.350  0.00  0.00    +0.000 A 
ATOM     19  C   UNL     1      38.736   5.166  17.527  0.00  0.00    +0.000 A 
ATOM     20  C   UNL     1      39.270   5.482  18.760  0.00  0.00    +0.000 A 
ATOM     21  C   UNL     1      40.495   6.130  18.797  0.00  0.00    +0.000 A 
ATOM     22  C   UNL     1      41.122   6.433  17.606  0.00  0.00    +0.000 A 
ATOM     23  C   UNL     1      40.580   6.114  16.387  0.00  0.00    +0.000 A 
BRANCH  23  24
ATOM     24  O   UNL     1      41.221   6.423  15.193  0.00  0.00    +0.000 OA
ATOM     25  C   UNL     1      42.626   6.421  15.172  0.00  0.00    +0.000 C 
ENDBRANCH  23  24
ENDBRANCH  17  18
ENDBRANCH   4  17
BRANCH   5  26
ATOM     26  S   UNL     1      35.872   6.107  14.585  0.00  0.00    +0.000 S 
BRANCH  26  27
ATOM     27  C   UNL     1      35.316   6.376  12.928  0.00  0.00    +0.000 A 
ATOM     28  C   UNL     1      36.081   5.926  11.837  0.00  0.00    +0.000 A 
ATOM     29  C   UNL     1      35.715   6.141  10.529  0.00  0.00    +0.000 A 
ATOM     30  C   UNL     1      34.558   6.821  10.209  0.00  0.00    +0.000 A 
ATOM     31  C   UNL     1      34.159   7.061   8.791  0.00  0.00    +0.000 C 
ATOM     32  C   UNL     1      33.793   7.272  11.262  0.00  0.00    +0.000 A 
ATOM     33  C   UNL     1      34.176   7.047  12.566  0.00  0.00    +0.000 A 
ENDBRANCH  26  27
ENDBRANCH   5  26
TORSDOF 8
ENDMDL
MODEL 10
REMARK VINA RESULT:      -7.3      3.465      8.601
REMARK  Name = 
REMARK  8 active torsions:
REMARK  status: ('A' for Active; 'I' for Inactive)
REMARK    1  A    between atoms: C_2  and  O_3
REMARK    2  A    between atoms: O_3  and  C_4
REMARK    3  A    between atoms: C_7  and  N_8
REMARK    4  A    between atoms: C_11  and  N_12
REMARK    5  A    between atoms: N_12  and  C_13
REMARK    6  A    between atoms: C_18  and  O_19
REMARK    7  A    between atoms: C_21  and  S_22
REMARK    8  A    between atoms: S_22  and  C_23
REMARK                            x       y       z     vdW  Elec       q    Type
REMARK                         _______ _______ _______ _____ _____    ______ ____
ROOT
ATOM      1  N   UNL     1      37.991   3.597  15.840  0.00  0.00    +0.000 N 
ATOM      2  C   UNL     1      37.311   2.458  16.340  0.00  0.00    +0.000 C 
ATOM      3  O   UNL     1      36.860   2.362  17.504  0.00  0.00    +0.000 OA
ATOM      4  C   UNL     1      37.225   1.454  15.322  0.00  0.00    +0.000 C 
ATOM      5  C   UNL     1      37.825   1.921  14.196  0.00  0.00    +0.000 C 
ATOM      6  C   UNL     1      38.317   3.262  14.483  0.00  0.00    +0.000 C 
ATOM      7  O   UNL     1      38.922   4.041  13.737  0.00  0.00    +0.000 OA
ENDROOT
BRANCH   1  11
ATOM      8  C   UNL     1      38.882   7.024  18.133  0.00  0.00    +0.000 A 
ATOM      9  C   UNL     1      39.135   5.778  18.597  0.00  0.00    +0.000 A 
ATOM     10  C   UNL     1      38.835   4.688  17.835  0.00  0.00    +0.000 A 
ATOM     11  C   UNL     1      38.266   4.787  16.563  0.00  0.00    +0.000 A 
ATOM     12  C   UNL     1      38.008   6.053  16.094  0.00  0.00    +0.000 A 
ATOM     13  C   UNL     1      38.315   7.171  16.878  0.00  0.00    +0.000 A 
BRANCH   8  14
ATOM     14  O   UNL     1      39.168   8.166  18.874  0.00  0.00    +0.000 OA
BRANCH  14  16
ATOM     15  C   UNL     1      37.447   8.966  20.383  0.00  0.00    +0.000 C 
ATOM     16  C   UNL     1      38.790   8.351  20.199  0.00  0.00    +0.000 C 
ENDBRANCH  14  16
ENDBRANCH   8  14
ENDBRANCH   1  11
BRANCH   4  17
ATOM     17  N   UNL     1      36.626   0.182  15.459  0.00  0.00    +0.000 NA
BRANCH  17  18
ATOM     18  C   UNL     1      37.243  -0.847  16.217  0.00  0.00    +0.000 A 
ATOM     19  C   UNL     1      38.390  -1.440  15.774  0.00  0.00    +0.000 A 
ATOM     20  C   UNL     1      39.031  -2.444  16.471  0.00  0.00    +0.000 A 
ATOM     21  C   UNL     1      38.481  -2.863  17.673  0.00  0.00    +0.000 A 
ATOM     22  C   UNL     1      37.322  -2.261  18.117  0.00  0.00    +0.000 A 
ATOM     23  C   UNL     1      36.695  -1.264  17.415  0.00  0.00    +0.000 A 
BRANCH  23  24
ATOM     24  O   UNL     1      35.527  -0.665  17.871  0.00  0.00    +0.000 OA
ATOM     25  C   UNL     1      35.456  -0.290  19.224  0.00  0.00    +0.000 C 
ENDBRANCH  23  24
ENDBRANCH  17  18
ENDBRANCH   4  17
BRANCH   5  26
ATOM     26  S   UNL     1      37.903   0.924  12.732  0.00  0.00    +0.000 S 
BRANCH  26  27
ATOM     27  C   UNL     1      39.267  -0.200  12.797  0.00  0.00    +0.000 A 
ATOM     28  C   UNL     1      40.462   0.164  13.444  0.00  0.00    +0.000 A 
ATOM     29  C   UNL     1      41.565  -0.656  13.492  0.00  0.00    +0.000 A 
ATOM     30  C   UNL     1      41.561  -1.900  12.897  0.00  0.00    +0.000 A 
ATOM     31  C   UNL     1      42.758  -2.791  12.942  0.00  0.00    +0.000 C 
ATOM     32  C   UNL     1      40.402  -2.278  12.257  0.00  0.00    +0.000 A 
ATOM     33  C   UNL     1      39.306  -1.443  12.220  0.00  0.00    +0.000 A 
ENDBRANCH  26  27
ENDBRANCH   5  26
TORSDOF 8
ENDMDL
