MODEL 1
REMARK VINA RESULT:      -6.1      0.000      0.000
REMARK  Name = 
REMARK  1 active torsions:
REMARK  status: ('A' for Active; 'I' for Inactive)
REMARK    1  A    between atoms: C_2  and  N_3
REMARK                            x       y       z     vdW  Elec       q    Type
REMARK                         _______ _______ _______ _____ _____    ______ ____
ROOT
ATOM      1  N   UNL     1      21.720   1.941  16.389  0.00  0.00    +0.000 N 
ATOM      2  C   UNL     1      22.732   1.984  17.347  0.00  0.00    +0.000 C 
ATOM      3  O   UNL     1      23.135   1.188  18.161  0.00  0.00    +0.000 OA
ATOM      4  C   UNL     1      23.331   3.422  17.166  0.00  0.00    +0.000 C 
ATOM      5  C   UNL     1      24.916   3.000  17.384  0.00  0.00    +0.000 C 
ATOM      6  C   UNL     1      25.615   4.252  16.983  0.00  0.00    +0.000 A 
ATOM      7  C   UNL     1      25.405   4.663  15.681  0.00  0.00    +0.000 A 
ATOM      8  N   UNL     1      26.105   5.777  15.525  0.00  0.00    +0.000 NA
ATOM      9  C   UNL     1      26.752   6.097  16.666  0.00  0.00    +0.000 A 
ATOM     10  C   UNL     1      27.592   7.125  17.039  0.00  0.00    +0.000 A 
ATOM     11  C   UNL     1      28.131   7.207  18.322  0.00  0.00    +0.000 A 
ATOM     12  C   UNL     1      27.815   6.231  19.246  0.00  0.00    +0.000 A 
ATOM     13  C   UNL     1      26.972   5.181  18.906  0.00  0.00    +0.000 A 
ATOM     14  C   UNL     1      26.464   5.145  17.623  0.00  0.00    +0.000 A 
ATOM     15  C   UNL     1      24.506   3.786  14.885  0.00  0.00    +0.000 C 
ATOM     16  N   UNL     1      23.374   3.339  15.598  0.00  0.00    +0.000 N 
ATOM     17  C   UNL     1      22.127   2.781  15.314  0.00  0.00    +0.000 C 
ATOM     18  S   UNL     1      21.287   3.077  13.933  0.00  0.00    +0.000 S 
ENDROOT
BRANCH   1  20
ATOM     19  C   UNL     1      19.499   1.821  17.438  0.00  0.00    +0.000 C 
ATOM     20  C   UNL     1      20.479   1.160  16.501  0.00  0.00    +0.000 C 
ENDBRANCH   1  20
TORSDOF 1
ENDMDL
MODEL 2
REMARK VINA RESULT:      -6.1     21.524     22.672
REMARK  Name = 
REMARK  1 active torsions:
REMARK  status: ('A' for Active; 'I' for Inactive)
REMARK    1  A    between atoms: C_2  and  N_3
REMARK                            x       y       z     vdW  Elec       q    Type
REMARK                         _______ _______ _______ _____ _____    ______ ____
ROOT
ATOM      1  N   UNL     1      30.363  22.884  29.590  0.00  0.00    +0.000 N 
ATOM      2  C   UNL     1      30.986  22.976  28.347  0.00  0.00    +0.000 C 
ATOM      3  O   UNL     1      32.087  22.680  27.949  0.00  0.00    +0.000 OA
ATOM      4  C   UNL     1      29.873  23.608  27.439  0.00  0.00    +0.000 C 
ATOM      5  C   UNL     1      30.190  22.705  26.088  0.00  0.00    +0.000 C 
ATOM      6  C   UNL     1      29.024  23.041  25.226  0.00  0.00    +0.000 A 
ATOM      7  C   UNL     1      27.785  22.711  25.742  0.00  0.00    +0.000 A 
ATOM      8  N   UNL     1      26.894  23.084  24.835  0.00  0.00    +0.000 NA
ATOM      9  C   UNL     1      27.504  23.637  23.766  0.00  0.00    +0.000 A 
ATOM     10  C   UNL     1      27.060  24.175  22.576  0.00  0.00    +0.000 A 
ATOM     11  C   UNL     1      27.940  24.688  21.626  0.00  0.00    +0.000 A 
ATOM     12  C   UNL     1      29.297  24.657  21.881  0.00  0.00    +0.000 A 
ATOM     13  C   UNL     1      29.780  24.122  23.068  0.00  0.00    +0.000 A 
ATOM     14  C   UNL     1      28.868  23.627  23.977  0.00  0.00    +0.000 A 
ATOM     15  C   UNL     1      27.815  22.073  27.084  0.00  0.00    +0.000 C 
ATOM     16  N   UNL     1      28.733  22.670  27.975  0.00  0.00    +0.000 N 
ATOM     17  C   UNL     1      28.972  22.697  29.349  0.00  0.00    +0.000 C 
ATOM     18  S   UNL     1      27.797  22.532  30.485  0.00  0.00    +0.000 S 
ENDROOT
BRANCH   1  20
ATOM     19  C   UNL     1      31.455  21.602  31.383  0.00  0.00    +0.000 C 
ATOM     20  C   UNL     1      31.048  22.968  30.889  0.00  0.00    +0.000 C 
ENDBRANCH   1  20
TORSDOF 1
ENDMDL
MODEL 3
REMARK VINA RESULT:      -6.1     21.755     23.725
REMARK  Name = 
REMARK  1 active torsions:
REMARK  status: ('A' for Active; 'I' for Inactive)
REMARK    1  A    between atoms: C_2  and  N_3
REMARK                            x       y       z     vdW  Elec       q    Type
REMARK                         _______ _______ _______ _____ _____    ______ ____
ROOT
ATOM      1  N   UNL     1      24.784  25.782  30.313  0.00  0.00    +0.000 N 
ATOM      2  C   UNL     1      25.728  24.756  30.299  0.00  0.00    +0.000 C 
ATOM      3  O   UNL     1      25.999  23.871  31.075  0.00  0.00    +0.000 OA
ATOM      4  C   UNL     1      26.469  24.974  28.934  0.00  0.00    +0.000 C 
ATOM      5  C   UNL     1      26.625  23.374  28.542  0.00  0.00    +0.000 C 
ATOM      6  C   UNL     1      27.097  23.459  27.132  0.00  0.00    +0.000 A 
ATOM      7  C   UNL     1      26.236  24.086  26.251  0.00  0.00    +0.000 A 
ATOM      8  N   UNL     1      26.831  24.057  25.067  0.00  0.00    +0.000 NA
ATOM      9  C   UNL     1      28.029  23.441  25.150  0.00  0.00    +0.000 A 
ATOM     10  C   UNL     1      29.025  23.148  24.242  0.00  0.00    +0.000 A 
ATOM     11  C   UNL     1      30.190  22.483  24.616  0.00  0.00    +0.000 A 
ATOM     12  C   UNL     1      30.353  22.104  25.935  0.00  0.00    +0.000 A 
ATOM     13  C   UNL     1      29.371  22.381  26.876  0.00  0.00    +0.000 A 
ATOM     14  C   UNL     1      28.235  23.043  26.455  0.00  0.00    +0.000 A 
ATOM     15  C   UNL     1      24.972  24.582  26.856  0.00  0.00    +0.000 C 
ATOM     16  N   UNL     1      25.149  25.197  28.114  0.00  0.00    +0.000 N 
ATOM     17  C   UNL     1      24.435  26.047  28.959  0.00  0.00    +0.000 C 
ATOM     18  S   UNL     1      23.361  27.171  28.429  0.00  0.00    +0.000 S 
ENDROOT
BRANCH   1  20
ATOM     19  C   UNL     1      25.268  27.429  32.076  0.00  0.00    +0.000 C 
ATOM     20  C   UNL     1      24.269  26.443  31.522  0.00  0.00    +0.000 C 
ENDBRANCH   1  20
TORSDOF 1
ENDMDL
MODEL 4
REMARK VINA RESULT:      -6.0     21.480     23.332
REMARK  Name = 
REMARK  1 active torsions:
REMARK  status: ('A' for Active; 'I' for Inactive)
REMARK    1  A    between atoms: C_2  and  N_3
REMARK                            x       y       z     vdW  Elec       q    Type
REMARK                         _______ _______ _______ _____ _____    ______ ____
ROOT
ATOM      1  N   UNL     1      33.576  24.441  26.820  0.00  0.00    +0.000 N 
ATOM      2  C   UNL     1      32.980  24.340  25.564  0.00  0.00    +0.000 C 
ATOM      3  O   UNL     1      33.422  24.239  24.444  0.00  0.00    +0.000 OA
ATOM      4  C   UNL     1      31.447  24.385  25.893  0.00  0.00    +0.000 C 
ATOM      5  C   UNL     1      30.977  23.256  24.779  0.00  0.00    +0.000 C 
ATOM      6  C   UNL     1      29.558  23.026  25.170  0.00  0.00    +0.000 A 
ATOM      7  C   UNL     1      29.362  22.546  26.451  0.00  0.00    +0.000 A 
ATOM      8  N   UNL     1      28.052  22.409  26.599  0.00  0.00    +0.000 NA
ATOM      9  C   UNL     1      27.404  22.779  25.475  0.00  0.00    +0.000 A 
ATOM     10  C   UNL     1      26.077  22.831  25.103  0.00  0.00    +0.000 A 
ATOM     11  C   UNL     1      25.683  23.268  23.840  0.00  0.00    +0.000 A 
ATOM     12  C   UNL     1      26.648  23.659  22.933  0.00  0.00    +0.000 A 
ATOM     13  C   UNL     1      27.994  23.620  23.273  0.00  0.00    +0.000 A 
ATOM     14  C   UNL     1      28.333  23.180  24.536  0.00  0.00    +0.000 A 
ATOM     15  C   UNL     1      30.605  22.337  27.239  0.00  0.00    +0.000 C 
ATOM     16  N   UNL     1      31.551  23.374  27.090  0.00  0.00    +0.000 N 
ATOM     17  C   UNL     1      32.684  23.843  27.755  0.00  0.00    +0.000 C 
ATOM     18  S   UNL     1      32.916  23.704  29.375  0.00  0.00    +0.000 S 
ENDROOT
BRANCH   1  20
ATOM     19  C   UNL     1      36.014  24.160  26.650  0.00  0.00    +0.000 C 
ATOM     20  C   UNL     1      34.884  25.057  27.091  0.00  0.00    +0.000 C 
ENDBRANCH   1  20
TORSDOF 1
ENDMDL
MODEL 5
REMARK VINA RESULT:      -5.8     20.133     21.785
REMARK  Name = 
REMARK  1 active torsions:
REMARK  status: ('A' for Active; 'I' for Inactive)
REMARK    1  A    between atoms: C_2  and  N_3
REMARK                            x       y       z     vdW  Elec       q    Type
REMARK                         _______ _______ _______ _____ _____    ______ ____
ROOT
ATOM      1  N   UNL     1      34.511  -3.858  35.499  0.00  0.00    +0.000 N 
ATOM      2  C   UNL     1      33.955  -3.008  34.543  0.00  0.00    +0.000 C 
ATOM      3  O   UNL     1      33.222  -3.190  33.601  0.00  0.00    +0.000 OA
ATOM      4  C   UNL     1      34.517  -1.601  34.951  0.00  0.00    +0.000 C 
ATOM      5  C   UNL     1      33.136  -0.744  34.637  0.00  0.00    +0.000 C 
ATOM      6  C   UNL     1      33.469   0.581  35.228  0.00  0.00    +0.000 A 
ATOM      7  C   UNL     1      33.733   0.581  36.584  0.00  0.00    +0.000 A 
ATOM      8  N   UNL     1      34.001   1.837  36.910  0.00  0.00    +0.000 NA
ATOM      9  C   UNL     1      33.919   2.639  35.828  0.00  0.00    +0.000 A 
ATOM     10  C   UNL     1      34.096   3.990  35.616  0.00  0.00    +0.000 A 
ATOM     11  C   UNL     1      33.943   4.564  34.356  0.00  0.00    +0.000 A 
ATOM     12  C   UNL     1      33.603   3.757  33.287  0.00  0.00    +0.000 A 
ATOM     13  C   UNL     1      33.416   2.393  33.463  0.00  0.00    +0.000 A 
ATOM     14  C   UNL     1      33.580   1.873  34.731  0.00  0.00    +0.000 A 
ATOM     15  C   UNL     1      33.647  -0.751  37.239  0.00  0.00    +0.000 C 
ATOM     16  N   UNL     1      34.223  -1.793  36.482  0.00  0.00    +0.000 N 
ATOM     17  C   UNL     1      34.673  -3.097  36.691  0.00  0.00    +0.000 C 
ATOM     18  S   UNL     1      35.289  -3.633  38.116  0.00  0.00    +0.000 S 
ENDROOT
BRANCH   1  20
ATOM     19  C   UNL     1      35.335  -5.508  33.871  0.00  0.00    +0.000 C 
ATOM     20  C   UNL     1      34.851  -5.272  35.280  0.00  0.00    +0.000 C 
ENDBRANCH   1  20
TORSDOF 1
ENDMDL
MODEL 6
REMARK VINA RESULT:      -5.7     19.520     21.662
REMARK  Name = 
REMARK  1 active torsions:
REMARK  status: ('A' for Active; 'I' for Inactive)
REMARK    1  A    between atoms: C_2  and  N_3
REMARK                            x       y       z     vdW  Elec       q    Type
REMARK                         _______ _______ _______ _____ _____    ______ ____
ROOT
ATOM      1  N   UNL     1      33.844   3.291  34.353  0.00  0.00    +0.000 N 
ATOM      2  C   UNL     1      33.846   2.149  33.554  0.00  0.00    +0.000 C 
ATOM      3  O   UNL     1      34.227   1.927  32.430  0.00  0.00    +0.000 OA
ATOM      4  C   UNL     1      33.184   1.067  34.478  0.00  0.00    +0.000 C 
ATOM      5  C   UNL     1      34.162  -0.191  34.033  0.00  0.00    +0.000 C 
ATOM      6  C   UNL     1      33.790  -1.225  35.038  0.00  0.00    +0.000 A 
ATOM      7  C   UNL     1      34.019  -0.885  36.357  0.00  0.00    +0.000 A 
ATOM      8  N   UNL     1      33.629  -1.924  37.081  0.00  0.00    +0.000 NA
ATOM      9  C   UNL     1      33.163  -2.911  36.287  0.00  0.00    +0.000 A 
ATOM     10  C   UNL     1      32.650  -4.171  36.518  0.00  0.00    +0.000 A 
ATOM     11  C   UNL     1      32.235  -4.998  35.477  0.00  0.00    +0.000 A 
ATOM     12  C   UNL     1      32.341  -4.546  34.176  0.00  0.00    +0.000 A 
ATOM     13  C   UNL     1      32.854  -3.285  33.906  0.00  0.00    +0.000 A 
ATOM     14  C   UNL     1      33.250  -2.502  34.972  0.00  0.00    +0.000 A 
ATOM     15  C   UNL     1      34.599   0.468  36.564  0.00  0.00    +0.000 C 
ATOM     16  N   UNL     1      34.023   1.462  35.745  0.00  0.00    +0.000 N 
ATOM     17  C   UNL     1      33.953   2.855  35.704  0.00  0.00    +0.000 C 
ATOM     18  S   UNL     1      33.993   3.812  37.039  0.00  0.00    +0.000 S 
ENDROOT
BRANCH   1  20
ATOM     19  C   UNL     1      32.319   5.159  33.866  0.00  0.00    +0.000 C 
ATOM     20  C   UNL     1      33.747   4.672  33.858  0.00  0.00    +0.000 C 
ENDBRANCH   1  20
TORSDOF 1
ENDMDL
MODEL 7
REMARK VINA RESULT:      -5.6      1.847      2.085
REMARK  Name = 
REMARK  1 active torsions:
REMARK  status: ('A' for Active; 'I' for Inactive)
REMARK    1  A    between atoms: C_2  and  N_3
REMARK                            x       y       z     vdW  Elec       q    Type
REMARK                         _______ _______ _______ _____ _____    ______ ____
ROOT
ATOM      1  N   UNL     1      21.404   1.597  16.871  0.00  0.00    +0.000 N 
ATOM      2  C   UNL     1      21.815   2.738  17.559  0.00  0.00    +0.000 C 
ATOM      3  O   UNL     1      21.350   3.358  18.485  0.00  0.00    +0.000 OA
ATOM      4  C   UNL     1      23.150   3.128  16.833  0.00  0.00    +0.000 C 
ATOM      5  C   UNL     1      23.980   3.584  18.190  0.00  0.00    +0.000 C 
ATOM      6  C   UNL     1      25.361   3.741  17.655  0.00  0.00    +0.000 A 
ATOM      7  C   UNL     1      25.923   2.602  17.110  0.00  0.00    +0.000 A 
ATOM      8  N   UNL     1      27.135   2.946  16.698  0.00  0.00    +0.000 NA
ATOM      9  C   UNL     1      27.373   4.249  16.954  0.00  0.00    +0.000 A 
ATOM     10  C   UNL     1      28.443   5.093  16.738  0.00  0.00    +0.000 A 
ATOM     11  C   UNL     1      28.412   6.433  17.116  0.00  0.00    +0.000 A 
ATOM     12  C   UNL     1      27.278   6.933  17.726  0.00  0.00    +0.000 A 
ATOM     13  C   UNL     1      26.182   6.114  17.960  0.00  0.00    +0.000 A 
ATOM     14  C   UNL     1      26.262   4.793  17.566  0.00  0.00    +0.000 A 
ATOM     15  C   UNL     1      25.053   1.396  17.143  0.00  0.00    +0.000 C 
ATOM     16  N   UNL     1      23.708   1.660  16.808  0.00  0.00    +0.000 N 
ATOM     17  C   UNL     1      22.581   0.940  16.411  0.00  0.00    +0.000 C 
ATOM     18  S   UNL     1      22.646  -0.454  15.544  0.00  0.00    +0.000 S 
ENDROOT
BRANCH   1  20
ATOM     19  C   UNL     1      19.286   2.107  15.729  0.00  0.00    +0.000 C 
ATOM     20  C   UNL     1      20.007   1.181  16.677  0.00  0.00    +0.000 C 
ENDBRANCH   1  20
TORSDOF 1
ENDMDL
MODEL 8
REMARK VINA RESULT:      -5.5     23.451     24.486
REMARK  Name = 
REMARK  1 active torsions:
REMARK  status: ('A' for Active; 'I' for Inactive)
REMARK    1  A    between atoms: C_2  and  N_3
REMARK                            x       y       z     vdW  Elec       q    Type
REMARK                         _______ _______ _______ _____ _____    ______ ____
ROOT
ATOM      1  N   UNL     1      27.670  23.244  29.600  0.00  0.00    +0.000 N 
ATOM      2  C   UNL     1      26.444  23.810  29.949  0.00  0.00    +0.000 C 
ATOM      3  O   UNL     1      25.938  24.100  31.007  0.00  0.00    +0.000 OA
ATOM      4  C   UNL     1      25.747  24.031  28.561  0.00  0.00    +0.000 C 
ATOM      5  C   UNL     1      25.060  25.492  28.921  0.00  0.00    +0.000 C 
ATOM      6  C   UNL     1      24.573  25.929  27.584  0.00  0.00    +0.000 A 
ATOM      7  C   UNL     1      25.546  26.083  26.615  0.00  0.00    +0.000 A 
ATOM      8  N   UNL     1      24.916  26.471  25.515  0.00  0.00    +0.000 NA
ATOM      9  C   UNL     1      23.588  26.573  25.736  0.00  0.00    +0.000 A 
ATOM     10  C   UNL     1      22.508  26.927  24.956  0.00  0.00    +0.000 A 
ATOM     11  C   UNL     1      21.209  26.944  25.461  0.00  0.00    +0.000 A 
ATOM     12  C   UNL     1      20.998  26.597  26.781  0.00  0.00    +0.000 A 
ATOM     13  C   UNL     1      22.061  26.236  27.596  0.00  0.00    +0.000 A 
ATOM     14  C   UNL     1      23.329  26.234  27.048  0.00  0.00    +0.000 A 
ATOM     15  C   UNL     1      26.931  25.784  27.064  0.00  0.00    +0.000 C 
ATOM     16  N   UNL     1      27.026  24.636  27.879  0.00  0.00    +0.000 N 
ATOM     17  C   UNL     1      28.019  23.760  28.320  0.00  0.00    +0.000 C 
ATOM     18  S   UNL     1      29.373  23.406  27.460  0.00  0.00    +0.000 S 
ENDROOT
BRANCH   1  20
ATOM     19  C   UNL     1      29.433  23.011  31.299  0.00  0.00    +0.000 C 
ATOM     20  C   UNL     1      28.432  22.295  30.426  0.00  0.00    +0.000 C 
ENDBRANCH   1  20
TORSDOF 1
ENDMDL
MODEL 9
REMARK VINA RESULT:      -5.4     21.736     24.086
REMARK  Name = 
REMARK  1 active torsions:
REMARK  status: ('A' for Active; 'I' for Inactive)
REMARK    1  A    between atoms: C_2  and  N_3
REMARK                            x       y       z     vdW  Elec       q    Type
REMARK                         _______ _______ _______ _____ _____    ______ ____
ROOT
ATOM      1  N   UNL     1      27.516  24.998  31.905  0.00  0.00    +0.000 N 
ATOM      2  C   UNL     1      28.493  24.217  31.290  0.00  0.00    +0.000 C 
ATOM      3  O   UNL     1      29.329  23.453  31.712  0.00  0.00    +0.000 OA
ATOM      4  C   UNL     1      28.300  24.539  29.767  0.00  0.00    +0.000 C 
ATOM      5  C   UNL     1      28.556  23.003  29.210  0.00  0.00    +0.000 C 
ATOM      6  C   UNL     1      28.149  23.131  27.784  0.00  0.00    +0.000 A 
ATOM      7  C   UNL     1      26.835  23.505  27.570  0.00  0.00    +0.000 A 
ATOM      8  N   UNL     1      26.675  23.561  26.256  0.00  0.00    +0.000 NA
ATOM      9  C   UNL     1      27.822  23.241  25.621  0.00  0.00    +0.000 A 
ATOM     10  C   UNL     1      28.195  23.146  24.296  0.00  0.00    +0.000 A 
ATOM     11  C   UNL     1      29.486  22.784  23.919  0.00  0.00    +0.000 A 
ATOM     12  C   UNL     1      30.420  22.511  24.899  0.00  0.00    +0.000 A 
ATOM     13  C   UNL     1      30.081  22.596  26.242  0.00  0.00    +0.000 A 
ATOM     14  C   UNL     1      28.790  22.959  26.565  0.00  0.00    +0.000 A 
ATOM     15  C   UNL     1      26.037  23.723  28.805  0.00  0.00    +0.000 C 
ATOM     16  N   UNL     1      26.735  24.417  29.816  0.00  0.00    +0.000 N 
ATOM     17  C   UNL     1      26.436  25.116  30.986  0.00  0.00    +0.000 C 
ATOM     18  S   UNL     1      25.034  25.939  31.225  0.00  0.00    +0.000 S 
ENDROOT
BRANCH   1  20
ATOM     19  C   UNL     1      28.674  26.651  33.312  0.00  0.00    +0.000 C 
ATOM     20  C   UNL     1      27.617  25.576  33.254  0.00  0.00    +0.000 C 
ENDBRANCH   1  20
TORSDOF 1
ENDMDL
MODEL 10
REMARK VINA RESULT:      -5.4      4.722      7.231
REMARK  Name = 
REMARK  1 active torsions:
REMARK  status: ('A' for Active; 'I' for Inactive)
REMARK    1  A    between atoms: C_2  and  N_3
REMARK                            x       y       z     vdW  Elec       q    Type
REMARK                         _______ _______ _______ _____ _____    ______ ____
ROOT
ATOM      1  N   UNL     1      29.250   7.212  11.217  0.00  0.00    +0.000 N 
ATOM      2  C   UNL     1      29.478   7.804  12.458  0.00  0.00    +0.000 C 
ATOM      3  O   UNL     1      29.967   8.855  12.797  0.00  0.00    +0.000 OA
ATOM      4  C   UNL     1      28.923   6.738  13.467  0.00  0.00    +0.000 C 
ATOM      5  C   UNL     1      28.241   7.811  14.526  0.00  0.00    +0.000 C 
ATOM      6  C   UNL     1      27.457   6.902  15.407  0.00  0.00    +0.000 A 
ATOM      7  C   UNL     1      26.475   6.161  14.778  0.00  0.00    +0.000 A 
ATOM      8  N   UNL     1      25.901   5.429  15.721  0.00  0.00    +0.000 NA
ATOM      9  C   UNL     1      26.469   5.667  16.922  0.00  0.00    +0.000 A 
ATOM     10  C   UNL     1      26.259   5.188  18.198  0.00  0.00    +0.000 A 
ATOM     11  C   UNL     1      27.018   5.623  19.283  0.00  0.00    +0.000 A 
ATOM     12  C   UNL     1      28.008   6.563  19.075  0.00  0.00    +0.000 A 
ATOM     13  C   UNL     1      28.247   7.069  17.804  0.00  0.00    +0.000 A 
ATOM     14  C   UNL     1      27.470   6.605  16.763  0.00  0.00    +0.000 A 
ATOM     15  C   UNL     1      26.359   6.389  13.313  0.00  0.00    +0.000 C 
ATOM     16  N   UNL     1      27.604   6.478  12.654  0.00  0.00    +0.000 N 
ATOM     17  C   UNL     1      28.091   6.395  11.350  0.00  0.00    +0.000 C 
ATOM     18  S   UNL     1      27.401   5.480  10.173  0.00  0.00    +0.000 S 
ENDROOT
BRANCH   1  20
ATOM     19  C   UNL     1      31.237   6.457   9.978  0.00  0.00    +0.000 C 
ATOM     20  C   UNL     1      30.074   7.417  10.016  0.00  0.00    +0.000 C 
ENDBRANCH   1  20
TORSDOF 1
ENDMDL
