MODEL 1
REMARK VINA RESULT:      -7.0      0.000      0.000
REMARK  Name = 
REMARK  2 active torsions:
REMARK  status: ('A' for Active; 'I' for Inactive)
REMARK    1  A    between atoms: C_4  and  N_5
REMARK    2  A    between atoms: N_5  and  C_6
REMARK                            x       y       z     vdW  Elec       q    Type
REMARK                         _______ _______ _______ _____ _____    ______ ____
ROOT
ATOM      1  C   UNL     1      32.339  23.752  24.740  0.00  0.00    +0.000 C 
ATOM      2  C   UNL     1      30.876  23.588  24.566  0.00  0.00    +0.000 A 
ATOM      3  C   UNL     1      30.099  23.015  25.578  0.00  0.00    +0.000 A 
ATOM      4  C   UNL     1      28.740  22.865  25.414  0.00  0.00    +0.000 A 
ATOM      5  C   UNL     1      28.177  23.291  24.236  0.00  0.00    +0.000 A 
ATOM      6  C   UNL     1      26.817  23.169  24.008  0.00  0.00    +0.000 A 
ATOM      7  C   UNL     1      26.243  23.598  22.820  0.00  0.00    +0.000 A 
ATOM      8  C   UNL     1      27.027  24.152  21.853  0.00  0.00    +0.000 A 
ATOM      9  C   UNL     1      28.371  24.293  22.035  0.00  0.00    +0.000 A 
ATOM     10  C   UNL     1      29.273  24.893  21.008  0.00  0.00    +0.000 C 
ATOM     11  C   UNL     1      28.933  23.862  23.219  0.00  0.00    +0.000 A 
ATOM     12  N   UNL     1      30.274  23.989  23.434  0.00  0.00    +0.000 NA
ENDROOT
BRANCH   4  13
ATOM     13  N   UNL     1      27.980  22.286  26.445  0.00  0.00    +0.000 NA
BRANCH  13  14
ATOM     14  C   UNL     1      27.356  23.031  27.479  0.00  0.00    +0.000 A 
ATOM     15  C   UNL     1      27.130  24.387  27.381  0.00  0.00    +0.000 A 
ATOM     16  C   UNL     1      26.517  25.082  28.414  0.00  0.00    +0.000 A 
ATOM     17  C   UNL     1      26.113  24.435  29.574  0.00  0.00    +0.000 A 
ATOM     18  C   UNL     1      26.348  23.077  29.653  0.00  0.00    +0.000 A 
ATOM     19  O   UNL     1      25.959  22.371  30.806  0.00  0.00    +0.000 OA
ATOM     20  C   UNL     1      26.959  22.377  28.627  0.00  0.00    +0.000 A 
ENDBRANCH  13  14
ENDBRANCH   4  13
TORSDOF 2
ENDMDL
MODEL 2
REMARK VINA RESULT:      -6.9      2.878      6.536
REMARK  Name = 
REMARK  2 active torsions:
REMARK  status: ('A' for Active; 'I' for Inactive)
REMARK    1  A    between atoms: C_4  and  N_5
REMARK    2  A    between atoms: N_5  and  C_6
REMARK                            x       y       z     vdW  Elec       q    Type
REMARK                         _______ _______ _______ _____ _____    ______ ____
ROOT
ATOM      1  C   UNL     1      23.965  26.632  25.366  0.00  0.00    +0.000 C 
ATOM      2  C   UNL     1      24.715  25.673  26.212  0.00  0.00    +0.000 A 
ATOM      3  C   UNL     1      25.440  24.628  25.632  0.00  0.00    +0.000 A 
ATOM      4  C   UNL     1      26.136  23.738  26.421  0.00  0.00    +0.000 A 
ATOM      5  C   UNL     1      26.094  23.909  27.783  0.00  0.00    +0.000 A 
ATOM      6  C   UNL     1      26.772  23.050  28.632  0.00  0.00    +0.000 A 
ATOM      7  C   UNL     1      26.734  23.219  30.009  0.00  0.00    +0.000 A 
ATOM      8  C   UNL     1      26.017  24.246  30.544  0.00  0.00    +0.000 A 
ATOM      9  C   UNL     1      25.335  25.116  29.746  0.00  0.00    +0.000 A 
ATOM     10  C   UNL     1      24.537  26.259  30.282  0.00  0.00    +0.000 C 
ATOM     11  C   UNL     1      25.379  24.941  28.378  0.00  0.00    +0.000 A 
ATOM     12  N   UNL     1      24.709  25.794  27.550  0.00  0.00    +0.000 NA
ENDROOT
BRANCH   4  13
ATOM     13  N   UNL     1      26.858  22.696  25.815  0.00  0.00    +0.000 NA
BRANCH  13  14
ATOM     14  C   UNL     1      28.197  22.822  25.362  0.00  0.00    +0.000 A 
ATOM     15  C   UNL     1      29.275  22.417  26.119  0.00  0.00    +0.000 A 
ATOM     16  C   UNL     1      30.571  22.557  25.642  0.00  0.00    +0.000 A 
ATOM     17  C   UNL     1      30.821  23.107  24.392  0.00  0.00    +0.000 A 
ATOM     18  C   UNL     1      29.727  23.506  23.649  0.00  0.00    +0.000 A 
ATOM     19  O   UNL     1      29.922  24.070  22.375  0.00  0.00    +0.000 OA
ATOM     20  C   UNL     1      28.432  23.370  24.118  0.00  0.00    +0.000 A 
ENDBRANCH  13  14
ENDBRANCH   4  13
TORSDOF 2
ENDMDL
MODEL 3
REMARK VINA RESULT:      -6.8     17.256     19.212
REMARK  Name = 
REMARK  2 active torsions:
REMARK  status: ('A' for Active; 'I' for Inactive)
REMARK    1  A    between atoms: C_4  and  N_5
REMARK    2  A    between atoms: N_5  and  C_6
REMARK                            x       y       z     vdW  Elec       q    Type
REMARK                         _______ _______ _______ _____ _____    ______ ____
ROOT
ATOM      1  C   UNL     1      20.942  14.049  39.801  0.00  0.00    +0.000 C 
ATOM      2  C   UNL     1      21.234  12.859  38.967  0.00  0.00    +0.000 A 
ATOM      3  C   UNL     1      20.234  11.923  38.687  0.00  0.00    +0.000 A 
ATOM      4  C   UNL     1      20.507  10.819  37.910  0.00  0.00    +0.000 A 
ATOM      5  C   UNL     1      21.783  10.666  37.425  0.00  0.00    +0.000 A 
ATOM      6  C   UNL     1      22.124   9.579  36.639  0.00  0.00    +0.000 A 
ATOM      7  C   UNL     1      23.411   9.422  36.145  0.00  0.00    +0.000 A 
ATOM      8  C   UNL     1      24.364  10.350  36.435  0.00  0.00    +0.000 A 
ATOM      9  C   UNL     1      24.073  11.437  37.205  0.00  0.00    +0.000 A 
ATOM     10  C   UNL     1      25.080  12.484  37.551  0.00  0.00    +0.000 C 
ATOM     11  C   UNL     1      22.790  11.586  37.692  0.00  0.00    +0.000 A 
ATOM     12  N   UNL     1      22.465  12.662  38.465  0.00  0.00    +0.000 NA
ENDROOT
BRANCH   4  13
ATOM     13  N   UNL     1      19.485   9.891  37.644  0.00  0.00    +0.000 NA
BRANCH  13  14
ATOM     14  C   UNL     1      18.484  10.084  36.657  0.00  0.00    +0.000 A 
ATOM     15  C   UNL     1      18.604   9.592  35.375  0.00  0.00    +0.000 A 
ATOM     16  C   UNL     1      17.603   9.801  34.437  0.00  0.00    +0.000 A 
ATOM     17  C   UNL     1      16.452  10.508  34.759  0.00  0.00    +0.000 A 
ATOM     18  C   UNL     1      16.351  10.992  36.048  0.00  0.00    +0.000 A 
ATOM     19  O   UNL     1      15.207  11.717  36.430  0.00  0.00    +0.000 OA
ATOM     20  C   UNL     1      17.346  10.789  36.989  0.00  0.00    +0.000 A 
ENDBRANCH  13  14
ENDBRANCH   4  13
TORSDOF 2
ENDMDL
MODEL 4
REMARK VINA RESULT:      -6.7      3.277      6.655
REMARK  Name = 
REMARK  2 active torsions:
REMARK  status: ('A' for Active; 'I' for Inactive)
REMARK    1  A    between atoms: C_4  and  N_5
REMARK    2  A    between atoms: N_5  and  C_6
REMARK                            x       y       z     vdW  Elec       q    Type
REMARK                         _______ _______ _______ _____ _____    ______ ____
ROOT
ATOM      1  C   UNL     1      23.387  26.328  27.442  0.00  0.00    +0.000 C 
ATOM      2  C   UNL     1      24.469  25.382  27.075  0.00  0.00    +0.000 A 
ATOM      3  C   UNL     1      24.805  25.171  25.734  0.00  0.00    +0.000 A 
ATOM      4  C   UNL     1      25.811  24.292  25.396  0.00  0.00    +0.000 A 
ATOM      5  C   UNL     1      26.466  23.635  26.409  0.00  0.00    +0.000 A 
ATOM      6  C   UNL     1      27.487  22.740  26.137  0.00  0.00    +0.000 A 
ATOM      7  C   UNL     1      28.153  22.075  27.157  0.00  0.00    +0.000 A 
ATOM      8  C   UNL     1      27.801  22.302  28.453  0.00  0.00    +0.000 A 
ATOM      9  C   UNL     1      26.803  23.176  28.767  0.00  0.00    +0.000 A 
ATOM     10  C   UNL     1      26.381  23.460  30.171  0.00  0.00    +0.000 C 
ATOM     11  C   UNL     1      26.146  23.833  27.747  0.00  0.00    +0.000 A 
ATOM     12  N   UNL     1      25.143  24.714  28.026  0.00  0.00    +0.000 NA
ENDROOT
BRANCH   4  13
ATOM     13  N   UNL     1      26.131  24.096  24.042  0.00  0.00    +0.000 NA
BRANCH  13  14
ATOM     14  C   UNL     1      27.079  24.879  23.334  0.00  0.00    +0.000 A 
ATOM     15  C   UNL     1      27.188  26.242  23.503  0.00  0.00    +0.000 A 
ATOM     16  C   UNL     1      28.128  26.974  22.793  0.00  0.00    +0.000 A 
ATOM     17  C   UNL     1      28.987  26.359  21.892  0.00  0.00    +0.000 A 
ATOM     18  C   UNL     1      28.863  24.992  21.737  0.00  0.00    +0.000 A 
ATOM     19  O   UNL     1      29.707  24.316  20.837  0.00  0.00    +0.000 OA
ATOM     20  C   UNL     1      27.926  24.255  22.442  0.00  0.00    +0.000 A 
ENDBRANCH  13  14
ENDBRANCH   4  13
TORSDOF 2
ENDMDL
MODEL 5
REMARK VINA RESULT:      -6.7      2.942      5.944
REMARK  Name = 
REMARK  2 active torsions:
REMARK  status: ('A' for Active; 'I' for Inactive)
REMARK    1  A    between atoms: C_4  and  N_5
REMARK    2  A    between atoms: N_5  and  C_6
REMARK                            x       y       z     vdW  Elec       q    Type
REMARK                         _______ _______ _______ _____ _____    ______ ____
ROOT
ATOM      1  C   UNL     1      31.134  22.028  27.656  0.00  0.00    +0.000 C 
ATOM      2  C   UNL     1      29.761  22.545  27.443  0.00  0.00    +0.000 A 
ATOM      3  C   UNL     1      29.187  22.537  26.169  0.00  0.00    +0.000 A 
ATOM      4  C   UNL     1      27.910  23.018  25.975  0.00  0.00    +0.000 A 
ATOM      5  C   UNL     1      27.227  23.503  27.063  0.00  0.00    +0.000 A 
ATOM      6  C   UNL     1      25.941  24.000  26.936  0.00  0.00    +0.000 A 
ATOM      7  C   UNL     1      25.246  24.490  28.032  0.00  0.00    +0.000 A 
ATOM      8  C   UNL     1      25.833  24.485  29.261  0.00  0.00    +0.000 A 
ATOM      9  C   UNL     1      27.097  24.004  29.433  0.00  0.00    +0.000 A 
ATOM     10  C   UNL     1      27.785  23.975  30.758  0.00  0.00    +0.000 C 
ATOM     11  C   UNL     1      27.781  23.519  28.337  0.00  0.00    +0.000 A 
ATOM     12  N   UNL     1      29.047  23.030  28.474  0.00  0.00    +0.000 NA
ENDROOT
BRANCH   4  13
ATOM     13  N   UNL     1      27.354  23.000  24.684  0.00  0.00    +0.000 NA
BRANCH  13  14
ATOM     14  C   UNL     1      27.616  23.987  23.698  0.00  0.00    +0.000 A 
ATOM     15  C   UNL     1      26.985  25.212  23.692  0.00  0.00    +0.000 A 
ATOM     16  C   UNL     1      27.268  26.152  22.711  0.00  0.00    +0.000 A 
ATOM     17  C   UNL     1      28.192  25.889  21.709  0.00  0.00    +0.000 A 
ATOM     18  C   UNL     1      28.814  24.657  21.733  0.00  0.00    +0.000 A 
ATOM     19  O   UNL     1      29.760  24.337  20.742  0.00  0.00    +0.000 OA
ATOM     20  C   UNL     1      28.537  23.713  22.708  0.00  0.00    +0.000 A 
ENDBRANCH  13  14
ENDBRANCH   4  13
TORSDOF 2
ENDMDL
MODEL 6
REMARK VINA RESULT:      -6.2     20.642     21.738
REMARK  Name = 
REMARK  2 active torsions:
REMARK  status: ('A' for Active; 'I' for Inactive)
REMARK    1  A    between atoms: C_4  and  N_5
REMARK    2  A    between atoms: N_5  and  C_6
REMARK                            x       y       z     vdW  Elec       q    Type
REMARK                         _______ _______ _______ _____ _____    ______ ____
ROOT
ATOM      1  C   UNL     1      24.936   4.604  13.294  0.00  0.00    +0.000 C 
ATOM      2  C   UNL     1      25.426   4.793  14.680  0.00  0.00    +0.000 A 
ATOM      3  C   UNL     1      24.927   4.009  15.725  0.00  0.00    +0.000 A 
ATOM      4  C   UNL     1      25.385   4.186  17.012  0.00  0.00    +0.000 A 
ATOM      5  C   UNL     1      26.338   5.150  17.235  0.00  0.00    +0.000 A 
ATOM      6  C   UNL     1      26.840   5.379  18.504  0.00  0.00    +0.000 A 
ATOM      7  C   UNL     1      27.803   6.350  18.734  0.00  0.00    +0.000 A 
ATOM      8  C   UNL     1      28.269   7.099  17.696  0.00  0.00    +0.000 A 
ATOM      9  C   UNL     1      27.804   6.907  16.429  0.00  0.00    +0.000 A 
ATOM     10  C   UNL     1      28.283   7.699  15.257  0.00  0.00    +0.000 C 
ATOM     11  C   UNL     1      26.846   5.939  16.209  0.00  0.00    +0.000 A 
ATOM     12  N   UNL     1      26.359   5.721  14.954  0.00  0.00    +0.000 NA
ENDROOT
BRANCH   4  13
ATOM     13  N   UNL     1      24.867   3.387  18.045  0.00  0.00    +0.000 NA
BRANCH  13  14
ATOM     14  C   UNL     1      23.682   2.615  17.927  0.00  0.00    +0.000 A 
ATOM     15  C   UNL     1      23.704   1.263  17.661  0.00  0.00    +0.000 A 
ATOM     16  C   UNL     1      22.523   0.541  17.552  0.00  0.00    +0.000 A 
ATOM     17  C   UNL     1      21.288   1.156  17.709  0.00  0.00    +0.000 A 
ATOM     18  C   UNL     1      21.288   2.510  17.976  0.00  0.00    +0.000 A 
ATOM     19  O   UNL     1      20.065   3.185  18.144  0.00  0.00    +0.000 OA
ATOM     20  C   UNL     1      22.462   3.237  18.085  0.00  0.00    +0.000 A 
ENDBRANCH  13  14
ENDBRANCH   4  13
TORSDOF 2
ENDMDL
MODEL 7
REMARK VINA RESULT:      -6.1      3.173      5.149
REMARK  Name = 
REMARK  2 active torsions:
REMARK  status: ('A' for Active; 'I' for Inactive)
REMARK    1  A    between atoms: C_4  and  N_5
REMARK    2  A    between atoms: N_5  and  C_6
REMARK                            x       y       z     vdW  Elec       q    Type
REMARK                         _______ _______ _______ _____ _____    ______ ____
ROOT
ATOM      1  C   UNL     1      26.586  23.036  29.797  0.00  0.00    +0.000 C 
ATOM      2  C   UNL     1      27.006  23.107  28.376  0.00  0.00    +0.000 A 
ATOM      3  C   UNL     1      26.128  23.583  27.398  0.00  0.00    +0.000 A 
ATOM      4  C   UNL     1      26.521  23.649  26.079  0.00  0.00    +0.000 A 
ATOM      5  C   UNL     1      27.791  23.234  25.759  0.00  0.00    +0.000 A 
ATOM      6  C   UNL     1      28.248  23.274  24.452  0.00  0.00    +0.000 A 
ATOM      7  C   UNL     1      29.530  22.857  24.124  0.00  0.00    +0.000 A 
ATOM      8  C   UNL     1      30.361  22.398  25.100  0.00  0.00    +0.000 A 
ATOM      9  C   UNL     1      29.954  22.341  26.400  0.00  0.00    +0.000 A 
ATOM     10  C   UNL     1      30.826  21.848  27.506  0.00  0.00    +0.000 C 
ATOM     11  C   UNL     1      28.677  22.758  26.717  0.00  0.00    +0.000 A 
ATOM     12  N   UNL     1      28.237  22.715  28.008  0.00  0.00    +0.000 NA
ENDROOT
BRANCH   4  13
ATOM     13  N   UNL     1      25.621  24.130  25.113  0.00  0.00    +0.000 NA
BRANCH  13  14
ATOM     14  C   UNL     1      25.343  25.507  24.911  0.00  0.00    +0.000 A 
ATOM     15  C   UNL     1      26.238  26.360  24.303  0.00  0.00    +0.000 A 
ATOM     16  C   UNL     1      25.931  27.702  24.123  0.00  0.00    +0.000 A 
ATOM     17  C   UNL     1      24.717  28.224  24.547  0.00  0.00    +0.000 A 
ATOM     18  C   UNL     1      23.834  27.353  25.153  0.00  0.00    +0.000 A 
ATOM     19  O   UNL     1      22.588  27.829  25.603  0.00  0.00    +0.000 OA
ATOM     20  C   UNL     1      24.133  26.014  25.337  0.00  0.00    +0.000 A 
ENDBRANCH  13  14
ENDBRANCH   4  13
TORSDOF 2
ENDMDL
MODEL 8
REMARK VINA RESULT:      -6.1     19.507     22.562
REMARK  Name = 
REMARK  2 active torsions:
REMARK  status: ('A' for Active; 'I' for Inactive)
REMARK    1  A    between atoms: C_4  and  N_5
REMARK    2  A    between atoms: N_5  and  C_6
REMARK                            x       y       z     vdW  Elec       q    Type
REMARK                         _______ _______ _______ _____ _____    ______ ____
ROOT
ATOM      1  C   UNL     1      19.920   9.729  37.430  0.00  0.00    +0.000 C 
ATOM      2  C   UNL     1      18.497  10.082  37.648  0.00  0.00    +0.000 A 
ATOM      3  C   UNL     1      17.880   9.823  38.875  0.00  0.00    +0.000 A 
ATOM      4  C   UNL     1      16.557  10.154  39.076  0.00  0.00    +0.000 A 
ATOM      5  C   UNL     1      15.870  10.740  38.041  0.00  0.00    +0.000 A 
ATOM      6  C   UNL     1      14.540  11.096  38.177  0.00  0.00    +0.000 A 
ATOM      7  C   UNL     1      13.842  11.690  37.135  0.00  0.00    +0.000 A 
ATOM      8  C   UNL     1      14.472  11.929  35.951  0.00  0.00    +0.000 A 
ATOM      9  C   UNL     1      15.781  11.595  35.772  0.00  0.00    +0.000 A 
ATOM     10  C   UNL     1      16.517  11.837  34.496  0.00  0.00    +0.000 C 
ATOM     11  C   UNL     1      16.467  11.005  36.814  0.00  0.00    +0.000 A 
ATOM     12  N   UNL     1      17.779  10.659  36.669  0.00  0.00    +0.000 NA
ENDROOT
BRANCH   4  13
ATOM     13  N   UNL     1      15.958   9.882  40.318  0.00  0.00    +0.000 NA
BRANCH  13  14
ATOM     14  C   UNL     1      16.551   9.070  41.319  0.00  0.00    +0.000 A 
ATOM     15  C   UNL     1      17.089   9.594  42.474  0.00  0.00    +0.000 A 
ATOM     16  C   UNL     1      17.662   8.767  43.431  0.00  0.00    +0.000 A 
ATOM     17  C   UNL     1      17.709   7.391  43.255  0.00  0.00    +0.000 A 
ATOM     18  C   UNL     1      17.165   6.885  42.092  0.00  0.00    +0.000 A 
ATOM     19  O   UNL     1      17.186   5.498  41.861  0.00  0.00    +0.000 OA
ATOM     20  C   UNL     1      16.593   7.704  41.132  0.00  0.00    +0.000 A 
ENDBRANCH  13  14
ENDBRANCH   4  13
TORSDOF 2
ENDMDL
MODEL 9
REMARK VINA RESULT:      -6.1     32.679     34.106
REMARK  Name = 
REMARK  2 active torsions:
REMARK  status: ('A' for Active; 'I' for Inactive)
REMARK    1  A    between atoms: C_4  and  N_5
REMARK    2  A    between atoms: N_5  and  C_6
REMARK                            x       y       z     vdW  Elec       q    Type
REMARK                         _______ _______ _______ _____ _____    ______ ____
ROOT
ATOM      1  C   UNL     1      20.401 -11.169  24.771  0.00  0.00    +0.000 C 
ATOM      2  C   UNL     1      19.691  -9.990  25.324  0.00  0.00    +0.000 A 
ATOM      3  C   UNL     1      18.441 -10.132  25.932  0.00  0.00    +0.000 A 
ATOM      4  C   UNL     1      17.784  -9.035  26.445  0.00  0.00    +0.000 A 
ATOM      5  C   UNL     1      18.392  -7.808  26.340  0.00  0.00    +0.000 A 
ATOM      6  C   UNL     1      17.786  -6.666  26.836  0.00  0.00    +0.000 A 
ATOM      7  C   UNL     1      18.396  -5.424  26.733  0.00  0.00    +0.000 A 
ATOM      8  C   UNL     1      19.615  -5.317  26.134  0.00  0.00    +0.000 A 
ATOM      9  C   UNL     1      20.249  -6.415  25.633  0.00  0.00    +0.000 A 
ATOM     10  C   UNL     1      21.585  -6.353  24.969  0.00  0.00    +0.000 C 
ATOM     11  C   UNL     1      19.634  -7.647  25.739  0.00  0.00    +0.000 A 
ATOM     12  N   UNL     1      20.241  -8.766  25.249  0.00  0.00    +0.000 NA
ENDROOT
BRANCH   4  13
ATOM     13  N   UNL     1      16.528  -9.203  27.051  0.00  0.00    +0.000 NA
BRANCH  13  14
ATOM     14  C   UNL     1      15.346  -9.535  26.338  0.00  0.00    +0.000 A 
ATOM     15  C   UNL     1      14.998 -10.837  26.050  0.00  0.00    +0.000 A 
ATOM     16  C   UNL     1      13.834 -11.122  25.350  0.00  0.00    +0.000 A 
ATOM     17  C   UNL     1      12.987 -10.109  24.921  0.00  0.00    +0.000 A 
ATOM     18  C   UNL     1      13.353  -8.812  25.220  0.00  0.00    +0.000 A 
ATOM     19  O   UNL     1      12.532  -7.746  24.809  0.00  0.00    +0.000 OA
ATOM     20  C   UNL     1      14.513  -8.520  25.917  0.00  0.00    +0.000 A 
ENDBRANCH  13  14
ENDBRANCH   4  13
TORSDOF 2
ENDMDL
MODEL 10
REMARK VINA RESULT:      -6.0     23.311     25.949
REMARK  Name = 
REMARK  2 active torsions:
REMARK  status: ('A' for Active; 'I' for Inactive)
REMARK    1  A    between atoms: C_4  and  N_5
REMARK    2  A    between atoms: N_5  and  C_6
REMARK                            x       y       z     vdW  Elec       q    Type
REMARK                         _______ _______ _______ _____ _____    ______ ____
ROOT
ATOM      1  C   UNL     1      17.187   5.283  44.571  0.00  0.00    +0.000 C 
ATOM      2  C   UNL     1      17.539   5.868  43.255  0.00  0.00    +0.000 A 
ATOM      3  C   UNL     1      18.186   5.097  42.284  0.00  0.00    +0.000 A 
ATOM      4  C   UNL     1      18.512   5.643  41.062  0.00  0.00    +0.000 A 
ATOM      5  C   UNL     1      18.184   6.957  40.830  0.00  0.00    +0.000 A 
ATOM      6  C   UNL     1      18.483   7.566  39.623  0.00  0.00    +0.000 A 
ATOM      7  C   UNL     1      18.153   8.892  39.383  0.00  0.00    +0.000 A 
ATOM      8  C   UNL     1      17.524   9.617  40.350  0.00  0.00    +0.000 A 
ATOM      9  C   UNL     1      17.209   9.058  41.553  0.00  0.00    +0.000 A 
ATOM     10  C   UNL     1      16.519   9.807  42.644  0.00  0.00    +0.000 C 
ATOM     11  C   UNL     1      17.541   7.738  41.782  0.00  0.00    +0.000 A 
ATOM     12  N   UNL     1      17.241   7.148  42.975  0.00  0.00    +0.000 NA
ENDROOT
BRANCH   4  13
ATOM     13  N   UNL     1      19.162   4.849  40.102  0.00  0.00    +0.000 NA
BRANCH  13  14
ATOM     14  C   UNL     1      20.353   4.120  40.357  0.00  0.00    +0.000 A 
ATOM     15  C   UNL     1      21.561   4.738  40.599  0.00  0.00    +0.000 A 
ATOM     16  C   UNL     1      22.705   3.991  40.845  0.00  0.00    +0.000 A 
ATOM     17  C   UNL     1      22.668   2.603  40.855  0.00  0.00    +0.000 A 
ATOM     18  C   UNL     1      21.449   2.004  40.610  0.00  0.00    +0.000 A 
ATOM     19  O   UNL     1      21.353   0.600  40.608  0.00  0.00    +0.000 OA
ATOM     20  C   UNL     1      20.303   2.742  40.364  0.00  0.00    +0.000 A 
ENDBRANCH  13  14
ENDBRANCH   4  13
TORSDOF 2
ENDMDL
