MODEL 1
REMARK VINA RESULT:      -7.3      0.000      0.000
REMARK  Name = 
REMARK  8 active torsions:
REMARK  status: ('A' for Active; 'I' for Inactive)
REMARK    1  A    between atoms: C_2  and  C_3
REMARK    2  A    between atoms: C_3  and  N_4
REMARK    3  A    between atoms: C_5  and  C_7
REMARK    4  A    between atoms: C_7  and  N_22
REMARK    5  A    between atoms: C_8  and  C_9
REMARK    6  A    between atoms: C_12  and  O_13
REMARK    7  A    between atoms: O_13  and  C_14
REMARK    8  A    between atoms: C_23  and  C_25
REMARK                            x       y       z     vdW  Elec       q    Type
REMARK                         _______ _______ _______ _____ _____    ______ ____
ROOT
ATOM      1  C   UNL     1      36.325   4.245  14.323  0.00  0.00    +0.000 C 
ATOM      2  C   UNL     1      36.341   3.034  13.840  0.00  0.00    +0.000 C 
ENDROOT
BRANCH   2   3
ATOM      3  C   UNL     1      37.128   1.938  14.386  0.00  0.00    +0.000 A 
ATOM      4  C   UNL     1      38.413   1.681  13.957  0.00  0.00    +0.000 A 
ATOM      5  C   UNL     1      39.152   0.635  14.482  0.00  0.00    +0.000 A 
ATOM      6  C   UNL     1      38.542  -0.134  15.452  0.00  0.00    +0.000 A 
ATOM      7  C   UNL     1      37.246   0.116  15.893  0.00  0.00    +0.000 A 
ATOM      8  C   UNL     1      36.663  -0.676  16.869  0.00  0.00    +0.000 A 
ATOM      9  C   UNL     1      35.386  -0.396  17.274  0.00  0.00    +0.000 A 
ATOM     10  C   UNL     1      34.659   0.655  16.740  0.00  0.00    +0.000 A 
ATOM     11  C   UNL     1      35.269   1.420  15.773  0.00  0.00    +0.000 A 
ATOM     12  C   UNL     1      36.541   1.149  15.362  0.00  0.00    +0.000 A 
BRANCH   6  13
ATOM     13  O   UNL     1      39.185  -1.213  16.055  0.00  0.00    +0.000 OA
BRANCH  13  14
ATOM     14  C   UNL     1      39.690  -2.257  15.272  0.00  0.00    +0.000 C 
ATOM     15  C   UNL     1      38.560  -3.042  14.646  0.00  0.00    +0.000 C 
ENDBRANCH  13  14
ENDBRANCH   6  13
ENDBRANCH   2   3
BRANCH   1  17
ATOM     16  N   UNL     1      34.415   5.909  14.312  0.00  0.00    +0.000 NA
ATOM     17  C   UNL     1      35.493   5.254  13.684  0.00  0.00    +0.000 C 
ATOM     18  O   UNL     1      35.730   5.585  12.478  0.00  0.00    +0.000 OA
BRANCH  16  19
ATOM     19  C   UNL     1      33.618   6.914  13.609  0.00  0.00    +0.000 C 
BRANCH  19  21
ATOM     20  C   UNL     1      33.585   8.701  15.320  0.00  0.00    +0.000 C 
ATOM     21  C   UNL     1      34.007   8.245  14.151  0.00  0.00    +0.000 C 
ENDBRANCH  19  21
ENDBRANCH  16  19
ENDBRANCH   1  17
BRANCH   1  22
ATOM     22  N   UNL     1      37.107   4.560  15.448  0.00  0.00    +0.000 NA
ATOM     23  C   UNL     1      38.363   5.215  15.347  0.00  0.00    +0.000 C 
ATOM     24  O   UNL     1      38.753   5.509  14.187  0.00  0.00    +0.000 OA
BRANCH  23  25
ATOM     25  C   UNL     1      39.182   5.546  16.507  0.00  0.00    +0.000 A 
ATOM     26  C   UNL     1      40.468   6.020  16.386  0.00  0.00    +0.000 A 
ATOM     27  C   UNL     1      41.178   6.311  17.535  0.00  0.00    +0.000 A 
ATOM     28  C   UNL     1      40.660   6.147  18.802  0.00  0.00    +0.000 A 
ATOM     29  C   UNL     1      39.374   5.673  18.914  0.00  0.00    +0.000 A 
ATOM     30  C   UNL     1      38.657   5.380  17.777  0.00  0.00    +0.000 A 
ENDBRANCH  23  25
ENDBRANCH   1  22
TORSDOF 8
ENDMDL
MODEL 2
REMARK VINA RESULT:      -7.0      1.612      2.608
REMARK  Name = 
REMARK  8 active torsions:
REMARK  status: ('A' for Active; 'I' for Inactive)
REMARK    1  A    between atoms: C_2  and  C_3
REMARK    2  A    between atoms: C_3  and  N_4
REMARK    3  A    between atoms: C_5  and  C_7
REMARK    4  A    between atoms: C_7  and  N_22
REMARK    5  A    between atoms: C_8  and  C_9
REMARK    6  A    between atoms: C_12  and  O_13
REMARK    7  A    between atoms: O_13  and  C_14
REMARK    8  A    between atoms: C_23  and  C_25
REMARK                            x       y       z     vdW  Elec       q    Type
REMARK                         _______ _______ _______ _____ _____    ______ ____
ROOT
ATOM      1  C   UNL     1      36.116   4.167  13.925  0.00  0.00    +0.000 C 
ATOM      2  C   UNL     1      35.589   2.975  13.876  0.00  0.00    +0.000 C 
ENDROOT
BRANCH   2   3
ATOM      3  C   UNL     1      35.656   1.998  14.953  0.00  0.00    +0.000 A 
ATOM      4  C   UNL     1      35.119   2.248  16.198  0.00  0.00    +0.000 A 
ATOM      5  C   UNL     1      35.190   1.312  17.215  0.00  0.00    +0.000 A 
ATOM      6  C   UNL     1      35.819   0.120  16.922  0.00  0.00    +0.000 A 
ATOM      7  C   UNL     1      36.364  -0.145  15.669  0.00  0.00    +0.000 A 
ATOM      8  C   UNL     1      36.991  -1.353  15.408  0.00  0.00    +0.000 A 
ATOM      9  C   UNL     1      37.513  -1.573  14.163  0.00  0.00    +0.000 A 
ATOM     10  C   UNL     1      37.435  -0.627  13.154  0.00  0.00    +0.000 A 
ATOM     11  C   UNL     1      36.807   0.561  13.449  0.00  0.00    +0.000 A 
ATOM     12  C   UNL     1      36.283   0.791  14.688  0.00  0.00    +0.000 A 
BRANCH   6  13
ATOM     13  O   UNL     1      35.951  -0.898  17.863  0.00  0.00    +0.000 OA
BRANCH  13  14
ATOM     14  C   UNL     1      36.603  -0.655  19.077  0.00  0.00    +0.000 C 
ATOM     15  C   UNL     1      37.433  -1.853  19.481  0.00  0.00    +0.000 C 
ENDBRANCH  13  14
ENDBRANCH   6  13
ENDBRANCH   2   3
BRANCH   1  17
ATOM     16  N   UNL     1      35.134   6.179  12.741  0.00  0.00    +0.000 NA
ATOM     17  C   UNL     1      35.978   5.052  12.778  0.00  0.00    +0.000 C 
ATOM     18  O   UNL     1      36.652   4.814  11.724  0.00  0.00    +0.000 OA
BRANCH  16  19
ATOM     19  C   UNL     1      35.044   7.027  11.552  0.00  0.00    +0.000 C 
BRANCH  19  21
ATOM     20  C   UNL     1      34.649   9.446  11.886  0.00  0.00    +0.000 C 
ATOM     21  C   UNL     1      34.200   8.200  11.910  0.00  0.00    +0.000 C 
ENDBRANCH  19  21
ENDBRANCH  16  19
ENDBRANCH   1  17
BRANCH   1  22
ATOM     22  N   UNL     1      36.804   4.580  15.078  0.00  0.00    +0.000 NA
ATOM     23  C   UNL     1      38.219   4.708  15.120  0.00  0.00    +0.000 C 
ATOM     24  O   UNL     1      38.840   4.432  14.061  0.00  0.00    +0.000 OA
BRANCH  23  25
ATOM     25  C   UNL     1      38.943   5.135  16.311  0.00  0.00    +0.000 A 
ATOM     26  C   UNL     1      40.136   5.816  16.239  0.00  0.00    +0.000 A 
ATOM     27  C   UNL     1      40.760   6.186  17.415  0.00  0.00    +0.000 A 
ATOM     28  C   UNL     1      40.244   5.905  18.662  0.00  0.00    +0.000 A 
ATOM     29  C   UNL     1      39.052   5.224  18.725  0.00  0.00    +0.000 A 
ATOM     30  C   UNL     1      38.421   4.850  17.561  0.00  0.00    +0.000 A 
ENDBRANCH  23  25
ENDBRANCH   1  22
TORSDOF 8
ENDMDL
MODEL 3
REMARK VINA RESULT:      -6.9      2.598      3.919
REMARK  Name = 
REMARK  8 active torsions:
REMARK  status: ('A' for Active; 'I' for Inactive)
REMARK    1  A    between atoms: C_2  and  C_3
REMARK    2  A    between atoms: C_3  and  N_4
REMARK    3  A    between atoms: C_5  and  C_7
REMARK    4  A    between atoms: C_7  and  N_22
REMARK    5  A    between atoms: C_8  and  C_9
REMARK    6  A    between atoms: C_12  and  O_13
REMARK    7  A    between atoms: O_13  and  C_14
REMARK    8  A    between atoms: C_23  and  C_25
REMARK                            x       y       z     vdW  Elec       q    Type
REMARK                         _______ _______ _______ _____ _____    ______ ____
ROOT
ATOM      1  C   UNL     1      37.707   2.698  13.084  0.00  0.00    +0.000 C 
ATOM      2  C   UNL     1      36.773   1.791  13.145  0.00  0.00    +0.000 C 
ENDROOT
BRANCH   2   3
ATOM      3  C   UNL     1      36.309   1.165  14.374  0.00  0.00    +0.000 A 
ATOM      4  C   UNL     1      35.594   1.866  15.324  0.00  0.00    +0.000 A 
ATOM      5  C   UNL     1      35.159   1.260  16.490  0.00  0.00    +0.000 A 
ATOM      6  C   UNL     1      35.473  -0.073  16.654  0.00  0.00    +0.000 A 
ATOM      7  C   UNL     1      36.192  -0.791  15.703  0.00  0.00    +0.000 A 
ATOM      8  C   UNL     1      36.490  -2.130  15.900  0.00  0.00    +0.000 A 
ATOM      9  C   UNL     1      37.199  -2.799  14.939  0.00  0.00    +0.000 A 
ATOM     10  C   UNL     1      37.629  -2.180  13.777  0.00  0.00    +0.000 A 
ATOM     11  C   UNL     1      37.315  -0.850  13.616  0.00  0.00    +0.000 A 
ATOM     12  C   UNL     1      36.608  -0.174  14.567  0.00  0.00    +0.000 A 
BRANCH   6  13
ATOM     13  O   UNL     1      35.089  -0.790  17.785  0.00  0.00    +0.000 OA
BRANCH  13  14
ATOM     14  C   UNL     1      35.595  -0.445  19.043  0.00  0.00    +0.000 C 
ATOM     15  C   UNL     1      36.801  -1.294  19.378  0.00  0.00    +0.000 C 
ENDBRANCH  13  14
ENDBRANCH   6  13
ENDBRANCH   2   3
BRANCH   1  17
ATOM     16  N   UNL     1      37.163   3.749  10.844  0.00  0.00    +0.000 NA
ATOM     17  C   UNL     1      38.081   3.247  11.788  0.00  0.00    +0.000 C 
ATOM     18  O   UNL     1      39.310   3.288  11.460  0.00  0.00    +0.000 OA
BRANCH  16  19
ATOM     19  C   UNL     1      37.608   4.286   9.558  0.00  0.00    +0.000 C 
BRANCH  19  21
ATOM     20  C   UNL     1      35.745   3.402   8.191  0.00  0.00    +0.000 C 
ATOM     21  C   UNL     1      36.400   4.434   8.700  0.00  0.00    +0.000 C 
ENDBRANCH  19  21
ENDBRANCH  16  19
ENDBRANCH   1  17
BRANCH   1  22
ATOM     22  N   UNL     1      38.338   3.133  14.262  0.00  0.00    +0.000 NA
ATOM     23  C   UNL     1      38.039   4.380  14.874  0.00  0.00    +0.000 C 
ATOM     24  O   UNL     1      37.169   5.091  14.307  0.00  0.00    +0.000 OA
BRANCH  23  25
ATOM     25  C   UNL     1      38.688   4.841  16.096  0.00  0.00    +0.000 A 
ATOM     26  C   UNL     1      38.205   4.529  17.345  0.00  0.00    +0.000 A 
ATOM     27  C   UNL     1      38.879   5.005  18.454  0.00  0.00    +0.000 A 
ATOM     28  C   UNL     1      40.015   5.781  18.369  0.00  0.00    +0.000 A 
ATOM     29  C   UNL     1      40.490   6.089  17.116  0.00  0.00    +0.000 A 
ATOM     30  C   UNL     1      39.828   5.621  16.005  0.00  0.00    +0.000 A 
ENDBRANCH  23  25
ENDBRANCH   1  22
TORSDOF 8
ENDMDL
MODEL 4
REMARK VINA RESULT:      -6.9      2.365      6.298
REMARK  Name = 
REMARK  8 active torsions:
REMARK  status: ('A' for Active; 'I' for Inactive)
REMARK    1  A    between atoms: C_2  and  C_3
REMARK    2  A    between atoms: C_3  and  N_4
REMARK    3  A    between atoms: C_5  and  C_7
REMARK    4  A    between atoms: C_7  and  N_22
REMARK    5  A    between atoms: C_8  and  C_9
REMARK    6  A    between atoms: C_12  and  O_13
REMARK    7  A    between atoms: O_13  and  C_14
REMARK    8  A    between atoms: C_23  and  C_25
REMARK                            x       y       z     vdW  Elec       q    Type
REMARK                         _______ _______ _______ _____ _____    ______ ____
ROOT
ATOM      1  C   UNL     1      35.829   2.650  16.272  0.00  0.00    +0.000 C 
ATOM      2  C   UNL     1      35.353   2.730  15.061  0.00  0.00    +0.000 C 
ENDROOT
BRANCH   2   3
ATOM      3  C   UNL     1      35.616   3.828  14.142  0.00  0.00    +0.000 A 
ATOM      4  C   UNL     1      35.006   5.057  14.282  0.00  0.00    +0.000 A 
ATOM      5  C   UNL     1      35.262   6.093  13.400  0.00  0.00    +0.000 A 
ATOM      6  C   UNL     1      36.155   5.837  12.381  0.00  0.00    +0.000 A 
ATOM      7  C   UNL     1      36.777   4.602  12.229  0.00  0.00    +0.000 A 
ATOM      8  C   UNL     1      37.670   4.378  11.193  0.00  0.00    +0.000 A 
ATOM      9  C   UNL     1      38.260   3.148  11.080  0.00  0.00    +0.000 A 
ATOM     10  C   UNL     1      37.994   2.120  11.970  0.00  0.00    +0.000 A 
ATOM     11  C   UNL     1      37.103   2.378  12.986  0.00  0.00    +0.000 A 
ATOM     12  C   UNL     1      36.509   3.600  13.107  0.00  0.00    +0.000 A 
BRANCH   6  13
ATOM     13  O   UNL     1      36.493   6.801  11.433  0.00  0.00    +0.000 OA
BRANCH  13  14
ATOM     14  C   UNL     1      35.494   7.432  10.684  0.00  0.00    +0.000 C 
ATOM     15  C   UNL     1      35.332   6.754   9.342  0.00  0.00    +0.000 C 
ENDBRANCH  13  14
ENDBRANCH   6  13
ENDBRANCH   2   3
BRANCH   1  17
ATOM     16  N   UNL     1      36.356   0.914  18.041  0.00  0.00    +0.000 NA
ATOM     17  C   UNL     1      35.491   1.496  17.093  0.00  0.00    +0.000 C 
ATOM     18  O   UNL     1      34.345   0.957  16.967  0.00  0.00    +0.000 OA
BRANCH  16  19
ATOM     19  C   UNL     1      35.951  -0.247  18.832  0.00  0.00    +0.000 C 
BRANCH  19  21
ATOM     20  C   UNL     1      37.604  -1.985  19.441  0.00  0.00    +0.000 C 
ATOM     21  C   UNL     1      36.900  -1.350  18.516  0.00  0.00    +0.000 C 
ENDBRANCH  19  21
ENDBRANCH  16  19
ENDBRANCH   1  17
BRANCH   1  22
ATOM     22  N   UNL     1      36.660   3.670  16.766  0.00  0.00    +0.000 NA
ATOM     23  C   UNL     1      38.061   3.692  16.539  0.00  0.00    +0.000 C 
ATOM     24  O   UNL     1      38.538   2.744  15.863  0.00  0.00    +0.000 OA
BRANCH  23  25
ATOM     25  C   UNL     1      38.933   4.746  17.048  0.00  0.00    +0.000 A 
ATOM     26  C   UNL     1      39.766   5.469  16.227  0.00  0.00    +0.000 A 
ATOM     27  C   UNL     1      40.560   6.451  16.787  0.00  0.00    +0.000 A 
ATOM     28  C   UNL     1      40.558   6.743  18.135  0.00  0.00    +0.000 A 
ATOM     29  C   UNL     1      39.722   6.015  18.948  0.00  0.00    +0.000 A 
ATOM     30  C   UNL     1      38.927   5.035  18.402  0.00  0.00    +0.000 A 
ENDBRANCH  23  25
ENDBRANCH   1  22
TORSDOF 8
ENDMDL
MODEL 5
REMARK VINA RESULT:      -6.8      3.023      5.959
REMARK  Name = 
REMARK  8 active torsions:
REMARK  status: ('A' for Active; 'I' for Inactive)
REMARK    1  A    between atoms: C_2  and  C_3
REMARK    2  A    between atoms: C_3  and  N_4
REMARK    3  A    between atoms: C_5  and  C_7
REMARK    4  A    between atoms: C_7  and  N_22
REMARK    5  A    between atoms: C_8  and  C_9
REMARK    6  A    between atoms: C_12  and  O_13
REMARK    7  A    between atoms: O_13  and  C_14
REMARK    8  A    between atoms: C_23  and  C_25
REMARK                            x       y       z     vdW  Elec       q    Type
REMARK                         _______ _______ _______ _____ _____    ______ ____
ROOT
ATOM      1  C   UNL     1      38.451   3.159  15.302  0.00  0.00    +0.000 C 
ATOM      2  C   UNL     1      39.121   3.220  14.185  0.00  0.00    +0.000 C 
ENDROOT
BRANCH   2   3
ATOM      3  C   UNL     1      39.345   2.092  13.294  0.00  0.00    +0.000 A 
ATOM      4  C   UNL     1      40.144   1.027  13.654  0.00  0.00    +0.000 A 
ATOM      5  C   UNL     1      40.351  -0.040  12.798  0.00  0.00    +0.000 A 
ATOM      6  C   UNL     1      39.722   0.013  11.572  0.00  0.00    +0.000 A 
ATOM      7  C   UNL     1      38.914   1.081  11.196  0.00  0.00    +0.000 A 
ATOM      8  C   UNL     1      38.296   1.103   9.956  0.00  0.00    +0.000 A 
ATOM      9  C   UNL     1      37.509   2.173   9.627  0.00  0.00    +0.000 A 
ATOM     10  C   UNL     1      37.310   3.235  10.494  0.00  0.00    +0.000 A 
ATOM     11  C   UNL     1      37.939   3.179  11.716  0.00  0.00    +0.000 A 
ATOM     12  C   UNL     1      38.726   2.118  12.054  0.00  0.00    +0.000 A 
BRANCH   6  13
ATOM     13  O   UNL     1      39.855  -1.002  10.627  0.00  0.00    +0.000 OA
BRANCH  13  14
ATOM     14  C   UNL     1      40.135  -2.311  11.035  0.00  0.00    +0.000 C 
ATOM     15  C   UNL     1      40.681  -3.119   9.879  0.00  0.00    +0.000 C 
ENDBRANCH  13  14
ENDBRANCH   6  13
ENDBRANCH   2   3
BRANCH   1  17
ATOM     16  N   UNL     1      38.728   4.487  17.441  0.00  0.00    +0.000 NA
ATOM     17  C   UNL     1      38.297   4.363  16.105  0.00  0.00    +0.000 C 
ATOM     18  O   UNL     1      37.740   5.387  15.592  0.00  0.00    +0.000 OA
BRANCH  16  19
ATOM     19  C   UNL     1      38.540   5.729  18.191  0.00  0.00    +0.000 C 
BRANCH  19  21
ATOM     20  C   UNL     1      39.831   6.874  19.965  0.00  0.00    +0.000 C 
ATOM     21  C   UNL     1      39.686   5.853  19.133  0.00  0.00    +0.000 C 
ENDBRANCH  19  21
ENDBRANCH  16  19
ENDBRANCH   1  17
BRANCH   1  22
ATOM     22  N   UNL     1      37.889   1.939  15.714  0.00  0.00    +0.000 NA
ATOM     23  C   UNL     1      36.564   1.555  15.375  0.00  0.00    +0.000 C 
ATOM     24  O   UNL     1      35.903   2.367  14.677  0.00  0.00    +0.000 OA
BRANCH  23  25
ATOM     25  C   UNL     1      35.969   0.292  15.798  0.00  0.00    +0.000 A 
ATOM     26  C   UNL     1      36.295  -0.906  15.206  0.00  0.00    +0.000 A 
ATOM     27  C   UNL     1      35.688  -2.059  15.666  0.00  0.00    +0.000 A 
ATOM     28  C   UNL     1      34.768  -2.068  16.692  0.00  0.00    +0.000 A 
ATOM     29  C   UNL     1      34.448  -0.866  17.279  0.00  0.00    +0.000 A 
ATOM     30  C   UNL     1      35.046   0.289  16.830  0.00  0.00    +0.000 A 
ENDBRANCH  23  25
ENDBRANCH   1  22
TORSDOF 8
ENDMDL
MODEL 6
REMARK VINA RESULT:      -6.8     23.960     26.843
REMARK  Name = 
REMARK  8 active torsions:
REMARK  status: ('A' for Active; 'I' for Inactive)
REMARK    1  A    between atoms: C_2  and  C_3
REMARK    2  A    between atoms: C_3  and  N_4
REMARK    3  A    between atoms: C_5  and  C_7
REMARK    4  A    between atoms: C_7  and  N_22
REMARK    5  A    between atoms: C_8  and  C_9
REMARK    6  A    between atoms: C_12  and  O_13
REMARK    7  A    between atoms: O_13  and  C_14
REMARK    8  A    between atoms: C_23  and  C_25
REMARK                            x       y       z     vdW  Elec       q    Type
REMARK                         _______ _______ _______ _____ _____    ______ ____
ROOT
ATOM      1  C   UNL     1      27.354  16.094  37.341  0.00  0.00    +0.000 C 
ATOM      2  C   UNL     1      26.095  16.128  37.004  0.00  0.00    +0.000 C 
ENDROOT
BRANCH   2   3
ATOM      3  C   UNL     1      25.561  16.881  35.879  0.00  0.00    +0.000 A 
ATOM      4  C   UNL     1      25.206  18.208  35.994  0.00  0.00    +0.000 A 
ATOM      5  C   UNL     1      24.698  18.914  34.918  0.00  0.00    +0.000 A 
ATOM      6  C   UNL     1      24.565  18.227  33.729  0.00  0.00    +0.000 A 
ATOM      7  C   UNL     1      24.920  16.888  33.600  0.00  0.00    +0.000 A 
ATOM      8  C   UNL     1      24.774  16.228  32.390  0.00  0.00    +0.000 A 
ATOM      9  C   UNL     1      25.135  14.910  32.307  0.00  0.00    +0.000 A 
ATOM     10  C   UNL     1      25.643  14.216  33.393  0.00  0.00    +0.000 A 
ATOM     11  C   UNL     1      25.774  14.904  34.577  0.00  0.00    +0.000 A 
ATOM     12  C   UNL     1      25.417  16.217  34.672  0.00  0.00    +0.000 A 
BRANCH   6  13
ATOM     13  O   UNL     1      24.067  18.831  32.577  0.00  0.00    +0.000 OA
BRANCH  13  14
ATOM     14  C   UNL     1      24.454  20.133  32.241  0.00  0.00    +0.000 C 
ATOM     15  C   UNL     1      23.241  20.983  31.934  0.00  0.00    +0.000 C 
ENDBRANCH  13  14
ENDBRANCH   6  13
ENDBRANCH   2   3
BRANCH   1  17
ATOM     16  N   UNL     1      26.866  14.656  39.369  0.00  0.00    +0.000 NA
ATOM     17  C   UNL     1      27.761  15.300  38.491  0.00  0.00    +0.000 C 
ATOM     18  O   UNL     1      29.001  15.162  38.746  0.00  0.00    +0.000 OA
BRANCH  16  19
ATOM     19  C   UNL     1      27.344  13.873  40.508  0.00  0.00    +0.000 C 
BRANCH  19  21
ATOM     20  C   UNL     1      26.808  11.533  41.110  0.00  0.00    +0.000 C 
ATOM     21  C   UNL     1      26.416  12.720  40.672  0.00  0.00    +0.000 C 
ENDBRANCH  19  21
ENDBRANCH  16  19
ENDBRANCH   1  17
BRANCH   1  22
ATOM     22  N   UNL     1      28.297  16.820  36.594  0.00  0.00    +0.000 NA
ATOM     23  C   UNL     1      29.098  16.221  35.585  0.00  0.00    +0.000 C 
ATOM     24  O   UNL     1      28.923  14.991  35.384  0.00  0.00    +0.000 OA
BRANCH  23  25
ATOM     25  C   UNL     1      30.080  16.964  34.804  0.00  0.00    +0.000 A 
ATOM     26  C   UNL     1      31.102  16.340  34.126  0.00  0.00    +0.000 A 
ATOM     27  C   UNL     1      31.992  17.117  33.408  0.00  0.00    +0.000 A 
ATOM     28  C   UNL     1      31.906  18.491  33.339  0.00  0.00    +0.000 A 
ATOM     29  C   UNL     1      30.882  19.106  34.020  0.00  0.00    +0.000 A 
ATOM     30  C   UNL     1      29.990  18.344  34.738  0.00  0.00    +0.000 A 
ENDBRANCH  23  25
ENDBRANCH   1  22
TORSDOF 8
ENDMDL
MODEL 7
REMARK VINA RESULT:      -6.7      3.124      6.807
REMARK  Name = 
REMARK  8 active torsions:
REMARK  status: ('A' for Active; 'I' for Inactive)
REMARK    1  A    between atoms: C_2  and  C_3
REMARK    2  A    between atoms: C_3  and  N_4
REMARK    3  A    between atoms: C_5  and  C_7
REMARK    4  A    between atoms: C_7  and  N_22
REMARK    5  A    between atoms: C_8  and  C_9
REMARK    6  A    between atoms: C_12  and  O_13
REMARK    7  A    between atoms: O_13  and  C_14
REMARK    8  A    between atoms: C_23  and  C_25
REMARK                            x       y       z     vdW  Elec       q    Type
REMARK                         _______ _______ _______ _____ _____    ______ ____
ROOT
ATOM      1  C   UNL     1      38.383   1.302  14.603  0.00  0.00    +0.000 C 
ATOM      2  C   UNL     1      39.642   1.192  14.281  0.00  0.00    +0.000 C 
ENDROOT
BRANCH   2   3
ATOM      3  C   UNL     1      40.267  -0.030  13.796  0.00  0.00    +0.000 A 
ATOM      4  C   UNL     1      40.829  -0.951  14.654  0.00  0.00    +0.000 A 
ATOM      5  C   UNL     1      41.421  -2.108  14.181  0.00  0.00    +0.000 A 
ATOM      6  C   UNL     1      41.420  -2.295  12.815  0.00  0.00    +0.000 A 
ATOM      7  C   UNL     1      40.856  -1.374  11.938  0.00  0.00    +0.000 A 
ATOM      8  C   UNL     1      40.872  -1.592  10.570  0.00  0.00    +0.000 A 
ATOM      9  C   UNL     1      40.306  -0.660   9.743  0.00  0.00    +0.000 A 
ATOM     10  C   UNL     1      39.716   0.494  10.231  0.00  0.00    +0.000 A 
ATOM     11  C   UNL     1      39.718   0.678  11.594  0.00  0.00    +0.000 A 
ATOM     12  C   UNL     1      40.281  -0.244  12.427  0.00  0.00    +0.000 A 
BRANCH   6  13
ATOM     13  O   UNL     1      41.986  -3.422  12.221  0.00  0.00    +0.000 OA
BRANCH  13  14
ATOM     14  C   UNL     1      43.376  -3.576  12.187  0.00  0.00    +0.000 C 
ATOM     15  C   UNL     1      43.821  -4.059  10.825  0.00  0.00    +0.000 C 
ENDBRANCH  13  14
ENDBRANCH   6  13
ENDBRANCH   2   3
BRANCH   1  17
ATOM     16  N   UNL     1      38.439   3.309  16.147  0.00  0.00    +0.000 NA
ATOM     17  C   UNL     1      37.880   2.584  15.076  0.00  0.00    +0.000 C 
ATOM     18  O   UNL     1      36.870   3.106  14.505  0.00  0.00    +0.000 OA
BRANCH  16  19
ATOM     19  C   UNL     1      37.882   4.593  16.572  0.00  0.00    +0.000 C 
BRANCH  19  21
ATOM     20  C   UNL     1      39.105   5.243  18.623  0.00  0.00    +0.000 C 
ATOM     21  C   UNL     1      38.954   5.318  17.309  0.00  0.00    +0.000 C 
ENDBRANCH  19  21
ENDBRANCH  16  19
ENDBRANCH   1  17
BRANCH   1  22
ATOM     22  N   UNL     1      37.532   0.190  14.487  0.00  0.00    +0.000 NA
ATOM     23  C   UNL     1      37.213  -0.646  15.590  0.00  0.00    +0.000 C 
ATOM     24  O   UNL     1      37.732  -0.343  16.695  0.00  0.00    +0.000 OA
BRANCH  23  25
ATOM     25  C   UNL     1      36.332  -1.803  15.481  0.00  0.00    +0.000 A 
ATOM     26  C   UNL     1      36.572  -2.827  14.595  0.00  0.00    +0.000 A 
ATOM     27  C   UNL     1      35.689  -3.890  14.553  0.00  0.00    +0.000 A 
ATOM     28  C   UNL     1      34.574  -3.973  15.360  0.00  0.00    +0.000 A 
ATOM     29  C   UNL     1      34.342  -2.946  16.244  0.00  0.00    +0.000 A 
ATOM     30  C   UNL     1      35.214  -1.883  16.294  0.00  0.00    +0.000 A 
ENDBRANCH  23  25
ENDBRANCH   1  22
TORSDOF 8
ENDMDL
MODEL 8
REMARK VINA RESULT:      -6.6      2.485      3.900
REMARK  Name = 
REMARK  8 active torsions:
REMARK  status: ('A' for Active; 'I' for Inactive)
REMARK    1  A    between atoms: C_2  and  C_3
REMARK    2  A    between atoms: C_3  and  N_4
REMARK    3  A    between atoms: C_5  and  C_7
REMARK    4  A    between atoms: C_7  and  N_22
REMARK    5  A    between atoms: C_8  and  C_9
REMARK    6  A    between atoms: C_12  and  O_13
REMARK    7  A    between atoms: O_13  and  C_14
REMARK    8  A    between atoms: C_23  and  C_25
REMARK                            x       y       z     vdW  Elec       q    Type
REMARK                         _______ _______ _______ _____ _____    ______ ____
ROOT
ATOM      1  C   UNL     1      37.309   2.969  12.940  0.00  0.00    +0.000 C 
ATOM      2  C   UNL     1      37.091   1.684  12.941  0.00  0.00    +0.000 C 
ENDROOT
BRANCH   2   3
ATOM      3  C   UNL     1      37.068   0.851  14.135  0.00  0.00    +0.000 A 
ATOM      4  C   UNL     1      35.995   0.849  15.001  0.00  0.00    +0.000 A 
ATOM      5  C   UNL     1      35.985   0.054  16.134  0.00  0.00    +0.000 A 
ATOM      6  C   UNL     1      37.095  -0.734  16.352  0.00  0.00    +0.000 A 
ATOM      7  C   UNL     1      38.184  -0.741  15.485  0.00  0.00    +0.000 A 
ATOM      8  C   UNL     1      39.285  -1.546  15.734  0.00  0.00    +0.000 A 
ATOM      9  C   UNL     1      40.334  -1.523  14.856  0.00  0.00    +0.000 A 
ATOM     10  C   UNL     1      40.331  -0.722  13.726  0.00  0.00    +0.000 A 
ATOM     11  C   UNL     1      39.221   0.063  13.511  0.00  0.00    +0.000 A 
ATOM     12  C   UNL     1      38.170   0.048  14.380  0.00  0.00    +0.000 A 
BRANCH   6  13
ATOM     13  O   UNL     1      37.200  -1.576  17.457  0.00  0.00    +0.000 OA
BRANCH  13  14
ATOM     14  C   UNL     1      36.228  -2.555  17.690  0.00  0.00    +0.000 C 
ATOM     15  C   UNL     1      36.166  -3.524  16.531  0.00  0.00    +0.000 C 
ENDBRANCH  13  14
ENDBRANCH   6  13
ENDBRANCH   2   3
BRANCH   1  17
ATOM     16  N   UNL     1      37.191   3.075  10.412  0.00  0.00    +0.000 NA
ATOM     17  C   UNL     1      37.305   3.689  11.675  0.00  0.00    +0.000 C 
ATOM     18  O   UNL     1      37.413   4.957  11.680  0.00  0.00    +0.000 OA
BRANCH  16  19
ATOM     19  C   UNL     1      37.195   3.860   9.178  0.00  0.00    +0.000 C 
BRANCH  19  21
ATOM     20  C   UNL     1      35.699   3.943   7.208  0.00  0.00    +0.000 C 
ATOM     21  C   UNL     1      35.934   3.547   8.451  0.00  0.00    +0.000 C 
ENDBRANCH  19  21
ENDBRANCH  16  19
ENDBRANCH   1  17
BRANCH   1  22
ATOM     22  N   UNL     1      37.542   3.640  14.153  0.00  0.00    +0.000 NA
ATOM     23  C   UNL     1      38.848   3.853  14.669  0.00  0.00    +0.000 C 
ATOM     24  O   UNL     1      39.805   3.410  13.982  0.00  0.00    +0.000 OA
BRANCH  23  25
ATOM     25  C   UNL     1      39.102   4.547  15.927  0.00  0.00    +0.000 A 
ATOM     26  C   UNL     1      38.394   4.270  17.073  0.00  0.00    +0.000 A 
ATOM     27  C   UNL     1      38.696   4.972  18.225  0.00  0.00    +0.000 A 
ATOM     28  C   UNL     1      39.675   5.940  18.281  0.00  0.00    +0.000 A 
ATOM     29  C   UNL     1      40.378   6.211  17.131  0.00  0.00    +0.000 A 
ATOM     30  C   UNL     1      40.087   5.518  15.978  0.00  0.00    +0.000 A 
ENDBRANCH  23  25
ENDBRANCH   1  22
TORSDOF 8
ENDMDL
MODEL 9
REMARK VINA RESULT:      -6.6      2.793      6.974
REMARK  Name = 
REMARK  8 active torsions:
REMARK  status: ('A' for Active; 'I' for Inactive)
REMARK    1  A    between atoms: C_2  and  C_3
REMARK    2  A    between atoms: C_3  and  N_4
REMARK    3  A    between atoms: C_5  and  C_7
REMARK    4  A    between atoms: C_7  and  N_22
REMARK    5  A    between atoms: C_8  and  C_9
REMARK    6  A    between atoms: C_12  and  O_13
REMARK    7  A    between atoms: O_13  and  C_14
REMARK    8  A    between atoms: C_23  and  C_25
REMARK                            x       y       z     vdW  Elec       q    Type
REMARK                         _______ _______ _______ _____ _____    ______ ____
ROOT
ATOM      1  C   UNL     1      36.701   1.866  16.155  0.00  0.00    +0.000 C 
ATOM      2  C   UNL     1      36.604   3.166  16.104  0.00  0.00    +0.000 C 
ENDROOT
BRANCH   2   3
ATOM      3  C   UNL     1      37.600   4.045  15.511  0.00  0.00    +0.000 A 
ATOM      4  C   UNL     1      37.702   4.214  14.146  0.00  0.00    +0.000 A 
ATOM      5  C   UNL     1      38.655   5.053  13.593  0.00  0.00    +0.000 A 
ATOM      6  C   UNL     1      39.492   5.709  14.471  0.00  0.00    +0.000 A 
ATOM      7  C   UNL     1      39.399   5.547  15.849  0.00  0.00    +0.000 A 
ATOM      8  C   UNL     1      40.257   6.222  16.704  0.00  0.00    +0.000 A 
ATOM      9  C   UNL     1      40.131   6.035  18.053  0.00  0.00    +0.000 A 
ATOM     10  C   UNL     1      39.173   5.192  18.593  0.00  0.00    +0.000 A 
ATOM     11  C   UNL     1      38.339   4.539  17.715  0.00  0.00    +0.000 A 
ATOM     12  C   UNL     1      38.456   4.718  16.368  0.00  0.00    +0.000 A 
BRANCH   6  13
ATOM     13  O   UNL     1      40.489   6.579  14.033  0.00  0.00    +0.000 OA
BRANCH  13  14
ATOM     14  C   UNL     1      41.363   6.190  13.012  0.00  0.00    +0.000 C 
ATOM     15  C   UNL     1      42.438   5.275  13.557  0.00  0.00    +0.000 C 
ENDBRANCH  13  14
ENDBRANCH   6  13
ENDBRANCH   2   3
BRANCH   1  17
ATOM     16  N   UNL     1      35.798  -0.184  17.338  0.00  0.00    +0.000 NA
ATOM     17  C   UNL     1      35.632   1.098  16.777  0.00  0.00    +0.000 C 
ATOM     18  O   UNL     1      34.460   1.592  16.831  0.00  0.00    +0.000 OA
BRANCH  16  19
ATOM     19  C   UNL     1      34.679  -0.901  17.948  0.00  0.00    +0.000 C 
BRANCH  19  21
ATOM     20  C   UNL     1      35.161  -2.820  16.462  0.00  0.00    +0.000 C 
ATOM     21  C   UNL     1      34.287  -1.988  17.009  0.00  0.00    +0.000 C 
ENDBRANCH  19  21
ENDBRANCH  16  19
ENDBRANCH   1  17
BRANCH   1  22
ATOM     22  N   UNL     1      37.828   1.227  15.611  0.00  0.00    +0.000 NA
ATOM     23  C   UNL     1      37.800   0.571  14.351  0.00  0.00    +0.000 C 
ATOM     24  O   UNL     1      36.706   0.587  13.731  0.00  0.00    +0.000 OA
BRANCH  23  25
ATOM     25  C   UNL     1      38.964  -0.096  13.777  0.00  0.00    +0.000 A 
ATOM     26  C   UNL     1      39.002  -0.502  12.464  0.00  0.00    +0.000 A 
ATOM     27  C   UNL     1      40.143  -1.127  11.996  0.00  0.00    +0.000 A 
ATOM     28  C   UNL     1      41.248  -1.366  12.785  0.00  0.00    +0.000 A 
ATOM     29  C   UNL     1      41.200  -0.957  14.097  0.00  0.00    +0.000 A 
ATOM     30  C   UNL     1      40.071  -0.333  14.574  0.00  0.00    +0.000 A 
ENDBRANCH  23  25
ENDBRANCH   1  22
TORSDOF 8
ENDMDL
MODEL 10
REMARK VINA RESULT:      -6.3     26.032     29.447
REMARK  Name = 
REMARK  8 active torsions:
REMARK  status: ('A' for Active; 'I' for Inactive)
REMARK    1  A    between atoms: C_2  and  C_3
REMARK    2  A    between atoms: C_3  and  N_4
REMARK    3  A    between atoms: C_5  and  C_7
REMARK    4  A    between atoms: C_7  and  N_22
REMARK    5  A    between atoms: C_8  and  C_9
REMARK    6  A    between atoms: C_12  and  O_13
REMARK    7  A    between atoms: O_13  and  C_14
REMARK    8  A    between atoms: C_23  and  C_25
REMARK                            x       y       z     vdW  Elec       q    Type
REMARK                         _______ _______ _______ _____ _____    ______ ____
ROOT
ATOM      1  C   UNL     1      25.797  15.348  38.386  0.00  0.00    +0.000 C 
ATOM      2  C   UNL     1      26.257  15.589  37.191  0.00  0.00    +0.000 C 
ENDROOT
BRANCH   2   3
ATOM      3  C   UNL     1      25.666  16.531  36.252  0.00  0.00    +0.000 A 
ATOM      4  C   UNL     1      25.308  17.808  36.630  0.00  0.00    +0.000 A 
ATOM      5  C   UNL     1      24.745  18.695  35.729  0.00  0.00    +0.000 A 
ATOM      6  C   UNL     1      24.562  18.242  34.440  0.00  0.00    +0.000 A 
ATOM      7  C   UNL     1      24.919  16.956  34.046  0.00  0.00    +0.000 A 
ATOM      8  C   UNL     1      24.721  16.532  32.741  0.00  0.00    +0.000 A 
ATOM      9  C   UNL     1      25.088  15.259  32.396  0.00  0.00    +0.000 A 
ATOM     10  C   UNL     1      25.650  14.382  33.308  0.00  0.00    +0.000 A 
ATOM     11  C   UNL     1      25.832  14.837  34.593  0.00  0.00    +0.000 A 
ATOM     12  C   UNL     1      25.470  16.103  34.949  0.00  0.00    +0.000 A 
BRANCH   6  13
ATOM     13  O   UNL     1      24.005  19.043  33.445  0.00  0.00    +0.000 OA
BRANCH  13  14
ATOM     14  C   UNL     1      24.376  20.387  33.335  0.00  0.00    +0.000 C 
ATOM     15  C   UNL     1      25.802  20.504  32.842  0.00  0.00    +0.000 C 
ENDBRANCH  13  14
ENDBRANCH   6  13
ENDBRANCH   2   3
BRANCH   1  17
ATOM     16  N   UNL     1      25.837  13.349  39.941  0.00  0.00    +0.000 NA
ATOM     17  C   UNL     1      26.483  14.380  39.230  0.00  0.00    +0.000 C 
ATOM     18  O   UNL     1      27.748  14.446  39.352  0.00  0.00    +0.000 OA
BRANCH  16  19
ATOM     19  C   UNL     1      26.589  12.409  40.773  0.00  0.00    +0.000 C 
BRANCH  19  21
ATOM     20  C   UNL     1      25.964  11.191  42.834  0.00  0.00    +0.000 C 
ATOM     21  C   UNL     1      25.838  12.250  42.049  0.00  0.00    +0.000 C 
ENDBRANCH  19  21
ENDBRANCH  16  19
ENDBRANCH   1  17
BRANCH   1  22
ATOM     22  N   UNL     1      24.652  16.023  38.844  0.00  0.00    +0.000 NA
ATOM     23  C   UNL     1      24.701  16.998  39.876  0.00  0.00    +0.000 C 
ATOM     24  O   UNL     1      25.833  17.237  40.372  0.00  0.00    +0.000 OA
BRANCH  23  25
ATOM     25  C   UNL     1      23.520  17.703  40.359  0.00  0.00    +0.000 A 
ATOM     26  C   UNL     1      22.703  17.182  41.335  0.00  0.00    +0.000 A 
ATOM     27  C   UNL     1      21.602  17.914  41.739  0.00  0.00    +0.000 A 
ATOM     28  C   UNL     1      21.281  19.146  41.209  0.00  0.00    +0.000 A 
ATOM     29  C   UNL     1      22.104  19.659  40.234  0.00  0.00    +0.000 A 
ATOM     30  C   UNL     1      23.202  18.940  39.824  0.00  0.00    +0.000 A 
ENDBRANCH  23  25
ENDBRANCH   1  22
TORSDOF 8
ENDMDL
