MODEL 1
REMARK VINA RESULT:      -7.3      0.000      0.000
REMARK  Name = 
REMARK  2 active torsions:
REMARK  status: ('A' for Active; 'I' for Inactive)
REMARK    1  A    between atoms: O_2  and  C_3
REMARK    2  A    between atoms: C_6  and  C_7
REMARK                            x       y       z     vdW  Elec       q    Type
REMARK                         _______ _______ _______ _____ _____    ______ ____
ROOT
ATOM      1  C   UNL     1      18.075   9.566  34.979  0.00  0.00    +0.000 C 
ATOM      2  C   UNL     1      17.175  10.393  34.523  0.00  0.00    +0.000 C 
ATOM      3  O   UNL     1      16.634  10.511  33.237  0.00  0.00    +0.000 OA
ATOM      4  C   UNL     1      15.702  11.531  33.226  0.00  0.00    +0.000 A 
ATOM      5  C   UNL     1      15.597  12.107  34.483  0.00  0.00    +0.000 A 
ATOM      6  C   UNL     1      14.714  13.150  34.673  0.00  0.00    +0.000 A 
ATOM      7  C   UNL     1      13.931  13.634  33.644  0.00  0.00    +0.000 A 
ATOM      8  C   UNL     1      14.038  13.063  32.411  0.00  0.00    +0.000 A 
ATOM      9  O   UNL     1      13.255  13.546  31.393  0.00  0.00    +0.000 OA
ATOM     10  C   UNL     1      14.912  12.030  32.217  0.00  0.00    +0.000 A 
ATOM     11  C   UNL     1      14.996  11.425  30.863  0.00  0.00    +0.000 C 
ATOM     12  C   UNL     1      16.526  11.412  35.352  0.00  0.00    +0.000 C 
ATOM     13  O   UNL     1      16.693  11.672  36.563  0.00  0.00    +0.000 OA
ENDROOT
BRANCH   1  17
ATOM     14  C   UNL     1      19.705   9.474  38.873  0.00  0.00    +0.000 A 
ATOM     15  C   UNL     1      20.438   9.919  37.808  0.00  0.00    +0.000 A 
ATOM     16  C   UNL     1      19.891   9.933  36.557  0.00  0.00    +0.000 A 
ATOM     17  C   UNL     1      18.587   9.502  36.320  0.00  0.00    +0.000 A 
ATOM     18  C   UNL     1      17.891   9.067  37.421  0.00  0.00    +0.000 A 
ATOM     19  C   UNL     1      18.421   9.044  38.686  0.00  0.00    +0.000 A 
BRANCH  14  21
ATOM     20  C   UNL     1      19.358   9.512  41.252  0.00  0.00    +0.000 C 
ATOM     21  O   UNL     1      20.234   9.444  40.150  0.00  0.00    +0.000 OA
ENDBRANCH  14  21
ENDBRANCH   1  17
TORSDOF 2
ENDMDL
MODEL 2
REMARK VINA RESULT:      -6.9     20.016     21.769
REMARK  Name = 
REMARK  2 active torsions:
REMARK  status: ('A' for Active; 'I' for Inactive)
REMARK    1  A    between atoms: O_2  and  C_3
REMARK    2  A    between atoms: C_6  and  C_7
REMARK                            x       y       z     vdW  Elec       q    Type
REMARK                         _______ _______ _______ _____ _____    ______ ____
ROOT
ATOM      1  C   UNL     1      23.641   2.726  18.644  0.00  0.00    +0.000 C 
ATOM      2  C   UNL     1      24.505   3.600  18.207  0.00  0.00    +0.000 C 
ATOM      3  O   UNL     1      25.577   4.210  18.870  0.00  0.00    +0.000 OA
ATOM      4  C   UNL     1      26.223   5.068  18.000  0.00  0.00    +0.000 A 
ATOM      5  C   UNL     1      25.610   5.050  16.757  0.00  0.00    +0.000 A 
ATOM      6  C   UNL     1      26.111   5.847  15.748  0.00  0.00    +0.000 A 
ATOM      7  C   UNL     1      27.209   6.662  15.945  0.00  0.00    +0.000 A 
ATOM      8  C   UNL     1      27.807   6.674  17.170  0.00  0.00    +0.000 A 
ATOM      9  O   UNL     1      28.899   7.483  17.359  0.00  0.00    +0.000 OA
ATOM     10  C   UNL     1      27.314   5.887  18.173  0.00  0.00    +0.000 A 
ATOM     11  C   UNL     1      27.996   5.917  19.492  0.00  0.00    +0.000 C 
ATOM     12  C   UNL     1      24.499   4.123  16.839  0.00  0.00    +0.000 C 
ATOM     13  O   UNL     1      23.724   3.859  15.894  0.00  0.00    +0.000 OA
ENDROOT
BRANCH   1  17
ATOM     14  C   UNL     1      20.372   1.140  16.492  0.00  0.00    +0.000 A 
ATOM     15  C   UNL     1      20.231   2.249  17.281  0.00  0.00    +0.000 A 
ATOM     16  C   UNL     1      21.301   2.739  17.973  0.00  0.00    +0.000 A 
ATOM     17  C   UNL     1      22.558   2.139  17.903  0.00  0.00    +0.000 A 
ATOM     18  C   UNL     1      22.649   1.032  17.097  0.00  0.00    +0.000 A 
ATOM     19  C   UNL     1      21.587   0.522  16.395  0.00  0.00    +0.000 A 
BRANCH  14  21
ATOM     20  C   UNL     1      18.098   1.345  15.742  0.00  0.00    +0.000 C 
ATOM     21  O   UNL     1      19.304   0.619  15.785  0.00  0.00    +0.000 OA
ENDBRANCH  14  21
ENDBRANCH   1  17
TORSDOF 2
ENDMDL
MODEL 3
REMARK VINA RESULT:      -6.8      3.487      4.904
REMARK  Name = 
REMARK  2 active torsions:
REMARK  status: ('A' for Active; 'I' for Inactive)
REMARK    1  A    between atoms: O_2  and  C_3
REMARK    2  A    between atoms: C_6  and  C_7
REMARK                            x       y       z     vdW  Elec       q    Type
REMARK                         _______ _______ _______ _____ _____    ______ ____
ROOT
ATOM      1  C   UNL     1      17.337   9.406  39.891  0.00  0.00    +0.000 C 
ATOM      2  C   UNL     1      16.617  10.063  39.024  0.00  0.00    +0.000 C 
ATOM      3  O   UNL     1      16.974  10.585  37.775  0.00  0.00    +0.000 OA
ATOM      4  C   UNL     1      15.874  11.198  37.206  0.00  0.00    +0.000 A 
ATOM      5  C   UNL     1      14.776  11.100  38.045  0.00  0.00    +0.000 A 
ATOM      6  C   UNL     1      13.577  11.658  37.651  0.00  0.00    +0.000 A 
ATOM      7  C   UNL     1      13.442  12.310  36.441  0.00  0.00    +0.000 A 
ATOM      8  C   UNL     1      14.526  12.402  35.620  0.00  0.00    +0.000 A 
ATOM      9  O   UNL     1      14.387  13.048  34.418  0.00  0.00    +0.000 OA
ATOM     10  C   UNL     1      15.717  11.852  36.006  0.00  0.00    +0.000 A 
ATOM     11  C   UNL     1      16.876  11.963  35.083  0.00  0.00    +0.000 C 
ATOM     12  C   UNL     1      15.202  10.380  39.228  0.00  0.00    +0.000 C 
ATOM     13  O   UNL     1      14.462  10.110  40.199  0.00  0.00    +0.000 OA
ENDROOT
BRANCH   1  17
ATOM     14  C   UNL     1      16.062   8.065  43.687  0.00  0.00    +0.000 A 
ATOM     15  C   UNL     1      16.572   9.323  43.513  0.00  0.00    +0.000 A 
ATOM     16  C   UNL     1      16.984   9.731  42.278  0.00  0.00    +0.000 A 
ATOM     17  C   UNL     1      16.902   8.897  41.163  0.00  0.00    +0.000 A 
ATOM     18  C   UNL     1      16.381   7.647  41.388  0.00  0.00    +0.000 A 
ATOM     19  C   UNL     1      15.962   7.216  42.621  0.00  0.00    +0.000 A 
BRANCH  14  21
ATOM     20  C   UNL     1      14.961   6.393  45.017  0.00  0.00    +0.000 C 
ATOM     21  O   UNL     1      15.642   7.623  44.929  0.00  0.00    +0.000 OA
ENDBRANCH  14  21
ENDBRANCH   1  17
TORSDOF 2
ENDMDL
MODEL 4
REMARK VINA RESULT:      -6.8      2.927      7.324
REMARK  Name = 
REMARK  2 active torsions:
REMARK  status: ('A' for Active; 'I' for Inactive)
REMARK    1  A    between atoms: O_2  and  C_3
REMARK    2  A    between atoms: C_6  and  C_7
REMARK                            x       y       z     vdW  Elec       q    Type
REMARK                         _______ _______ _______ _____ _____    ______ ____
ROOT
ATOM      1  C   UNL     1      17.931   9.867  36.827  0.00  0.00    +0.000 C 
ATOM      2  C   UNL     1      19.097  10.323  37.195  0.00  0.00    +0.000 C 
ATOM      3  O   UNL     1      20.351   9.701  37.172  0.00  0.00    +0.000 OA
ATOM      4  C   UNL     1      21.304  10.578  37.656  0.00  0.00    +0.000 A 
ATOM      5  C   UNL     1      20.719  11.785  38.006  0.00  0.00    +0.000 A 
ATOM      6  C   UNL     1      21.512  12.793  38.515  0.00  0.00    +0.000 A 
ATOM      7  C   UNL     1      22.873  12.632  38.683  0.00  0.00    +0.000 A 
ATOM      8  C   UNL     1      23.441  11.442  38.336  0.00  0.00    +0.000 A 
ATOM      9  O   UNL     1      24.795  11.288  38.503  0.00  0.00    +0.000 OA
ATOM     10  C   UNL     1      22.661  10.439  37.832  0.00  0.00    +0.000 A 
ATOM     11  C   UNL     1      23.315   9.160  37.456  0.00  0.00    +0.000 C 
ATOM     12  C   UNL     1      19.301  11.671  37.731  0.00  0.00    +0.000 C 
ATOM     13  O   UNL     1      18.466  12.579  37.928  0.00  0.00    +0.000 OA
ENDROOT
BRANCH   1  17
ATOM     14  C   UNL     1      14.243  11.924  36.820  0.00  0.00    +0.000 A 
ATOM     15  C   UNL     1      15.017  11.849  35.694  0.00  0.00    +0.000 A 
ATOM     16  C   UNL     1      16.209  11.184  35.722  0.00  0.00    +0.000 A 
ATOM     17  C   UNL     1      16.676  10.565  36.881  0.00  0.00    +0.000 A 
ATOM     18  C   UNL     1      15.864  10.666  37.983  0.00  0.00    +0.000 A 
ATOM     19  C   UNL     1      14.664  11.330  37.976  0.00  0.00    +0.000 A 
BRANCH  14  21
ATOM     20  C   UNL     1      11.852  11.866  37.054  0.00  0.00    +0.000 C 
ATOM     21  O   UNL     1      13.035  12.596  36.821  0.00  0.00    +0.000 OA
ENDBRANCH  14  21
ENDBRANCH   1  17
TORSDOF 2
ENDMDL
MODEL 5
REMARK VINA RESULT:      -6.8     21.918     23.134
REMARK  Name = 
REMARK  2 active torsions:
REMARK  status: ('A' for Active; 'I' for Inactive)
REMARK    1  A    between atoms: O_2  and  C_3
REMARK    2  A    between atoms: C_6  and  C_7
REMARK                            x       y       z     vdW  Elec       q    Type
REMARK                         _______ _______ _______ _____ _____    ______ ____
ROOT
ATOM      1  C   UNL     1      28.968  23.743  21.949  0.00  0.00    +0.000 C 
ATOM      2  C   UNL     1      29.166  24.950  21.495  0.00  0.00    +0.000 C 
ATOM      3  O   UNL     1      29.558  25.377  20.221  0.00  0.00    +0.000 OA
ATOM      4  C   UNL     1      29.632  26.756  20.205  0.00  0.00    +0.000 A 
ATOM      5  C   UNL     1      29.296  27.275  21.445  0.00  0.00    +0.000 A 
ATOM      6  C   UNL     1      29.315  28.643  21.629  0.00  0.00    +0.000 A 
ATOM      7  C   UNL     1      29.658  29.508  20.609  0.00  0.00    +0.000 A 
ATOM      8  C   UNL     1      29.987  28.991  19.391  0.00  0.00    +0.000 A 
ATOM      9  O   UNL     1      30.324  29.855  18.380  0.00  0.00    +0.000 OA
ATOM     10  C   UNL     1      29.971  27.637  19.203  0.00  0.00    +0.000 A 
ATOM     11  C   UNL     1      30.326  27.108  17.861  0.00  0.00    +0.000 C 
ATOM     12  C   UNL     1      28.990  26.154  22.311  0.00  0.00    +0.000 C 
ATOM     13  O   UNL     1      28.646  26.257  23.508  0.00  0.00    +0.000 OA
ENDROOT
BRANCH   1  17
ATOM     14  C   UNL     1      27.940  22.682  25.905  0.00  0.00    +0.000 A 
ATOM     15  C   UNL     1      29.244  22.698  25.490  0.00  0.00    +0.000 A 
ATOM     16  C   UNL     1      29.551  23.038  24.204  0.00  0.00    +0.000 A 
ATOM     17  C   UNL     1      28.565  23.377  23.279  0.00  0.00    +0.000 A 
ATOM     18  C   UNL     1      27.273  23.348  23.743  0.00  0.00    +0.000 A 
ATOM     19  C   UNL     1      26.943  23.009  25.030  0.00  0.00    +0.000 A 
BRANCH  14  21
ATOM     20  C   UNL     1      28.533  22.564  28.231  0.00  0.00    +0.000 C 
ATOM     21  O   UNL     1      27.600  22.337  27.200  0.00  0.00    +0.000 OA
ENDBRANCH  14  21
ENDBRANCH   1  17
TORSDOF 2
ENDMDL
MODEL 6
REMARK VINA RESULT:      -6.7     21.147     22.915
REMARK  Name = 
REMARK  2 active torsions:
REMARK  status: ('A' for Active; 'I' for Inactive)
REMARK    1  A    between atoms: O_2  and  C_3
REMARK    2  A    between atoms: C_6  and  C_7
REMARK                            x       y       z     vdW  Elec       q    Type
REMARK                         _______ _______ _______ _____ _____    ______ ____
ROOT
ATOM      1  C   UNL     1      23.221  -6.469  23.578  0.00  0.00    +0.000 C 
ATOM      2  C   UNL     1      22.198  -6.737  24.343  0.00  0.00    +0.000 C 
ATOM      3  O   UNL     1      21.217  -5.883  24.860  0.00  0.00    +0.000 OA
ATOM      4  C   UNL     1      20.325  -6.619  25.617  0.00  0.00    +0.000 A 
ATOM      5  C   UNL     1      20.681  -7.958  25.621  0.00  0.00    +0.000 A 
ATOM      6  C   UNL     1      19.909  -8.857  26.328  0.00  0.00    +0.000 A 
ATOM      7  C   UNL     1      18.789  -8.457  27.031  0.00  0.00    +0.000 A 
ATOM      8  C   UNL     1      18.444  -7.138  27.022  0.00  0.00    +0.000 A 
ATOM      9  O   UNL     1      17.329  -6.747  27.719  0.00  0.00    +0.000 OA
ATOM     10  C   UNL     1      19.206  -6.243  26.324  0.00  0.00    +0.000 A 
ATOM     11  C   UNL     1      18.796  -4.816  26.328  0.00  0.00    +0.000 C 
ATOM     12  C   UNL     1      21.881  -8.086  24.818  0.00  0.00    +0.000 C 
ATOM     13  O   UNL     1      22.479  -9.162  24.605  0.00  0.00    +0.000 OA
ENDROOT
BRANCH   1  17
ATOM     14  C   UNL     1      26.172  -9.186  22.258  0.00  0.00    +0.000 A 
ATOM     15  C   UNL     1      26.414  -8.321  23.290  0.00  0.00    +0.000 A 
ATOM     16  C   UNL     1      25.447  -7.447  23.695  0.00  0.00    +0.000 A 
ATOM     17  C   UNL     1      24.195  -7.403  23.083  0.00  0.00    +0.000 A 
ATOM     18  C   UNL     1      24.000  -8.291  22.054  0.00  0.00    +0.000 A 
ATOM     19  C   UNL     1      24.958  -9.176  21.632  0.00  0.00    +0.000 A 
BRANCH  14  21
ATOM     20  C   UNL     1      28.489  -9.807  22.107  0.00  0.00    +0.000 C 
ATOM     21  O   UNL     1      27.136 -10.078  21.824  0.00  0.00    +0.000 OA
ENDBRANCH  14  21
ENDBRANCH   1  17
TORSDOF 2
ENDMDL
MODEL 7
REMARK VINA RESULT:      -6.6     18.697     19.653
REMARK  Name = 
REMARK  2 active torsions:
REMARK  status: ('A' for Active; 'I' for Inactive)
REMARK    1  A    between atoms: O_2  and  C_3
REMARK    2  A    between atoms: C_6  and  C_7
REMARK                            x       y       z     vdW  Elec       q    Type
REMARK                         _______ _______ _______ _____ _____    ______ ____
ROOT
ATOM      1  C   UNL     1      25.452  24.264  26.890  0.00  0.00    +0.000 C 
ATOM      2  C   UNL     1      26.372  24.334  25.967  0.00  0.00    +0.000 C 
ATOM      3  O   UNL     1      26.275  24.118  24.587  0.00  0.00    +0.000 OA
ATOM      4  C   UNL     1      27.514  24.314  24.007  0.00  0.00    +0.000 A 
ATOM      5  C   UNL     1      28.451  24.661  24.968  0.00  0.00    +0.000 A 
ATOM      6  C   UNL     1      29.755  24.896  24.583  0.00  0.00    +0.000 A 
ATOM      7  C   UNL     1      30.151  24.796  23.264  0.00  0.00    +0.000 A 
ATOM      8  C   UNL     1      29.225  24.455  22.323  0.00  0.00    +0.000 A 
ATOM      9  O   UNL     1      29.623  24.360  21.013  0.00  0.00    +0.000 OA
ATOM     10  C   UNL     1      27.932  24.220  22.699  0.00  0.00    +0.000 A 
ATOM     11  C   UNL     1      26.946  23.860  21.648  0.00  0.00    +0.000 C 
ATOM     12  C   UNL     1      27.766  24.685  26.246  0.00  0.00    +0.000 C 
ATOM     13  O   UNL     1      28.310  24.962  27.336  0.00  0.00    +0.000 OA
ENDROOT
BRANCH   1  17
ATOM     14  C   UNL     1      26.048  24.816  31.034  0.00  0.00    +0.000 A 
ATOM     15  C   UNL     1      26.328  23.621  30.430  0.00  0.00    +0.000 A 
ATOM     16  C   UNL     1      26.121  23.464  29.089  0.00  0.00    +0.000 A 
ATOM     17  C   UNL     1      25.624  24.499  28.297  0.00  0.00    +0.000 A 
ATOM     18  C   UNL     1      25.360  25.678  28.949  0.00  0.00    +0.000 A 
ATOM     19  C   UNL     1      25.560  25.856  30.294  0.00  0.00    +0.000 A 
BRANCH  14  21
ATOM     20  C   UNL     1      27.180  25.961  32.818  0.00  0.00    +0.000 C 
ATOM     21  O   UNL     1      26.242  25.001  32.390  0.00  0.00    +0.000 OA
ENDBRANCH  14  21
ENDBRANCH   1  17
TORSDOF 2
ENDMDL
MODEL 8
REMARK VINA RESULT:      -6.6     22.254     23.652
REMARK  Name = 
REMARK  2 active torsions:
REMARK  status: ('A' for Active; 'I' for Inactive)
REMARK    1  A    between atoms: O_2  and  C_3
REMARK    2  A    between atoms: C_6  and  C_7
REMARK                            x       y       z     vdW  Elec       q    Type
REMARK                         _______ _______ _______ _____ _____    ______ ____
ROOT
ATOM      1  C   UNL     1      28.992  24.092  21.564  0.00  0.00    +0.000 C 
ATOM      2  C   UNL     1      29.239  25.281  21.085  0.00  0.00    +0.000 C 
ATOM      3  O   UNL     1      29.789  25.654  19.853  0.00  0.00    +0.000 OA
ATOM      4  C   UNL     1      29.856  27.032  19.782  0.00  0.00    +0.000 A 
ATOM      5  C   UNL     1      29.359  27.603  20.943  0.00  0.00    +0.000 A 
ATOM      6  C   UNL     1      29.344  28.977  21.064  0.00  0.00    +0.000 A 
ATOM      7  C   UNL     1      29.810  29.799  20.058  0.00  0.00    +0.000 A 
ATOM      8  C   UNL     1      30.298  29.232  18.918  0.00  0.00    +0.000 A 
ATOM      9  O   UNL     1      30.758  30.054  17.920  0.00  0.00    +0.000 OA
ATOM     10  C   UNL     1      30.316  27.871  18.793  0.00  0.00    +0.000 A 
ATOM     11  C   UNL     1      30.845  27.286  17.534  0.00  0.00    +0.000 C 
ATOM     12  C   UNL     1      28.950  26.518  21.814  0.00  0.00    +0.000 C 
ATOM     13  O   UNL     1      28.453  26.670  22.950  0.00  0.00    +0.000 OA
ENDROOT
BRANCH   1  17
ATOM     14  C   UNL     1      27.171  23.156  25.258  0.00  0.00    +0.000 A 
ATOM     15  C   UNL     1      26.422  23.423  24.145  0.00  0.00    +0.000 A 
ATOM     16  C   UNL     1      27.033  23.730  22.964  0.00  0.00    +0.000 A 
ATOM     17  C   UNL     1      28.422  23.782  22.847  0.00  0.00    +0.000 A 
ATOM     18  C   UNL     1      29.129  23.504  23.990  0.00  0.00    +0.000 A 
ATOM     19  C   UNL     1      28.536  23.195  25.187  0.00  0.00    +0.000 A 
BRANCH  14  21
ATOM     20  C   UNL     1      25.867  23.853  27.153  0.00  0.00    +0.000 C 
ATOM     21  O   UNL     1      26.579  22.848  26.469  0.00  0.00    +0.000 OA
ENDBRANCH  14  21
ENDBRANCH   1  17
TORSDOF 2
ENDMDL
MODEL 9
REMARK VINA RESULT:      -6.5     19.577     21.463
REMARK  Name = 
REMARK  2 active torsions:
REMARK  status: ('A' for Active; 'I' for Inactive)
REMARK    1  A    between atoms: O_2  and  C_3
REMARK    2  A    between atoms: C_6  and  C_7
REMARK                            x       y       z     vdW  Elec       q    Type
REMARK                         _______ _______ _______ _____ _____    ______ ____
ROOT
ATOM      1  C   UNL     1      28.388  24.036  26.209  0.00  0.00    +0.000 C 
ATOM      2  C   UNL     1      29.175  23.537  27.122  0.00  0.00    +0.000 C 
ATOM      3  O   UNL     1      28.968  23.386  28.498  0.00  0.00    +0.000 OA
ATOM      4  C   UNL     1      30.083  22.799  29.065  0.00  0.00    +0.000 A 
ATOM      5  C   UNL     1      31.043  22.546  28.098  0.00  0.00    +0.000 A 
ATOM      6  C   UNL     1      32.236  21.961  28.471  0.00  0.00    +0.000 A 
ATOM      7  C   UNL     1      32.498  21.619  29.783  0.00  0.00    +0.000 A 
ATOM      8  C   UNL     1      31.549  21.870  30.729  0.00  0.00    +0.000 A 
ATOM      9  O   UNL     1      31.813  21.526  32.031  0.00  0.00    +0.000 OA
ATOM     10  C   UNL     1      30.366  22.450  30.366  0.00  0.00    +0.000 A 
ATOM     11  C   UNL     1      29.351  22.701  31.420  0.00  0.00    +0.000 C 
ATOM     12  C   UNL     1      30.508  23.004  26.831  0.00  0.00    +0.000 C 
ATOM     13  O   UNL     1      31.110  22.930  25.739  0.00  0.00    +0.000 OA
ENDROOT
BRANCH   1  17
ATOM     14  C   UNL     1      29.310  24.531  22.117  0.00  0.00    +0.000 A 
ATOM     15  C   UNL     1      29.616  25.498  23.036  0.00  0.00    +0.000 A 
ATOM     16  C   UNL     1      29.302  25.318  24.352  0.00  0.00    +0.000 A 
ATOM     17  C   UNL     1      28.668  24.161  24.804  0.00  0.00    +0.000 A 
ATOM     18  C   UNL     1      28.384  23.221  23.846  0.00  0.00    +0.000 A 
ATOM     19  C   UNL     1      28.689  23.382  22.519  0.00  0.00    +0.000 A 
BRANCH  14  21
ATOM     20  C   UNL     1      29.624  25.988  20.232  0.00  0.00    +0.000 C 
ATOM     21  O   UNL     1      29.612  24.689  20.777  0.00  0.00    +0.000 OA
ENDBRANCH  14  21
ENDBRANCH   1  17
TORSDOF 2
ENDMDL
MODEL 10
REMARK VINA RESULT:      -6.4     18.676     19.331
REMARK  Name = 
REMARK  2 active torsions:
REMARK  status: ('A' for Active; 'I' for Inactive)
REMARK    1  A    between atoms: O_2  and  C_3
REMARK    2  A    between atoms: C_6  and  C_7
REMARK                            x       y       z     vdW  Elec       q    Type
REMARK                         _______ _______ _______ _____ _____    ______ ____
ROOT
ATOM      1  C   UNL     1      31.442  23.156  26.991  0.00  0.00    +0.000 C 
ATOM      2  C   UNL     1      30.331  23.150  26.307  0.00  0.00    +0.000 C 
ATOM      3  O   UNL     1      30.112  23.415  24.950  0.00  0.00    +0.000 OA
ATOM      4  C   UNL     1      28.765  23.280  24.670  0.00  0.00    +0.000 A 
ATOM      5  C   UNL     1      28.065  22.927  25.813  0.00  0.00    +0.000 A 
ATOM      6  C   UNL     1      26.699  22.748  25.737  0.00  0.00    +0.000 A 
ATOM      7  C   UNL     1      26.011  22.910  24.551  0.00  0.00    +0.000 A 
ATOM      8  C   UNL     1      26.706  23.257  23.430  0.00  0.00    +0.000 A 
ATOM      9  O   UNL     1      26.018  23.414  22.253  0.00  0.00    +0.000 OA
ATOM     10  C   UNL     1      28.059  23.437  23.500  0.00  0.00    +0.000 A 
ATOM     11  C   UNL     1      28.786  23.806  22.258  0.00  0.00    +0.000 C 
ATOM     12  C   UNL     1      29.027  22.832  26.894  0.00  0.00    +0.000 C 
ATOM     13  O   UNL     1      28.741  22.531  28.072  0.00  0.00    +0.000 OA
ENDROOT
BRANCH   1  17
ATOM     14  C   UNL     1      31.975  22.191  31.067  0.00  0.00    +0.000 A 
ATOM     15  C   UNL     1      32.254  21.285  30.081  0.00  0.00    +0.000 A 
ATOM     16  C   UNL     1      32.067  21.618  28.770  0.00  0.00    +0.000 A 
ATOM     17  C   UNL     1      31.594  22.873  28.392  0.00  0.00    +0.000 A 
ATOM     18  C   UNL     1      31.331  23.748  29.417  0.00  0.00    +0.000 A 
ATOM     19  C   UNL     1      31.510  23.434  30.739  0.00  0.00    +0.000 A 
BRANCH  14  21
ATOM     20  C   UNL     1      31.028  21.491  33.162  0.00  0.00    +0.000 C 
ATOM     21  O   UNL     1      32.150  21.880  32.403  0.00  0.00    +0.000 OA
ENDBRANCH  14  21
ENDBRANCH   1  17
TORSDOF 2
ENDMDL
