MODEL 1
REMARK VINA RESULT:      -7.2      0.000      0.000
REMARK  Name = 
REMARK  4 active torsions:
REMARK  status: ('A' for Active; 'I' for Inactive)
REMARK    1  A    between atoms: C_5  and  N_6
REMARK    2  A    between atoms: C_7  and  C_9
REMARK    3  A    between atoms: C_11  and  C_12
REMARK    4  A    between atoms: C_19  and  N_20
REMARK                            x       y       z     vdW  Elec       q    Type
REMARK                         _______ _______ _______ _____ _____    ______ ____
ROOT
ATOM      1  N   UNL     1      27.776  22.708  25.725  0.00  0.00    +0.000 NA
ATOM      2  C   UNL     1      27.475  23.850  24.969  0.00  0.00    +0.000 C 
ATOM      3  O   UNL     1      27.479  24.900  25.512  0.00  0.00    +0.000 OA
ENDROOT
BRANCH   1   8
ATOM      4  C   UNL     1      29.135  22.795  31.256  0.00  0.00    +0.000 C 
ATOM      5  C   UNL     1      28.717  22.770  29.819  0.00  0.00    +0.000 A 
ATOM      6  C   UNL     1      29.731  22.794  28.888  0.00  0.00    +0.000 A 
ATOM      7  C   UNL     1      29.410  22.773  27.570  0.00  0.00    +0.000 A 
ATOM      8  C   UNL     1      28.096  22.729  27.152  0.00  0.00    +0.000 A 
ATOM      9  C   UNL     1      27.108  22.708  28.098  0.00  0.00    +0.000 A 
ATOM     10  C   UNL     1      27.385  22.726  29.447  0.00  0.00    +0.000 A 
BRANCH  10  11
ATOM     11  N   UNL     1      26.381  22.704  30.450  0.00  0.00    +0.000 N 
ATOM     12  O   UNL     1      25.932  23.783  30.919  0.00  0.00    +0.000 OA
ATOM     13  O   UNL     1      25.879  21.521  30.932  0.00  0.00    +0.000 OA
ENDBRANCH  10  11
ENDBRANCH   1   8
BRANCH   2  14
ATOM     14  C   UNL     1      27.176  23.497  23.474  0.00  0.00    +0.000 C 
ATOM     15  C   UNL     1      27.452  25.014  22.691  0.00  0.00    +0.000 C 
ATOM     16  C   UNL     1      28.589  23.739  22.550  0.00  0.00    +0.000 C 
BRANCH  16  17
ATOM     17  C   UNL     1      29.743  24.203  23.476  0.00  0.00    +0.000 A 
ATOM     18  C   UNL     1      30.450  23.123  23.939  0.00  0.00    +0.000 A 
ATOM     19  C   UNL     1      31.556  23.288  24.805  0.00  0.00    +0.000 A 
ATOM     20  C   UNL     1      31.867  24.585  25.147  0.00  0.00    +0.000 A 
ATOM     21  C   UNL     1      31.162  25.660  24.684  0.00  0.00    +0.000 A 
ATOM     22  C   UNL     1      30.124  25.371  23.861  0.00  0.00    +0.000 A 
ENDBRANCH  16  17
ENDBRANCH   2  14
TORSDOF 4
ENDMDL
MODEL 2
REMARK VINA RESULT:      -6.5      1.736      2.298
REMARK  Name = 
REMARK  4 active torsions:
REMARK  status: ('A' for Active; 'I' for Inactive)
REMARK    1  A    between atoms: C_5  and  N_6
REMARK    2  A    between atoms: C_7  and  C_9
REMARK    3  A    between atoms: C_11  and  C_12
REMARK    4  A    between atoms: C_19  and  N_20
REMARK                            x       y       z     vdW  Elec       q    Type
REMARK                         _______ _______ _______ _____ _____    ______ ____
ROOT
ATOM      1  N   UNL     1      26.355  23.612  24.803  0.00  0.00    +0.000 NA
ATOM      2  C   UNL     1      26.827  24.565  23.891  0.00  0.00    +0.000 C 
ATOM      3  O   UNL     1      27.139  25.630  24.302  0.00  0.00    +0.000 OA
ENDROOT
BRANCH   1   8
ATOM      4  C   UNL     1      25.741  24.605  30.378  0.00  0.00    +0.000 C 
ATOM      5  C   UNL     1      25.950  24.304  28.927  0.00  0.00    +0.000 A 
ATOM      6  C   UNL     1      25.121  24.959  28.044  0.00  0.00    +0.000 A 
ATOM      7  C   UNL     1      25.265  24.724  26.715  0.00  0.00    +0.000 A 
ATOM      8  C   UNL     1      26.219  23.847  26.241  0.00  0.00    +0.000 A 
ATOM      9  C   UNL     1      27.028  23.210  27.141  0.00  0.00    +0.000 A 
ATOM     10  C   UNL     1      26.920  23.416  28.498  0.00  0.00    +0.000 A 
BRANCH  10  11
ATOM     11  N   UNL     1      27.745  22.769  29.455  0.00  0.00    +0.000 N 
ATOM     12  O   UNL     1      28.916  23.183  29.662  0.00  0.00    +0.000 OA
ATOM     13  O   UNL     1      27.296  21.689  30.171  0.00  0.00    +0.000 OA
ENDBRANCH  10  11
ENDBRANCH   1   8
BRANCH   2  14
ATOM     14  C   UNL     1      26.853  24.010  22.428  0.00  0.00    +0.000 C 
ATOM     15  C   UNL     1      27.875  25.157  21.633  0.00  0.00    +0.000 C 
ATOM     16  C   UNL     1      28.455  23.590  22.018  0.00  0.00    +0.000 C 
BRANCH  16  17
ATOM     17  C   UNL     1      29.388  23.856  23.228  0.00  0.00    +0.000 A 
ATOM     18  C   UNL     1      29.476  22.740  24.020  0.00  0.00    +0.000 A 
ATOM     19  C   UNL     1      30.271  22.733  25.189  0.00  0.00    +0.000 A 
ATOM     20  C   UNL     1      30.938  23.904  25.473  0.00  0.00    +0.000 A 
ATOM     21  C   UNL     1      30.848  25.015  24.683  0.00  0.00    +0.000 A 
ATOM     22  C   UNL     1      30.055  24.896  23.590  0.00  0.00    +0.000 A 
ENDBRANCH  16  17
ENDBRANCH   2  14
TORSDOF 4
ENDMDL
MODEL 3
REMARK VINA RESULT:      -6.3      2.347      2.675
REMARK  Name = 
REMARK  4 active torsions:
REMARK  status: ('A' for Active; 'I' for Inactive)
REMARK    1  A    between atoms: C_5  and  N_6
REMARK    2  A    between atoms: C_7  and  C_9
REMARK    3  A    between atoms: C_11  and  C_12
REMARK    4  A    between atoms: C_19  and  N_20
REMARK                            x       y       z     vdW  Elec       q    Type
REMARK                         _______ _______ _______ _____ _____    ______ ____
ROOT
ATOM      1  N   UNL     1      27.674  22.522  26.425  0.00  0.00    +0.000 NA
ATOM      2  C   UNL     1      27.318  23.659  25.687  0.00  0.00    +0.000 C 
ATOM      3  O   UNL     1      27.515  24.723  26.164  0.00  0.00    +0.000 OA
ENDROOT
BRANCH   1   8
ATOM      4  C   UNL     1      29.909  22.678  31.661  0.00  0.00    +0.000 C 
ATOM      5  C   UNL     1      29.380  22.640  30.261  0.00  0.00    +0.000 A 
ATOM      6  C   UNL     1      28.012  22.561  30.129  0.00  0.00    +0.000 A 
ATOM      7  C   UNL     1      27.477  22.524  28.882  0.00  0.00    +0.000 A 
ATOM      8  C   UNL     1      28.275  22.563  27.757  0.00  0.00    +0.000 A 
ATOM      9  C   UNL     1      29.631  22.640  27.919  0.00  0.00    +0.000 A 
ATOM     10  C   UNL     1      30.220  22.682  29.163  0.00  0.00    +0.000 A 
BRANCH  10  11
ATOM     11  N   UNL     1      31.623  22.762  29.361  0.00  0.00    +0.000 N 
ATOM     12  O   UNL     1      32.318  21.713  29.391  0.00  0.00    +0.000 OA
ATOM     13  O   UNL     1      32.253  23.970  29.523  0.00  0.00    +0.000 OA
ENDBRANCH  10  11
ENDBRANCH   1   8
BRANCH   2  14
ATOM     14  C   UNL     1      26.698  23.284  24.300  0.00  0.00    +0.000 C 
ATOM     15  C   UNL     1      26.887  24.759  23.417  0.00  0.00    +0.000 C 
ATOM     16  C   UNL     1      27.899  23.413  23.097  0.00  0.00    +0.000 C 
BRANCH  16  17
ATOM     17  C   UNL     1      29.244  23.831  23.747  0.00  0.00    +0.000 A 
ATOM     18  C   UNL     1      29.973  22.723  24.095  0.00  0.00    +0.000 A 
ATOM     19  C   UNL     1      31.241  22.843  24.708  0.00  0.00    +0.000 A 
ATOM     20  C   UNL     1      31.686  24.128  24.928  0.00  0.00    +0.000 A 
ATOM     21  C   UNL     1      30.958  25.231  24.581  0.00  0.00    +0.000 A 
ATOM     22  C   UNL     1      29.758  24.984  24.000  0.00  0.00    +0.000 A 
ENDBRANCH  16  17
ENDBRANCH   2  14
TORSDOF 4
ENDMDL
MODEL 4
REMARK VINA RESULT:      -6.3      2.436      6.254
REMARK  Name = 
REMARK  4 active torsions:
REMARK  status: ('A' for Active; 'I' for Inactive)
REMARK    1  A    between atoms: C_5  and  N_6
REMARK    2  A    between atoms: C_7  and  C_9
REMARK    3  A    between atoms: C_11  and  C_12
REMARK    4  A    between atoms: C_19  and  N_20
REMARK                            x       y       z     vdW  Elec       q    Type
REMARK                         _______ _______ _______ _____ _____    ______ ____
ROOT
ATOM      1  N   UNL     1      30.161  22.068  28.112  0.00  0.00    +0.000 NA
ATOM      2  C   UNL     1      30.639  22.996  29.048  0.00  0.00    +0.000 C 
ATOM      3  O   UNL     1      30.655  24.140  28.749  0.00  0.00    +0.000 OA
ENDROOT
BRANCH   1   8
ATOM      4  C   UNL     1      28.386  23.431  22.874  0.00  0.00    +0.000 C 
ATOM      5  C   UNL     1      28.794  23.086  24.272  0.00  0.00    +0.000 A 
ATOM      6  C   UNL     1      30.100  22.683  24.444  0.00  0.00    +0.000 A 
ATOM      7  C   UNL     1      30.525  22.358  25.691  0.00  0.00    +0.000 A 
ATOM      8  C   UNL     1      29.678  22.424  26.778  0.00  0.00    +0.000 A 
ATOM      9  C   UNL     1      28.386  22.826  26.578  0.00  0.00    +0.000 A 
ATOM     10  C   UNL     1      27.909  23.167  25.332  0.00  0.00    +0.000 A 
BRANCH  10  11
ATOM     11  N   UNL     1      26.574  23.588  25.095  0.00  0.00    +0.000 N 
ATOM     12  O   UNL     1      26.284  24.813  25.121  0.00  0.00    +0.000 OA
ATOM     13  O   UNL     1      25.576  22.683  24.834  0.00  0.00    +0.000 OA
ENDBRANCH  10  11
ENDBRANCH   1   8
BRANCH   2  14
ATOM     14  C   UNL     1      31.083  22.304  30.379  0.00  0.00    +0.000 C 
ATOM     15  C   UNL     1      30.910  23.591  31.522  0.00  0.00    +0.000 C 
ATOM     16  C   UNL     1      29.775  22.307  31.474  0.00  0.00    +0.000 C 
BRANCH  16  17
ATOM     17  C   UNL     1      28.540  22.965  30.806  0.00  0.00    +0.000 A 
ATOM     18  C   UNL     1      27.655  22.006  30.386  0.00  0.00    +0.000 A 
ATOM     19  C   UNL     1      26.445  22.356  29.743  0.00  0.00    +0.000 A 
ATOM     20  C   UNL     1      26.221  23.704  29.571  0.00  0.00    +0.000 A 
ATOM     21  C   UNL     1      27.104  24.658  29.991  0.00  0.00    +0.000 A 
ATOM     22  C   UNL     1      28.227  24.195  30.593  0.00  0.00    +0.000 A 
ENDBRANCH  16  17
ENDBRANCH   2  14
TORSDOF 4
ENDMDL
MODEL 5
REMARK VINA RESULT:      -6.1      1.826      2.330
REMARK  Name = 
REMARK  4 active torsions:
REMARK  status: ('A' for Active; 'I' for Inactive)
REMARK    1  A    between atoms: C_5  and  N_6
REMARK    2  A    between atoms: C_7  and  C_9
REMARK    3  A    between atoms: C_11  and  C_12
REMARK    4  A    between atoms: C_19  and  N_20
REMARK                            x       y       z     vdW  Elec       q    Type
REMARK                         _______ _______ _______ _____ _____    ______ ____
ROOT
ATOM      1  N   UNL     1      27.778  22.331  26.470  0.00  0.00    +0.000 NA
ATOM      2  C   UNL     1      26.930  23.400  26.147  0.00  0.00    +0.000 C 
ATOM      3  O   UNL     1      27.136  24.452  26.647  0.00  0.00    +0.000 OA
ENDROOT
BRANCH   1   8
ATOM      4  C   UNL     1      32.250  22.701  29.978  0.00  0.00    +0.000 C 
ATOM      5  C   UNL     1      31.036  22.613  29.106  0.00  0.00    +0.000 A 
ATOM      6  C   UNL     1      31.264  22.402  27.765  0.00  0.00    +0.000 A 
ATOM      7  C   UNL     1      30.200  22.313  26.927  0.00  0.00    +0.000 A 
ATOM      8  C   UNL     1      28.907  22.431  27.394  0.00  0.00    +0.000 A 
ATOM      9  C   UNL     1      28.711  22.641  28.731  0.00  0.00    +0.000 A 
ATOM     10  C   UNL     1      29.758  22.737  29.620  0.00  0.00    +0.000 A 
BRANCH  10  11
ATOM     11  N   UNL     1      29.584  22.954  31.012  0.00  0.00    +0.000 N 
ATOM     12  O   UNL     1      29.363  24.115  31.447  0.00  0.00    +0.000 OA
ATOM     13  O   UNL     1      29.651  21.919  31.910  0.00  0.00    +0.000 OA
ENDBRANCH  10  11
ENDBRANCH   1   8
BRANCH   2  14
ATOM     14  C   UNL     1      25.817  22.975  25.132  0.00  0.00    +0.000 C 
ATOM     15  C   UNL     1      25.292  24.505  24.521  0.00  0.00    +0.000 C 
ATOM     16  C   UNL     1      26.270  23.472  23.565  0.00  0.00    +0.000 C 
BRANCH  16  17
ATOM     17  C   UNL     1      27.657  24.163  23.619  0.00  0.00    +0.000 A 
ATOM     18  C   UNL     1      28.660  23.236  23.497  0.00  0.00    +0.000 A 
ATOM     19  C   UNL     1      30.020  23.621  23.517  0.00  0.00    +0.000 A 
ATOM     20  C   UNL     1      30.264  24.968  23.666  0.00  0.00    +0.000 A 
ATOM     21  C   UNL     1      29.263  25.891  23.787  0.00  0.00    +0.000 A 
ATOM     22  C   UNL     1      28.002  25.397  23.753  0.00  0.00    +0.000 A 
ENDBRANCH  16  17
ENDBRANCH   2  14
TORSDOF 4
ENDMDL
MODEL 6
REMARK VINA RESULT:      -6.0      2.052      3.220
REMARK  Name = 
REMARK  4 active torsions:
REMARK  status: ('A' for Active; 'I' for Inactive)
REMARK    1  A    between atoms: C_5  and  N_6
REMARK    2  A    between atoms: C_7  and  C_9
REMARK    3  A    between atoms: C_11  and  C_12
REMARK    4  A    between atoms: C_19  and  N_20
REMARK                            x       y       z     vdW  Elec       q    Type
REMARK                         _______ _______ _______ _____ _____    ______ ____
ROOT
ATOM      1  N   UNL     1      27.066  23.555  25.534  0.00  0.00    +0.000 NA
ATOM      2  C   UNL     1      28.121  24.158  24.834  0.00  0.00    +0.000 C 
ATOM      3  O   UNL     1      28.463  25.242  25.158  0.00  0.00    +0.000 OA
ENDROOT
BRANCH   1   8
ATOM      4  C   UNL     1      24.227  26.065  29.787  0.00  0.00    +0.000 C 
ATOM      5  C   UNL     1      25.008  25.375  28.713  0.00  0.00    +0.000 A 
ATOM      6  C   UNL     1      24.651  25.669  27.416  0.00  0.00    +0.000 A 
ATOM      7  C   UNL     1      25.327  25.072  26.401  0.00  0.00    +0.000 A 
ATOM      8  C   UNL     1      26.354  24.185  26.646  0.00  0.00    +0.000 A 
ATOM      9  C   UNL     1      26.686  23.911  27.944  0.00  0.00    +0.000 A 
ATOM     10  C   UNL     1      26.031  24.492  29.007  0.00  0.00    +0.000 A 
BRANCH  10  11
ATOM     11  N   UNL     1      26.355  24.227  30.363  0.00  0.00    +0.000 N 
ATOM     12  O   UNL     1      26.054  23.118  30.879  0.00  0.00    +0.000 OA
ATOM     13  O   UNL     1      26.995  25.159  31.140  0.00  0.00    +0.000 OA
ENDBRANCH  10  11
ENDBRANCH   1   8
BRANCH   2  14
ATOM     14  C   UNL     1      28.672  23.231  23.700  0.00  0.00    +0.000 C 
ATOM     15  C   UNL     1      30.192  23.975  23.343  0.00  0.00    +0.000 C 
ATOM     16  C   UNL     1      30.124  22.508  24.227  0.00  0.00    +0.000 C 
BRANCH  16  17
ATOM     17  C   UNL     1      30.437  22.963  25.675  0.00  0.00    +0.000 A 
ATOM     18  C   UNL     1      29.869  22.106  26.581  0.00  0.00    +0.000 A 
ATOM     19  C   UNL     1      30.012  22.309  27.973  0.00  0.00    +0.000 A 
ATOM     20  C   UNL     1      30.749  23.410  28.349  0.00  0.00    +0.000 A 
ATOM     21  C   UNL     1      31.315  24.264  27.445  0.00  0.00    +0.000 A 
ATOM     22  C   UNL     1      31.105  23.961  26.141  0.00  0.00    +0.000 A 
ENDBRANCH  16  17
ENDBRANCH   2  14
TORSDOF 4
ENDMDL
MODEL 7
REMARK VINA RESULT:      -5.8      3.754      7.582
REMARK  Name = 
REMARK  4 active torsions:
REMARK  status: ('A' for Active; 'I' for Inactive)
REMARK    1  A    between atoms: C_5  and  N_6
REMARK    2  A    between atoms: C_7  and  C_9
REMARK    3  A    between atoms: C_11  and  C_12
REMARK    4  A    between atoms: C_19  and  N_20
REMARK                            x       y       z     vdW  Elec       q    Type
REMARK                         _______ _______ _______ _____ _____    ______ ____
ROOT
ATOM      1  N   UNL     1      29.709  23.829  23.149  0.00  0.00    +0.000 NA
ATOM      2  C   UNL     1      30.513  24.005  24.284  0.00  0.00    +0.000 C 
ATOM      3  O   UNL     1      30.717  25.106  24.663  0.00  0.00    +0.000 OA
ENDROOT
BRANCH   1   8
ATOM      4  C   UNL     1      27.254  28.092  20.279  0.00  0.00    +0.000 C 
ATOM      5  C   UNL     1      27.950  26.978  20.995  0.00  0.00    +0.000 A 
ATOM      6  C   UNL     1      27.260  26.398  22.036  0.00  0.00    +0.000 A 
ATOM      7  C   UNL     1      27.843  25.381  22.721  0.00  0.00    +0.000 A 
ATOM      8  C   UNL     1      29.103  24.926  22.395  0.00  0.00    +0.000 A 
ATOM      9  C   UNL     1      29.766  25.521  21.357  0.00  0.00    +0.000 A 
ATOM     10  C   UNL     1      29.215  26.555  20.632  0.00  0.00    +0.000 A 
BRANCH  10  11
ATOM     11  N   UNL     1      29.880  27.191  19.551  0.00  0.00    +0.000 N 
ATOM     12  O   UNL     1      30.107  26.556  18.488  0.00  0.00    +0.000 OA
ATOM     13  O   UNL     1      30.287  28.499  19.633  0.00  0.00    +0.000 OA
ENDBRANCH  10  11
ENDBRANCH   1   8
BRANCH   2  14
ATOM     14  C   UNL     1      31.010  22.639  24.863  0.00  0.00    +0.000 C 
ATOM     15  C   UNL     1      31.303  23.042  26.519  0.00  0.00    +0.000 C 
ATOM     16  C   UNL     1      29.929  22.118  26.075  0.00  0.00    +0.000 C 
BRANCH  16  17
ATOM     17  C   UNL     1      28.770  23.138  26.211  0.00  0.00    +0.000 A 
ATOM     18  C   UNL     1      27.653  22.685  25.558  0.00  0.00    +0.000 A 
ATOM     19  C   UNL     1      26.458  23.441  25.536  0.00  0.00    +0.000 A 
ATOM     20  C   UNL     1      26.494  24.644  26.204  0.00  0.00    +0.000 A 
ATOM     21  C   UNL     1      27.608  25.095  26.855  0.00  0.00    +0.000 A 
ATOM     22  C   UNL     1      28.689  24.279  26.803  0.00  0.00    +0.000 A 
ENDBRANCH  16  17
ENDBRANCH   2  14
TORSDOF 4
ENDMDL
MODEL 8
REMARK VINA RESULT:      -5.8     20.924     22.167
REMARK  Name = 
REMARK  4 active torsions:
REMARK  status: ('A' for Active; 'I' for Inactive)
REMARK    1  A    between atoms: C_5  and  N_6
REMARK    2  A    between atoms: C_7  and  C_9
REMARK    3  A    between atoms: C_11  and  C_12
REMARK    4  A    between atoms: C_19  and  N_20
REMARK                            x       y       z     vdW  Elec       q    Type
REMARK                         _______ _______ _______ _____ _____    ______ ____
ROOT
ATOM      1  N   UNL     1      28.947   3.758  16.145  0.00  0.00    +0.000 NA
ATOM      2  C   UNL     1      29.006   4.503  14.959  0.00  0.00    +0.000 C 
ATOM      3  O   UNL     1      28.148   4.355  14.158  0.00  0.00    +0.000 OA
ENDROOT
BRANCH   1   8
ATOM      4  C   UNL     1      24.886  -0.053  17.340  0.00  0.00    +0.000 C 
ATOM      5  C   UNL     1      25.914   0.994  17.045  0.00  0.00    +0.000 A 
ATOM      6  C   UNL     1      27.119   0.544  16.554  0.00  0.00    +0.000 A 
ATOM      7  C   UNL     1      28.088   1.451  16.268  0.00  0.00    +0.000 A 
ATOM      8  C   UNL     1      27.886   2.802  16.461  0.00  0.00    +0.000 A 
ATOM      9  C   UNL     1      26.680   3.220  16.951  0.00  0.00    +0.000 A 
ATOM     10  C   UNL     1      25.666   2.339  17.255  0.00  0.00    +0.000 A 
BRANCH  10  11
ATOM     11  N   UNL     1      24.405   2.744  17.765  0.00  0.00    +0.000 N 
ATOM     12  O   UNL     1      24.206   2.775  19.008  0.00  0.00    +0.000 OA
ATOM     13  O   UNL     1      23.381   3.109  16.928  0.00  0.00    +0.000 OA
ENDBRANCH  10  11
ENDBRANCH   1   8
BRANCH   2  14
ATOM     14  C   UNL     1      30.262   5.436  14.919  0.00  0.00    +0.000 C 
ATOM     15  C   UNL     1      29.693   6.753  13.953  0.00  0.00    +0.000 C 
ATOM     16  C   UNL     1      29.873   6.928  15.649  0.00  0.00    +0.000 C 
BRANCH  16  17
ATOM     17  C   UNL     1      28.408   6.892  16.156  0.00  0.00    +0.000 A 
ATOM     18  C   UNL     1      28.376   6.780  17.522  0.00  0.00    +0.000 A 
ATOM     19  C   UNL     1      27.149   6.726  18.224  0.00  0.00    +0.000 A 
ATOM     20  C   UNL     1      26.010   6.793  17.455  0.00  0.00    +0.000 A 
ATOM     21  C   UNL     1      26.043   6.905  16.093  0.00  0.00    +0.000 A 
ATOM     22  C   UNL     1      27.279   6.947  15.538  0.00  0.00    +0.000 A 
ENDBRANCH  16  17
ENDBRANCH   2  14
TORSDOF 4
ENDMDL
MODEL 9
REMARK VINA RESULT:      -5.8     20.449     21.736
REMARK  Name = 
REMARK  4 active torsions:
REMARK  status: ('A' for Active; 'I' for Inactive)
REMARK    1  A    between atoms: C_5  and  N_6
REMARK    2  A    between atoms: C_7  and  C_9
REMARK    3  A    between atoms: C_11  and  C_12
REMARK    4  A    between atoms: C_19  and  N_20
REMARK                            x       y       z     vdW  Elec       q    Type
REMARK                         _______ _______ _______ _____ _____    ______ ____
ROOT
ATOM      1  N   UNL     1      26.694   4.831  15.236  0.00  0.00    +0.000 NA
ATOM      2  C   UNL     1      26.904   6.191  14.968  0.00  0.00    +0.000 C 
ATOM      3  O   UNL     1      26.077   6.965  15.309  0.00  0.00    +0.000 OA
ENDROOT
BRANCH   1   8
ATOM      4  C   UNL     1      22.126   2.806  17.969  0.00  0.00    +0.000 C 
ATOM      5  C   UNL     1      23.302   3.316  17.197  0.00  0.00    +0.000 A 
ATOM      6  C   UNL     1      24.275   3.963  17.925  0.00  0.00    +0.000 A 
ATOM      7  C   UNL     1      25.365   4.446  17.275  0.00  0.00    +0.000 A 
ATOM      8  C   UNL     1      25.510   4.301  15.911  0.00  0.00    +0.000 A 
ATOM      9  C   UNL     1      24.527   3.655  15.213  0.00  0.00    +0.000 A 
ATOM     10  C   UNL     1      23.405   3.147  15.828  0.00  0.00    +0.000 A 
BRANCH  10  11
ATOM     11  N   UNL     1      22.370   2.472  15.129  0.00  0.00    +0.000 N 
ATOM     12  O   UNL     1      22.424   1.225  14.970  0.00  0.00    +0.000 OA
ATOM     13  O   UNL     1      21.295   3.152  14.614  0.00  0.00    +0.000 OA
ENDBRANCH  10  11
ENDBRANCH   1   8
BRANCH   2  14
ATOM     14  C   UNL     1      28.263   6.437  14.233  0.00  0.00    +0.000 C 
ATOM     15  C   UNL     1      28.646   8.050  14.727  0.00  0.00    +0.000 C 
ATOM     16  C   UNL     1      29.484   6.711  15.392  0.00  0.00    +0.000 C 
BRANCH  16  17
ATOM     17  C   UNL     1      28.883   6.600  16.817  0.00  0.00    +0.000 A 
ATOM     18  C   UNL     1      29.102   5.350  17.335  0.00  0.00    +0.000 A 
ATOM     19  C   UNL     1      28.646   5.001  18.627  0.00  0.00    +0.000 A 
ATOM     20  C   UNL     1      27.977   5.987  19.317  0.00  0.00    +0.000 A 
ATOM     21  C   UNL     1      27.759   7.233  18.800  0.00  0.00    +0.000 A 
ATOM     22  C   UNL     1      28.245   7.444  17.552  0.00  0.00    +0.000 A 
ENDBRANCH  16  17
ENDBRANCH   2  14
TORSDOF 4
ENDMDL
MODEL 10
REMARK VINA RESULT:      -5.8      2.317      6.211
REMARK  Name = 
REMARK  4 active torsions:
REMARK  status: ('A' for Active; 'I' for Inactive)
REMARK    1  A    between atoms: C_5  and  N_6
REMARK    2  A    between atoms: C_7  and  C_9
REMARK    3  A    between atoms: C_11  and  C_12
REMARK    4  A    between atoms: C_19  and  N_20
REMARK                            x       y       z     vdW  Elec       q    Type
REMARK                         _______ _______ _______ _____ _____    ______ ____
ROOT
ATOM      1  N   UNL     1      28.081  25.469  26.629  0.00  0.00    +0.000 NA
ATOM      2  C   UNL     1      27.509  24.368  27.281  0.00  0.00    +0.000 C 
ATOM      3  O   UNL     1      26.836  23.628  26.651  0.00  0.00    +0.000 OA
ENDROOT
BRANCH   1   8
ATOM      4  C   UNL     1      27.315  26.733  21.128  0.00  0.00    +0.000 C 
ATOM      5  C   UNL     1      27.542  26.345  22.556  0.00  0.00    +0.000 A 
ATOM      6  C   UNL     1      27.141  27.258  23.506  0.00  0.00    +0.000 A 
ATOM      7  C   UNL     1      27.322  26.959  24.817  0.00  0.00    +0.000 A 
ATOM      8  C   UNL     1      27.896  25.767  25.209  0.00  0.00    +0.000 A 
ATOM      9  C   UNL     1      28.286  24.880  24.244  0.00  0.00    +0.000 A 
ATOM     10  C   UNL     1      28.123  25.138  22.901  0.00  0.00    +0.000 A 
BRANCH  10  11
ATOM     11  N   UNL     1      28.517  24.237  21.878  0.00  0.00    +0.000 N 
ATOM     12  O   UNL     1      27.814  23.225  21.622  0.00  0.00    +0.000 OA
ATOM     13  O   UNL     1      29.662  24.440  21.150  0.00  0.00    +0.000 OA
ENDBRANCH  10  11
ENDBRANCH   1   8
BRANCH   2  14
ATOM     14  C   UNL     1      27.893  24.326  28.798  0.00  0.00    +0.000 C 
ATOM     15  C   UNL     1      28.020  22.625  29.084  0.00  0.00    +0.000 C 
ATOM     16  C   UNL     1      29.426  23.599  28.967  0.00  0.00    +0.000 C 
BRANCH  16  17
ATOM     17  C   UNL     1      29.985  23.231  27.568  0.00  0.00    +0.000 A 
ATOM     18  C   UNL     1      30.926  24.146  27.172  0.00  0.00    +0.000 A 
ATOM     19  C   UNL     1      31.584  24.028  25.925  0.00  0.00    +0.000 A 
ATOM     20  C   UNL     1      31.219  22.950  25.150  0.00  0.00    +0.000 A 
ATOM     21  C   UNL     1      30.280  22.039  25.546  0.00  0.00    +0.000 A 
ATOM     22  C   UNL     1      29.722  22.262  26.761  0.00  0.00    +0.000 A 
ENDBRANCH  16  17
ENDBRANCH   2  14
TORSDOF 4
ENDMDL
