MODEL 1
REMARK VINA RESULT:      -6.7      0.000      0.000
REMARK  Name = 
REMARK  2 active torsions:
REMARK  status: ('A' for Active; 'I' for Inactive)
REMARK    1  A    between atoms: O_2  and  C_3
REMARK    2  A    between atoms: C_8  and  C_9
REMARK                            x       y       z     vdW  Elec       q    Type
REMARK                         _______ _______ _______ _____ _____    ______ ____
ROOT
ATOM      1  C   UNL     1      28.448  24.597  21.876  0.00  0.00    +0.000 C 
ATOM      2  C   UNL     1      26.837  24.660  22.098  0.00  0.00    +0.000 C 
ATOM      3  C   UNL     1      26.379  23.401  22.659  0.00  0.00    +0.000 C 
ATOM      4  O   UNL     1      25.426  22.821  22.054  0.00  0.00    +0.000 OA
ATOM      5  N   UNL     1      26.995  22.885  23.822  0.00  0.00    +0.000 NA
ATOM      6  C   UNL     1      28.333  23.231  24.040  0.00  0.00    +0.000 A 
ATOM      7  C   UNL     1      29.000  22.747  25.217  0.00  0.00    +0.000 A 
ATOM      8  C   UNL     1      30.315  23.098  25.444  0.00  0.00    +0.000 A 
ATOM      9  C   UNL     1      31.025  22.610  26.654  0.00  0.00    +0.000 C 
ATOM     10  C   UNL     1      30.978  23.901  24.557  0.00  0.00    +0.000 A 
ATOM     11  C   UNL     1      32.370  24.274  24.797  0.00  0.00    +0.000 C 
ATOM     12  C   UNL     1      30.295  24.346  23.432  0.00  0.00    +0.000 A 
ATOM     13  C   UNL     1      28.985  24.001  23.196  0.00  0.00    +0.000 A 
ENDROOT
BRANCH   1  19
ATOM     14  C   UNL     1      29.361  26.787  21.091  0.00  0.00    +0.000 A 
ATOM     15  C   UNL     1      29.636  28.170  21.203  0.00  0.00    +0.000 A 
ATOM     16  C   UNL     1      29.230  28.813  22.349  0.00  0.00    +0.000 A 
ATOM     17  C   UNL     1      28.588  28.140  23.333  0.00  0.00    +0.000 A 
ATOM     18  C   UNL     1      28.339  26.802  23.192  0.00  0.00    +0.000 A 
ATOM     19  C   UNL     1      28.714  26.136  22.097  0.00  0.00    +0.000 A 
BRANCH  14  21
ATOM     20  C   UNL     1      30.137  26.847  18.781  0.00  0.00    +0.000 C 
ATOM     21  O   UNL     1      29.775  26.139  19.928  0.00  0.00    +0.000 OA
ENDBRANCH  14  21
ENDBRANCH   1  19
TORSDOF 2
ENDMDL
MODEL 2
REMARK VINA RESULT:      -6.6     20.449     22.197
REMARK  Name = 
REMARK  2 active torsions:
REMARK  status: ('A' for Active; 'I' for Inactive)
REMARK    1  A    between atoms: O_2  and  C_3
REMARK    2  A    between atoms: C_8  and  C_9
REMARK                            x       y       z     vdW  Elec       q    Type
REMARK                         _______ _______ _______ _____ _____    ______ ____
ROOT
ATOM      1  C   UNL     1      24.991   4.453  16.919  0.00  0.00    +0.000 C 
ATOM      2  C   UNL     1      23.985   4.461  18.197  0.00  0.00    +0.000 C 
ATOM      3  C   UNL     1      23.230   3.220  18.222  0.00  0.00    +0.000 C 
ATOM      4  O   UNL     1      21.967   3.324  18.295  0.00  0.00    +0.000 OA
ATOM      5  N   UNL     1      23.910   1.983  18.165  0.00  0.00    +0.000 NA
ATOM      6  C   UNL     1      25.144   1.964  17.505  0.00  0.00    +0.000 A 
ATOM      7  C   UNL     1      25.883   0.735  17.435  0.00  0.00    +0.000 A 
ATOM      8  C   UNL     1      27.108   0.716  16.798  0.00  0.00    +0.000 A 
ATOM      9  C   UNL     1      27.891  -0.543  16.713  0.00  0.00    +0.000 C 
ATOM     10  C   UNL     1      27.614   1.858  16.240  0.00  0.00    +0.000 A 
ATOM     11  C   UNL     1      28.910   1.839  15.566  0.00  0.00    +0.000 C 
ATOM     12  C   UNL     1      26.865   3.024  16.331  0.00  0.00    +0.000 A 
ATOM     13  C   UNL     1      25.643   3.054  16.962  0.00  0.00    +0.000 A 
ENDROOT
BRANCH   1  19
ATOM     14  C   UNL     1      26.561   6.396  16.839  0.00  0.00    +0.000 A 
ATOM     15  C   UNL     1      27.565   7.250  17.354  0.00  0.00    +0.000 A 
ATOM     16  C   UNL     1      28.060   6.973  18.607  0.00  0.00    +0.000 A 
ATOM     17  C   UNL     1      27.597   5.917  19.319  0.00  0.00    +0.000 A 
ATOM     18  C   UNL     1      26.626   5.112  18.789  0.00  0.00    +0.000 A 
ATOM     19  C   UNL     1      26.116   5.342  17.577  0.00  0.00    +0.000 A 
BRANCH  14  21
ATOM     20  C   UNL     1      26.906   6.992  14.500  0.00  0.00    +0.000 C 
ATOM     21  O   UNL     1      26.062   6.681  15.567  0.00  0.00    +0.000 OA
ENDBRANCH  14  21
ENDBRANCH   1  19
TORSDOF 2
ENDMDL
MODEL 3
REMARK VINA RESULT:      -6.6     33.060     35.654
REMARK  Name = 
REMARK  2 active torsions:
REMARK  status: ('A' for Active; 'I' for Inactive)
REMARK    1  A    between atoms: O_2  and  C_3
REMARK    2  A    between atoms: C_8  and  C_9
REMARK                            x       y       z     vdW  Elec       q    Type
REMARK                         _______ _______ _______ _____ _____    ______ ____
ROOT
ATOM      1  C   UNL     1      18.471  -7.716  27.609  0.00  0.00    +0.000 C 
ATOM      2  C   UNL     1      17.688  -6.597  26.725  0.00  0.00    +0.000 C 
ATOM      3  C   UNL     1      18.631  -5.581  26.291  0.00  0.00    +0.000 C 
ATOM      4  O   UNL     1      18.325  -4.375  26.543  0.00  0.00    +0.000 OA
ATOM      5  N   UNL     1      19.817  -5.963  25.623  0.00  0.00    +0.000 NA
ATOM      6  C   UNL     1      20.335  -7.228  25.922  0.00  0.00    +0.000 A 
ATOM      7  C   UNL     1      21.529  -7.671  25.257  0.00  0.00    +0.000 A 
ATOM      8  C   UNL     1      22.036  -8.924  25.537  0.00  0.00    +0.000 A 
ATOM      9  C   UNL     1      23.269  -9.404  24.863  0.00  0.00    +0.000 C 
ATOM     10  C   UNL     1      21.405  -9.737  26.438  0.00  0.00    +0.000 A 
ATOM     11  C   UNL     1      21.941 -11.064  26.735  0.00  0.00    +0.000 C 
ATOM     12  C   UNL     1      20.254  -9.269  27.058  0.00  0.00    +0.000 A 
ATOM     13  C   UNL     1      19.742  -8.022  26.787  0.00  0.00    +0.000 A 
ENDROOT
BRANCH   1  19
ATOM     14  C   UNL     1      17.168  -9.756  28.229  0.00  0.00    +0.000 A 
ATOM     15  C   UNL     1      16.332 -10.867  27.966  0.00  0.00    +0.000 A 
ATOM     16  C   UNL     1      15.926 -11.070  26.668  0.00  0.00    +0.000 A 
ATOM     17  C   UNL     1      16.315 -10.230  25.679  0.00  0.00    +0.000 A 
ATOM     18  C   UNL     1      17.124  -9.166  25.969  0.00  0.00    +0.000 A 
ATOM     19  C   UNL     1      17.544  -8.929  27.214  0.00  0.00    +0.000 A 
BRANCH  14  21
ATOM     20  C   UNL     1      17.086 -10.332  30.596  0.00  0.00    +0.000 C 
ATOM     21  O   UNL     1      17.578  -9.555  29.547  0.00  0.00    +0.000 OA
ENDBRANCH  14  21
ENDBRANCH   1  19
TORSDOF 2
ENDMDL
MODEL 4
REMARK VINA RESULT:      -6.4     11.685     14.535
REMARK  Name = 
REMARK  2 active torsions:
REMARK  status: ('A' for Active; 'I' for Inactive)
REMARK    1  A    between atoms: O_2  and  C_3
REMARK    2  A    between atoms: C_8  and  C_9
REMARK                            x       y       z     vdW  Elec       q    Type
REMARK                         _______ _______ _______ _____ _____    ______ ____
ROOT
ATOM      1  C   UNL     1      32.257  22.437  10.903  0.00  0.00    +0.000 C 
ATOM      2  C   UNL     1      31.610  21.871  12.284  0.00  0.00    +0.000 C 
ATOM      3  C   UNL     1      30.170  21.752  12.127  0.00  0.00    +0.000 C 
ATOM      4  O   UNL     1      29.452  22.314  13.009  0.00  0.00    +0.000 OA
ATOM      5  N   UNL     1      29.641  21.035  11.029  0.00  0.00    +0.000 NA
ATOM      6  C   UNL     1      30.415  20.991   9.865  0.00  0.00    +0.000 A 
ATOM      7  C   UNL     1      29.930  20.261   8.727  0.00  0.00    +0.000 A 
ATOM      8  C   UNL     1      30.697  20.202   7.581  0.00  0.00    +0.000 A 
ATOM      9  C   UNL     1      30.217  19.453   6.392  0.00  0.00    +0.000 C 
ATOM     10  C   UNL     1      31.910  20.833   7.530  0.00  0.00    +0.000 A 
ATOM     11  C   UNL     1      32.723  20.772   6.317  0.00  0.00    +0.000 C 
ATOM     12  C   UNL     1      32.340  21.529   8.652  0.00  0.00    +0.000 A 
ATOM     13  C   UNL     1      31.583  21.594   9.799  0.00  0.00    +0.000 A 
ENDROOT
BRANCH   1  19
ATOM     14  C   UNL     1      34.749  22.429  10.707  0.00  0.00    +0.000 A 
ATOM     15  C   UNL     1      36.037  21.854  10.813  0.00  0.00    +0.000 A 
ATOM     16  C   UNL     1      36.123  20.559  11.267  0.00  0.00    +0.000 A 
ATOM     17  C   UNL     1      35.010  19.863  11.602  0.00  0.00    +0.000 A 
ATOM     18  C   UNL     1      33.780  20.452  11.486  0.00  0.00    +0.000 A 
ATOM     19  C   UNL     1      33.647  21.706  11.050  0.00  0.00    +0.000 A 
BRANCH  14  21
ATOM     20  C   UNL     1      35.066  24.095   8.955  0.00  0.00    +0.000 C 
ATOM     21  O   UNL     1      34.665  23.743  10.245  0.00  0.00    +0.000 OA
ENDBRANCH  14  21
ENDBRANCH   1  19
TORSDOF 2
ENDMDL
MODEL 5
REMARK VINA RESULT:      -6.4      4.104      6.968
REMARK  Name = 
REMARK  2 active torsions:
REMARK  status: ('A' for Active; 'I' for Inactive)
REMARK    1  A    between atoms: O_2  and  C_3
REMARK    2  A    between atoms: C_8  and  C_9
REMARK                            x       y       z     vdW  Elec       q    Type
REMARK                         _______ _______ _______ _____ _____    ______ ____
ROOT
ATOM      1  C   UNL     1      28.354  22.402  27.763  0.00  0.00    +0.000 C 
ATOM      2  C   UNL     1      29.792  22.816  28.400  0.00  0.00    +0.000 C 
ATOM      3  C   UNL     1      30.858  22.282  27.569  0.00  0.00    +0.000 C 
ATOM      4  O   UNL     1      31.746  21.591  28.156  0.00  0.00    +0.000 OA
ATOM      5  N   UNL     1      30.864  22.546  26.181  0.00  0.00    +0.000 NA
ATOM      6  C   UNL     1      29.624  22.760  25.568  0.00  0.00    +0.000 A 
ATOM      7  C   UNL     1      29.577  23.050  24.162  0.00  0.00    +0.000 A 
ATOM      8  C   UNL     1      28.358  23.277  23.557  0.00  0.00    +0.000 A 
ATOM      9  C   UNL     1      28.284  23.579  22.104  0.00  0.00    +0.000 C 
ATOM     10  C   UNL     1      27.204  23.228  24.290  0.00  0.00    +0.000 A 
ATOM     11  C   UNL     1      25.912  23.469  23.650  0.00  0.00    +0.000 C 
ATOM     12  C   UNL     1      27.295  22.944  25.646  0.00  0.00    +0.000 A 
ATOM     13  C   UNL     1      28.505  22.716  26.259  0.00  0.00    +0.000 A 
ENDROOT
BRANCH   1  19
ATOM     14  C   UNL     1      26.503  23.437  29.087  0.00  0.00    +0.000 A 
ATOM     15  C   UNL     1      25.745  24.519  29.593  0.00  0.00    +0.000 A 
ATOM     16  C   UNL     1      26.121  25.790  29.228  0.00  0.00    +0.000 A 
ATOM     17  C   UNL     1      27.184  25.994  28.414  0.00  0.00    +0.000 A 
ATOM     18  C   UNL     1      27.895  24.924  27.943  0.00  0.00    +0.000 A 
ATOM     19  C   UNL     1      27.567  23.672  28.270  0.00  0.00    +0.000 A 
BRANCH  14  21
ATOM     20  C   UNL     1      26.469  21.605  30.695  0.00  0.00    +0.000 C 
ATOM     21  O   UNL     1      26.118  22.149  29.458  0.00  0.00    +0.000 OA
ENDBRANCH  14  21
ENDBRANCH   1  19
TORSDOF 2
ENDMDL
MODEL 6
REMARK VINA RESULT:      -6.3     33.446     35.765
REMARK  Name = 
REMARK  2 active torsions:
REMARK  status: ('A' for Active; 'I' for Inactive)
REMARK    1  A    between atoms: O_2  and  C_3
REMARK    2  A    between atoms: C_8  and  C_9
REMARK                            x       y       z     vdW  Elec       q    Type
REMARK                         _______ _______ _______ _____ _____    ______ ____
ROOT
ATOM      1  C   UNL     1      17.993  -9.156  25.899  0.00  0.00    +0.000 C 
ATOM      2  C   UNL     1      16.497  -8.820  25.356  0.00  0.00    +0.000 C 
ATOM      3  C   UNL     1      15.602  -9.910  25.705  0.00  0.00    +0.000 C 
ATOM      4  O   UNL     1      14.920 -10.412  24.760  0.00  0.00    +0.000 OA
ATOM      5  N   UNL     1      15.528 -10.356  27.044  0.00  0.00    +0.000 NA
ATOM      6  C   UNL     1      16.672 -10.193  27.834  0.00  0.00    +0.000 A 
ATOM      7  C   UNL     1      16.642 -10.614  29.206  0.00  0.00    +0.000 A 
ATOM      8  C   UNL     1      17.763 -10.441  29.993  0.00  0.00    +0.000 A 
ATOM      9  C   UNL     1      17.756 -10.868  31.415  0.00  0.00    +0.000 C 
ATOM     10  C   UNL     1      18.892  -9.872  29.470  0.00  0.00    +0.000 A 
ATOM     11  C   UNL     1      20.079  -9.688  30.302  0.00  0.00    +0.000 C 
ATOM     12  C   UNL     1      18.877  -9.480  28.138  0.00  0.00    +0.000 A 
ATOM     13  C   UNL     1      17.765  -9.649  27.345  0.00  0.00    +0.000 A 
ENDROOT
BRANCH   1  19
ATOM     14  C   UNL     1      19.646  -7.298  25.649  0.00  0.00    +0.000 A 
ATOM     15  C   UNL     1      20.115  -5.974  25.818  0.00  0.00    +0.000 A 
ATOM     16  C   UNL     1      19.305  -5.089  26.490  0.00  0.00    +0.000 A 
ATOM     17  C   UNL     1      18.100  -5.477  26.971  0.00  0.00    +0.000 A 
ATOM     18  C   UNL     1      17.678  -6.766  26.790  0.00  0.00    +0.000 A 
ATOM     19  C   UNL     1      18.430  -7.660  26.144  0.00  0.00    +0.000 A 
BRANCH  14  21
ATOM     20  C   UNL     1      21.624  -8.719  25.551  0.00  0.00    +0.000 C 
ATOM     21  O   UNL     1      20.471  -8.194  24.967  0.00  0.00    +0.000 OA
ENDBRANCH  14  21
ENDBRANCH   1  19
TORSDOF 2
ENDMDL
MODEL 7
REMARK VINA RESULT:      -6.2      3.096      4.829
REMARK  Name = 
REMARK  2 active torsions:
REMARK  status: ('A' for Active; 'I' for Inactive)
REMARK    1  A    between atoms: O_2  and  C_3
REMARK    2  A    between atoms: C_8  and  C_9
REMARK                            x       y       z     vdW  Elec       q    Type
REMARK                         _______ _______ _______ _____ _____    ______ ____
ROOT
ATOM      1  C   UNL     1      27.958  23.075  24.764  0.00  0.00    +0.000 C 
ATOM      2  C   UNL     1      27.380  23.535  23.314  0.00  0.00    +0.000 C 
ATOM      3  C   UNL     1      25.933  23.404  23.310  0.00  0.00    +0.000 C 
ATOM      4  O   UNL     1      25.424  22.735  22.359  0.00  0.00    +0.000 OA
ATOM      5  N   UNL     1      25.171  24.010  24.335  0.00  0.00    +0.000 NA
ATOM      6  C   UNL     1      25.792  24.175  25.577  0.00  0.00    +0.000 A 
ATOM      7  C   UNL     1      25.067  24.802  26.647  0.00  0.00    +0.000 A 
ATOM      8  C   UNL     1      25.681  24.981  27.870  0.00  0.00    +0.000 A 
ATOM      9  C   UNL     1      24.951  25.626  28.991  0.00  0.00    +0.000 C 
ATOM     10  C   UNL     1      26.971  24.566  28.061  0.00  0.00    +0.000 A 
ATOM     11  C   UNL     1      27.622  24.755  29.356  0.00  0.00    +0.000 C 
ATOM     12  C   UNL     1      27.635  23.964  27.000  0.00  0.00    +0.000 A 
ATOM     13  C   UNL     1      27.032  23.781  25.778  0.00  0.00    +0.000 A 
ENDROOT
BRANCH   1  19
ATOM     14  C   UNL     1      30.366  23.519  25.266  0.00  0.00    +0.000 A 
ATOM     15  C   UNL     1      31.540  24.308  25.300  0.00  0.00    +0.000 A 
ATOM     16  C   UNL     1      31.462  25.592  24.814  0.00  0.00    +0.000 A 
ATOM     17  C   UNL     1      30.298  26.079  24.320  0.00  0.00    +0.000 A 
ATOM     18  C   UNL     1      29.182  25.287  24.303  0.00  0.00    +0.000 A 
ATOM     19  C   UNL     1      29.210  24.035  24.764  0.00  0.00    +0.000 A 
BRANCH  14  21
ATOM     20  C   UNL     1      30.653  21.958  27.117  0.00  0.00    +0.000 C 
ATOM     21  O   UNL     1      30.449  22.217  25.761  0.00  0.00    +0.000 OA
ENDBRANCH  14  21
ENDBRANCH   1  19
TORSDOF 2
ENDMDL
MODEL 8
REMARK VINA RESULT:      -6.2      2.516      4.026
REMARK  Name = 
REMARK  2 active torsions:
REMARK  status: ('A' for Active; 'I' for Inactive)
REMARK    1  A    between atoms: O_2  and  C_3
REMARK    2  A    between atoms: C_8  and  C_9
REMARK                            x       y       z     vdW  Elec       q    Type
REMARK                         _______ _______ _______ _____ _____    ______ ____
ROOT
ATOM      1  C   UNL     1      30.769  23.705  24.163  0.00  0.00    +0.000 C 
ATOM      2  C   UNL     1      29.764  24.391  23.084  0.00  0.00    +0.000 C 
ATOM      3  C   UNL     1      28.589  23.553  22.921  0.00  0.00    +0.000 C 
ATOM      4  O   UNL     1      28.282  23.225  21.734  0.00  0.00    +0.000 OA
ATOM      5  N   UNL     1      27.853  23.147  24.058  0.00  0.00    +0.000 NA
ATOM      6  C   UNL     1      28.556  23.033  25.263  0.00  0.00    +0.000 A 
ATOM      7  C   UNL     1      27.851  22.641  26.451  0.00  0.00    +0.000 A 
ATOM      8  C   UNL     1      28.537  22.543  27.645  0.00  0.00    +0.000 A 
ATOM      9  C   UNL     1      27.830  22.139  28.887  0.00  0.00    +0.000 C 
ATOM     10  C   UNL     1      29.876  22.817  27.696  0.00  0.00    +0.000 A 
ATOM     11  C   UNL     1      30.603  22.713  28.960  0.00  0.00    +0.000 C 
ATOM     12  C   UNL     1      30.518  23.192  26.523  0.00  0.00    +0.000 A 
ATOM     13  C   UNL     1      29.844  23.293  25.328  0.00  0.00    +0.000 A 
ENDROOT
BRANCH   1  19
ATOM     14  C   UNL     1      32.736  25.094  24.834  0.00  0.00    +0.000 A 
ATOM     15  C   UNL     1      33.370  26.265  25.312  0.00  0.00    +0.000 A 
ATOM     16  C   UNL     1      32.572  27.335  25.642  0.00  0.00    +0.000 A 
ATOM     17  C   UNL     1      31.226  27.265  25.510  0.00  0.00    +0.000 A 
ATOM     18  C   UNL     1      30.647  26.116  25.044  0.00  0.00    +0.000 A 
ATOM     19  C   UNL     1      31.381  25.052  24.711  0.00  0.00    +0.000 A 
BRANCH  14  21
ATOM     20  C   UNL     1      34.934  24.140  24.379  0.00  0.00    +0.000 C 
ATOM     21  O   UNL     1      33.549  24.010  24.501  0.00  0.00    +0.000 OA
ENDBRANCH  14  21
ENDBRANCH   1  19
TORSDOF 2
ENDMDL
MODEL 9
REMARK VINA RESULT:      -6.1      3.287      5.717
REMARK  Name = 
REMARK  2 active torsions:
REMARK  status: ('A' for Active; 'I' for Inactive)
REMARK    1  A    between atoms: O_2  and  C_3
REMARK    2  A    between atoms: C_8  and  C_9
REMARK                            x       y       z     vdW  Elec       q    Type
REMARK                         _______ _______ _______ _____ _____    ______ ____
ROOT
ATOM      1  C   UNL     1      26.828  24.380  25.765  0.00  0.00    +0.000 C 
ATOM      2  C   UNL     1      26.017  23.159  25.060  0.00  0.00    +0.000 C 
ATOM      3  C   UNL     1      26.441  23.035  23.676  0.00  0.00    +0.000 C 
ATOM      4  O   UNL     1      25.526  23.034  22.797  0.00  0.00    +0.000 OA
ATOM      5  N   UNL     1      27.817  22.924  23.371  0.00  0.00    +0.000 NA
ATOM      6  C   UNL     1      28.717  23.519  24.263  0.00  0.00    +0.000 A 
ATOM      7  C   UNL     1      30.126  23.420  24.008  0.00  0.00    +0.000 A 
ATOM      8  C   UNL     1      31.018  23.991  24.893  0.00  0.00    +0.000 A 
ATOM      9  C   UNL     1      32.480  23.901  24.651  0.00  0.00    +0.000 C 
ATOM     10  C   UNL     1      30.562  24.646  26.005  0.00  0.00    +0.000 A 
ATOM     11  C   UNL     1      31.505  25.251  26.943  0.00  0.00    +0.000 C 
ATOM     12  C   UNL     1      29.191  24.719  26.212  0.00  0.00    +0.000 A 
ATOM     13  C   UNL     1      28.294  24.153  25.336  0.00  0.00    +0.000 A 
ENDROOT
BRANCH   1  19
ATOM     14  C   UNL     1      26.050  24.401  28.140  0.00  0.00    +0.000 A 
ATOM     15  C   UNL     1      25.988  23.918  29.468  0.00  0.00    +0.000 A 
ATOM     16  C   UNL     1      26.736  22.807  29.781  0.00  0.00    +0.000 A 
ATOM     17  C   UNL     1      27.503  22.199  28.845  0.00  0.00    +0.000 A 
ATOM     18  C   UNL     1      27.539  22.694  27.569  0.00  0.00    +0.000 A 
ATOM     19  C   UNL     1      26.830  23.770  27.219  0.00  0.00    +0.000 A 
BRANCH  14  21
ATOM     20  C   UNL     1      24.414  26.103  28.749  0.00  0.00    +0.000 C 
ATOM     21  O   UNL     1      25.291  25.529  27.827  0.00  0.00    +0.000 OA
ENDBRANCH  14  21
ENDBRANCH   1  19
TORSDOF 2
ENDMDL
MODEL 10
REMARK VINA RESULT:      -6.0      5.391      7.554
REMARK  Name = 
REMARK  2 active torsions:
REMARK  status: ('A' for Active; 'I' for Inactive)
REMARK    1  A    between atoms: O_2  and  C_3
REMARK    2  A    between atoms: C_8  and  C_9
REMARK                            x       y       z     vdW  Elec       q    Type
REMARK                         _______ _______ _______ _____ _____    ______ ____
ROOT
ATOM      1  C   UNL     1      28.572  22.682  29.689  0.00  0.00    +0.000 C 
ATOM      2  C   UNL     1      27.261  21.741  29.485  0.00  0.00    +0.000 C 
ATOM      3  C   UNL     1      26.233  22.136  30.432  0.00  0.00    +0.000 C 
ATOM      4  O   UNL     1      25.740  21.216  31.154  0.00  0.00    +0.000 OA
ATOM      5  N   UNL     1      25.834  23.490  30.511  0.00  0.00    +0.000 NA
ATOM      6  C   UNL     1      26.785  24.455  30.163  0.00  0.00    +0.000 A 
ATOM      7  C   UNL     1      26.423  25.844  30.209  0.00  0.00    +0.000 A 
ATOM      8  C   UNL     1      27.354  26.799  29.852  0.00  0.00    +0.000 A 
ATOM      9  C   UNL     1      27.003  28.242  29.891  0.00  0.00    +0.000 C 
ATOM     10  C   UNL     1      28.609  26.426  29.457  0.00  0.00    +0.000 A 
ATOM     11  C   UNL     1      29.595  27.436  29.078  0.00  0.00    +0.000 C 
ATOM     12  C   UNL     1      28.916  25.072  29.428  0.00  0.00    +0.000 A 
ATOM     13  C   UNL     1      27.997  24.112  29.782  0.00  0.00    +0.000 A 
ENDROOT
BRANCH   1  19
ATOM     14  C   UNL     1      30.400  22.557  27.989  0.00  0.00    +0.000 A 
ATOM     15  C   UNL     1      30.921  22.505  26.675  0.00  0.00    +0.000 A 
ATOM     16  C   UNL     1      30.027  22.540  25.630  0.00  0.00    +0.000 A 
ATOM     17  C   UNL     1      28.694  22.619  25.858  0.00  0.00    +0.000 A 
ATOM     18  C   UNL     1      28.226  22.667  27.143  0.00  0.00    +0.000 A 
ATOM     19  C   UNL     1      29.055  22.636  28.188  0.00  0.00    +0.000 A 
BRANCH  14  21
ATOM     20  C   UNL     1      32.290  21.533  29.140  0.00  0.00    +0.000 C 
ATOM     21  O   UNL     1      31.310  22.523  29.046  0.00  0.00    +0.000 OA
ENDBRANCH  14  21
ENDBRANCH   1  19
TORSDOF 2
ENDMDL
