MODEL 1
REMARK VINA RESULT:      -7.0      0.000      0.000
REMARK  Name = 
REMARK  3 active torsions:
REMARK  status: ('A' for Active; 'I' for Inactive)
REMARK    1  A    between atoms: C_2  and  N_3
REMARK    2  A    between atoms: C_6  and  C_7
REMARK    3  A    between atoms: C_14  and  O_15
REMARK                            x       y       z     vdW  Elec       q    Type
REMARK                         _______ _______ _______ _____ _____    ______ ____
ROOT
ATOM      1  C   UNL     1      15.966  11.039  36.090  0.00  0.00    +0.000 A 
ATOM      2  C   UNL     1      15.023  11.227  37.079  0.00  0.00    +0.000 A 
ATOM      3  C   UNL     1      13.619  11.680  36.849  0.00  0.00    +0.000 C 
ATOM      4  N   UNL     1      15.571  10.936  38.272  0.00  0.00    +0.000 NA
ATOM      5  C   UNL     1      16.849  10.562  38.101  0.00  0.00    +0.000 A 
ATOM      6  C   UNL     1      17.826  10.172  38.983  0.00  0.00    +0.000 A 
ATOM      7  C   UNL     1      19.095   9.831  38.517  0.00  0.00    +0.000 A 
ATOM      8  C   UNL     1      19.366   9.886  37.172  0.00  0.00    +0.000 A 
ATOM      9  C   UNL     1      18.370  10.278  36.316  0.00  0.00    +0.000 A 
ATOM     10  C   UNL     1      17.103  10.623  36.750  0.00  0.00    +0.000 A 
ENDROOT
BRANCH   1  14
ATOM     11  N   UNL     1      14.386  13.456  32.101  0.00  0.00    +0.000 NA
ATOM     12  C   UNL     1      15.045  12.401  32.835  0.00  0.00    +0.000 A 
ATOM     13  N   UNL     1      15.167  12.264  34.147  0.00  0.00    +0.000 NA
ATOM     14  C   UNL     1      15.799  11.240  34.625  0.00  0.00    +0.000 A 
ATOM     15  C   UNL     1      16.313  10.338  33.726  0.00  0.00    +0.000 A 
ATOM     16  S   UNL     1      15.850  11.029  32.231  0.00  0.00    +0.000 S 
BRANCH  11  18
ATOM     17  C   UNL     1      15.743  13.841  30.099  0.00  0.00    +0.000 C 
ATOM     18  C   UNL     1      14.407  13.346  30.646  0.00  0.00    +0.000 C 
ENDBRANCH  11  18
ENDBRANCH   1  14
BRANCH   8  19
ATOM     19  O   UNL     1      20.647   9.540  36.722  0.00  0.00    +0.000 OA
ATOM     20  C   UNL     1      21.806  10.182  37.167  0.00  0.00    +0.000 C 
ENDBRANCH   8  19
TORSDOF 3
ENDMDL
MODEL 2
REMARK VINA RESULT:      -6.6      3.630      6.409
REMARK  Name = 
REMARK  3 active torsions:
REMARK  status: ('A' for Active; 'I' for Inactive)
REMARK    1  A    between atoms: C_2  and  N_3
REMARK    2  A    between atoms: C_6  and  C_7
REMARK    3  A    between atoms: C_14  and  O_15
REMARK                            x       y       z     vdW  Elec       q    Type
REMARK                         _______ _______ _______ _____ _____    ______ ____
ROOT
ATOM      1  C   UNL     1      16.310  10.715  38.138  0.00  0.00    +0.000 A 
ATOM      2  C   UNL     1      15.661  10.220  39.249  0.00  0.00    +0.000 A 
ATOM      3  C   UNL     1      16.303   9.409  40.326  0.00  0.00    +0.000 C 
ATOM      4  N   UNL     1      14.367  10.585  39.204  0.00  0.00    +0.000 NA
ATOM      5  C   UNL     1      14.142  11.306  38.095  0.00  0.00    +0.000 A 
ATOM      6  C   UNL     1      13.012  11.903  37.591  0.00  0.00    +0.000 A 
ATOM      7  C   UNL     1      13.069  12.606  36.389  0.00  0.00    +0.000 A 
ATOM      8  C   UNL     1      14.257  12.703  35.708  0.00  0.00    +0.000 A 
ATOM      9  C   UNL     1      15.368  12.097  36.236  0.00  0.00    +0.000 A 
ATOM     10  C   UNL     1      15.341  11.392  37.427  0.00  0.00    +0.000 A 
ENDROOT
BRANCH   1  14
ATOM     11  N   UNL     1      21.078  11.939  38.285  0.00  0.00    +0.000 NA
ATOM     12  C   UNL     1      19.919  11.172  37.889  0.00  0.00    +0.000 A 
ATOM     13  N   UNL     1      18.654  11.354  38.238  0.00  0.00    +0.000 NA
ATOM     14  C   UNL     1      17.745  10.556  37.777  0.00  0.00    +0.000 A 
ATOM     15  C   UNL     1      18.154   9.550  36.936  0.00  0.00    +0.000 A 
ATOM     16  S   UNL     1      19.841   9.818  36.862  0.00  0.00    +0.000 S 
BRANCH  11  18
ATOM     17  C   UNL     1      23.089  10.622  38.747  0.00  0.00    +0.000 C 
ATOM     18  C   UNL     1      22.360  11.507  37.740  0.00  0.00    +0.000 C 
ENDBRANCH  11  18
ENDBRANCH   1  14
BRANCH   8  19
ATOM     19  O   UNL     1      14.294  13.413  34.501  0.00  0.00    +0.000 OA
ATOM     20  C   UNL     1      13.417  14.462  34.211  0.00  0.00    +0.000 C 
ENDBRANCH   8  19
TORSDOF 3
ENDMDL
MODEL 3
REMARK VINA RESULT:      -6.5     20.494     22.816
REMARK  Name = 
REMARK  3 active torsions:
REMARK  status: ('A' for Active; 'I' for Inactive)
REMARK    1  A    between atoms: C_2  and  N_3
REMARK    2  A    between atoms: C_6  and  C_7
REMARK    3  A    between atoms: C_14  and  O_15
REMARK                            x       y       z     vdW  Elec       q    Type
REMARK                         _______ _______ _______ _____ _____    ______ ____
ROOT
ATOM      1  C   UNL     1      33.171  -3.875  33.769  0.00  0.00    +0.000 A 
ATOM      2  C   UNL     1      32.442  -4.316  34.854  0.00  0.00    +0.000 A 
ATOM      3  C   UNL     1      32.133  -5.746  35.153  0.00  0.00    +0.000 C 
ATOM      4  N   UNL     1      32.061  -3.257  35.590  0.00  0.00    +0.000 NA
ATOM      5  C   UNL     1      32.515  -2.129  35.023  0.00  0.00    +0.000 A 
ATOM      6  C   UNL     1      32.401  -0.806  35.373  0.00  0.00    +0.000 A 
ATOM      7  C   UNL     1      32.988   0.181  34.581  0.00  0.00    +0.000 A 
ATOM      8  C   UNL     1      33.681  -0.173  33.450  0.00  0.00    +0.000 A 
ATOM      9  C   UNL     1      33.777  -1.502  33.127  0.00  0.00    +0.000 A 
ATOM     10  C   UNL     1      33.205  -2.501  33.893  0.00  0.00    +0.000 A 
ENDROOT
BRANCH   1  14
ATOM     11  N   UNL     1      33.476  -5.691  29.201  0.00  0.00    +0.000 NA
ATOM     12  C   UNL     1      33.870  -5.494  30.578  0.00  0.00    +0.000 A 
ATOM     13  N   UNL     1      33.284  -4.749  31.502  0.00  0.00    +0.000 NA
ATOM     14  C   UNL     1      33.789  -4.697  32.694  0.00  0.00    +0.000 A 
ATOM     15  C   UNL     1      34.924  -5.432  32.932  0.00  0.00    +0.000 A 
ATOM     16  S   UNL     1      35.197  -6.161  31.409  0.00  0.00    +0.000 S 
BRANCH  11  18
ATOM     17  C   UNL     1      33.676  -7.957  28.295  0.00  0.00    +0.000 C 
ATOM     18  C   UNL     1      34.319  -6.577  28.406  0.00  0.00    +0.000 C 
ENDBRANCH  11  18
ENDBRANCH   1  14
BRANCH   8  19
ATOM     19  O   UNL     1      34.263   0.832  32.667  0.00  0.00    +0.000 OA
ATOM     20  C   UNL     1      33.961   2.188  32.826  0.00  0.00    +0.000 C 
ENDBRANCH   8  19
TORSDOF 3
ENDMDL
MODEL 4
REMARK VINA RESULT:      -6.5     20.884     23.465
REMARK  Name = 
REMARK  3 active torsions:
REMARK  status: ('A' for Active; 'I' for Inactive)
REMARK    1  A    between atoms: C_2  and  N_3
REMARK    2  A    between atoms: C_6  and  C_7
REMARK    3  A    between atoms: C_14  and  O_15
REMARK                            x       y       z     vdW  Elec       q    Type
REMARK                         _______ _______ _______ _____ _____    ______ ____
ROOT
ATOM      1  C   UNL     1      28.988  24.616  22.463  0.00  0.00    +0.000 A 
ATOM      2  C   UNL     1      27.905  23.763  22.505  0.00  0.00    +0.000 A 
ATOM      3  C   UNL     1      26.708  23.854  21.618  0.00  0.00    +0.000 C 
ATOM      4  N   UNL     1      28.104  22.844  23.467  0.00  0.00    +0.000 NA
ATOM      5  C   UNL     1      29.286  23.066  24.062  0.00  0.00    +0.000 A 
ATOM      6  C   UNL     1      29.944  22.425  25.083  0.00  0.00    +0.000 A 
ATOM      7  C   UNL     1      31.191  22.881  25.508  0.00  0.00    +0.000 A 
ATOM      8  C   UNL     1      31.761  23.975  24.904  0.00  0.00    +0.000 A 
ATOM      9  C   UNL     1      31.081  24.594  23.888  0.00  0.00    +0.000 A 
ATOM     10  C   UNL     1      29.842  24.163  23.446  0.00  0.00    +0.000 A 
ENDROOT
BRANCH   1  14
ATOM     11  N   UNL     1      30.416  26.755  18.262  0.00  0.00    +0.000 NA
ATOM     12  C   UNL     1      29.871  26.694  19.599  0.00  0.00    +0.000 A 
ATOM     13  N   UNL     1      29.706  25.632  20.373  0.00  0.00    +0.000 NA
ATOM     14  C   UNL     1      29.196  25.776  21.554  0.00  0.00    +0.000 A 
ATOM     15  C   UNL     1      28.851  27.047  21.943  0.00  0.00    +0.000 A 
ATOM     16  S   UNL     1      29.287  27.966  20.568  0.00  0.00    +0.000 S 
BRANCH  11  18
ATOM     17  C   UNL     1      31.896  28.634  17.742  0.00  0.00    +0.000 C 
ATOM     18  C   UNL     1      30.479  28.076  17.647  0.00  0.00    +0.000 C 
ENDBRANCH  11  18
ENDBRANCH   1  14
BRANCH   8  19
ATOM     19  O   UNL     1      33.014  24.419  25.346  0.00  0.00    +0.000 OA
ATOM     20  C   UNL     1      34.170  24.325  24.567  0.00  0.00    +0.000 C 
ENDBRANCH   8  19
TORSDOF 3
ENDMDL
MODEL 5
REMARK VINA RESULT:      -6.3     21.012     22.374
REMARK  Name = 
REMARK  3 active torsions:
REMARK  status: ('A' for Active; 'I' for Inactive)
REMARK    1  A    between atoms: C_2  and  N_3
REMARK    2  A    between atoms: C_6  and  C_7
REMARK    3  A    between atoms: C_14  and  O_15
REMARK                            x       y       z     vdW  Elec       q    Type
REMARK                         _______ _______ _______ _____ _____    ______ ____
ROOT
ATOM      1  C   UNL     1      19.531  -7.605  26.395  0.00  0.00    +0.000 A 
ATOM      2  C   UNL     1      19.361  -6.257  26.160  0.00  0.00    +0.000 A 
ATOM      3  C   UNL     1      18.183  -5.453  26.603  0.00  0.00    +0.000 C 
ATOM      4  N   UNL     1      20.420  -5.791  25.475  0.00  0.00    +0.000 NA
ATOM      5  C   UNL     1      21.284  -6.792  25.249  0.00  0.00    +0.000 A 
ATOM      6  C   UNL     1      22.497  -6.841  24.605  0.00  0.00    +0.000 A 
ATOM      7  C   UNL     1      23.195  -8.044  24.518  0.00  0.00    +0.000 A 
ATOM      8  C   UNL     1      22.669  -9.182  25.079  0.00  0.00    +0.000 A 
ATOM      9  C   UNL     1      21.458  -9.102  25.715  0.00  0.00    +0.000 A 
ATOM     10  C   UNL     1      20.742  -7.922  25.816  0.00  0.00    +0.000 A 
ENDROOT
BRANCH   1  14
ATOM     11  N   UNL     1      17.728  -9.823  30.406  0.00  0.00    +0.000 NA
ATOM     12  C   UNL     1      17.831  -9.509  28.999  0.00  0.00    +0.000 A 
ATOM     13  N   UNL     1      18.671  -8.679  28.401  0.00  0.00    +0.000 NA
ATOM     14  C   UNL     1      18.611  -8.526  27.116  0.00  0.00    +0.000 A 
ATOM     15  C   UNL     1      17.661  -9.249  26.437  0.00  0.00    +0.000 A 
ATOM     16  S   UNL     1      16.905 -10.113  27.705  0.00  0.00    +0.000 S 
BRANCH  11  18
ATOM     17  C   UNL     1      15.994 -10.330  32.057  0.00  0.00    +0.000 C 
ATOM     18  C   UNL     1      16.698 -10.785  30.782  0.00  0.00    +0.000 C 
ENDBRANCH  11  18
ENDBRANCH   1  14
BRANCH   8  19
ATOM     19  O   UNL     1      23.386 -10.382  24.981  0.00  0.00    +0.000 OA
ATOM     20  C   UNL     1      24.667 -10.546  25.514  0.00  0.00    +0.000 C 
ENDBRANCH   8  19
TORSDOF 3
ENDMDL
MODEL 6
REMARK VINA RESULT:      -6.1      3.864      6.488
REMARK  Name = 
REMARK  3 active torsions:
REMARK  status: ('A' for Active; 'I' for Inactive)
REMARK    1  A    between atoms: C_2  and  N_3
REMARK    2  A    between atoms: C_6  and  C_7
REMARK    3  A    between atoms: C_14  and  O_15
REMARK                            x       y       z     vdW  Elec       q    Type
REMARK                         _______ _______ _______ _____ _____    ______ ____
ROOT
ATOM      1  C   UNL     1      17.908  10.328  39.099  0.00  0.00    +0.000 A 
ATOM      2  C   UNL     1      17.588   9.595  40.223  0.00  0.00    +0.000 A 
ATOM      3  C   UNL     1      18.578   8.972  41.150  0.00  0.00    +0.000 C 
ATOM      4  N   UNL     1      16.250   9.536  40.344  0.00  0.00    +0.000 NA
ATOM      5  C   UNL     1      15.677  10.208  39.333  0.00  0.00    +0.000 A 
ATOM      6  C   UNL     1      14.364  10.443  39.004  0.00  0.00    +0.000 A 
ATOM      7  C   UNL     1      14.050  11.192  37.871  0.00  0.00    +0.000 A 
ATOM      8  C   UNL     1      15.056  11.695  37.083  0.00  0.00    +0.000 A 
ATOM      9  C   UNL     1      16.356  11.443  37.437  0.00  0.00    +0.000 A 
ATOM     10  C   UNL     1      16.697  10.703  38.556  0.00  0.00    +0.000 A 
ENDROOT
BRANCH   1  14
ATOM     11  N   UNL     1      21.868   9.559  36.273  0.00  0.00    +0.000 NA
ATOM     12  C   UNL     1      21.052  10.238  37.254  0.00  0.00    +0.000 A 
ATOM     13  N   UNL     1      19.844   9.911  37.687  0.00  0.00    +0.000 NA
ATOM     14  C   UNL     1      19.265  10.650  38.580  0.00  0.00    +0.000 A 
ATOM     15  C   UNL     1      19.953  11.748  39.035  0.00  0.00    +0.000 A 
ATOM     16  S   UNL     1      21.406  11.648  38.138  0.00  0.00    +0.000 S 
BRANCH  11  18
ATOM     17  C   UNL     1      24.259   9.429  36.782  0.00  0.00    +0.000 C 
ATOM     18  C   UNL     1      23.171  10.151  35.992  0.00  0.00    +0.000 C 
ENDBRANCH  11  18
ENDBRANCH   1  14
BRANCH   8  19
ATOM     19  O   UNL     1      14.721  12.444  35.948  0.00  0.00    +0.000 OA
ATOM     20  C   UNL     1      15.110  12.079  34.656  0.00  0.00    +0.000 C 
ENDBRANCH   8  19
TORSDOF 3
ENDMDL
MODEL 7
REMARK VINA RESULT:      -6.0     21.801     23.315
REMARK  Name = 
REMARK  3 active torsions:
REMARK  status: ('A' for Active; 'I' for Inactive)
REMARK    1  A    between atoms: C_2  and  N_3
REMARK    2  A    between atoms: C_6  and  C_7
REMARK    3  A    between atoms: C_14  and  O_15
REMARK                            x       y       z     vdW  Elec       q    Type
REMARK                         _______ _______ _______ _____ _____    ______ ____
ROOT
ATOM      1  C   UNL     1      21.243  -7.856  25.382  0.00  0.00    +0.000 A 
ATOM      2  C   UNL     1      21.584  -6.630  24.850  0.00  0.00    +0.000 A 
ATOM      3  C   UNL     1      22.788  -6.367  24.009  0.00  0.00    +0.000 C 
ATOM      4  N   UNL     1      20.660  -5.721  25.210  0.00  0.00    +0.000 NA
ATOM      5  C   UNL     1      19.720  -6.310  25.964  0.00  0.00    +0.000 A 
ATOM      6  C   UNL     1      18.584  -5.831  26.571  0.00  0.00    +0.000 A 
ATOM      7  C   UNL     1      17.771  -6.687  27.312  0.00  0.00    +0.000 A 
ATOM      8  C   UNL     1      18.108  -8.013  27.435  0.00  0.00    +0.000 A 
ATOM      9  C   UNL     1      19.247  -8.462  26.818  0.00  0.00    +0.000 A 
ATOM     10  C   UNL     1      20.072  -7.634  26.077  0.00  0.00    +0.000 A 
ENDROOT
BRANCH   1  14
ATOM     11  N   UNL     1      24.556 -11.240  26.734  0.00  0.00    +0.000 NA
ATOM     12  C   UNL     1      23.515 -10.657  25.918  0.00  0.00    +0.000 A 
ATOM     13  N   UNL     1      22.891  -9.501  26.085  0.00  0.00    +0.000 NA
ATOM     14  C   UNL     1      21.975  -9.144  25.241  0.00  0.00    +0.000 A 
ATOM     15  C   UNL     1      21.702 -10.001  24.204  0.00  0.00    +0.000 A 
ATOM     16  S   UNL     1      22.792 -11.283  24.511  0.00  0.00    +0.000 S 
BRANCH  11  18
ATOM     17  C   UNL     1      26.503 -12.405  25.815  0.00  0.00    +0.000 C 
ATOM     18  C   UNL     1      25.065 -12.539  26.306  0.00  0.00    +0.000 C 
ENDBRANCH  11  18
ENDBRANCH   1  14
BRANCH   8  19
ATOM     19  O   UNL     1      17.279  -8.858  28.184  0.00  0.00    +0.000 OA
ATOM     20  C   UNL     1      16.827 -10.092  27.710  0.00  0.00    +0.000 C 
ENDBRANCH   8  19
TORSDOF 3
ENDMDL
MODEL 8
REMARK VINA RESULT:      -6.0     18.039     20.348
REMARK  Name = 
REMARK  3 active torsions:
REMARK  status: ('A' for Active; 'I' for Inactive)
REMARK    1  A    between atoms: C_2  and  N_3
REMARK    2  A    between atoms: C_6  and  C_7
REMARK    3  A    between atoms: C_14  and  O_15
REMARK                            x       y       z     vdW  Elec       q    Type
REMARK                         _______ _______ _______ _____ _____    ______ ____
ROOT
ATOM      1  C   UNL     1      28.119  23.489  27.080  0.00  0.00    +0.000 A 
ATOM      2  C   UNL     1      26.968  23.535  27.838  0.00  0.00    +0.000 A 
ATOM      3  C   UNL     1      26.927  23.596  29.329  0.00  0.00    +0.000 C 
ATOM      4  N   UNL     1      25.900  23.517  27.021  0.00  0.00    +0.000 NA
ATOM      5  C   UNL     1      26.312  23.459  25.745  0.00  0.00    +0.000 A 
ATOM      6  C   UNL     1      25.631  23.421  24.553  0.00  0.00    +0.000 A 
ATOM      7  C   UNL     1      26.330  23.363  23.349  0.00  0.00    +0.000 A 
ATOM      8  C   UNL     1      27.703  23.345  23.356  0.00  0.00    +0.000 A 
ATOM      9  C   UNL     1      28.355  23.385  24.561  0.00  0.00    +0.000 A 
ATOM     10  C   UNL     1      27.687  23.442  25.771  0.00  0.00    +0.000 A 
ENDROOT
BRANCH   1  14
ATOM     11  N   UNL     1      32.151  21.399  28.986  0.00  0.00    +0.000 NA
ATOM     12  C   UNL     1      31.344  22.467  28.442  0.00  0.00    +0.000 A 
ATOM     13  N   UNL     1      30.088  22.417  28.024  0.00  0.00    +0.000 NA
ATOM     14  C   UNL     1      29.527  23.490  27.563  0.00  0.00    +0.000 A 
ATOM     15  C   UNL     1      30.282  24.636  27.535  0.00  0.00    +0.000 A 
ATOM     16  S   UNL     1      31.769  24.093  28.182  0.00  0.00    +0.000 S 
BRANCH  11  18
ATOM     17  C   UNL     1      33.739  21.452  30.848  0.00  0.00    +0.000 C 
ATOM     18  C   UNL     1      33.515  21.746  29.368  0.00  0.00    +0.000 C 
ENDBRANCH  11  18
ENDBRANCH   1  14
BRANCH   8  19
ATOM     19  O   UNL     1      28.389  23.286  22.135  0.00  0.00    +0.000 OA
ATOM     20  C   UNL     1      29.044  24.388  21.579  0.00  0.00    +0.000 C 
ENDBRANCH   8  19
TORSDOF 3
ENDMDL
MODEL 9
REMARK VINA RESULT:      -5.9     20.430     23.518
REMARK  Name = 
REMARK  3 active torsions:
REMARK  status: ('A' for Active; 'I' for Inactive)
REMARK    1  A    between atoms: C_2  and  N_3
REMARK    2  A    between atoms: C_6  and  C_7
REMARK    3  A    between atoms: C_14  and  O_15
REMARK                            x       y       z     vdW  Elec       q    Type
REMARK                         _______ _______ _______ _____ _____    ______ ____
ROOT
ATOM      1  C   UNL     1      34.179  -4.537  33.950  0.00  0.00    +0.000 A 
ATOM      2  C   UNL     1      34.745  -5.387  34.876  0.00  0.00    +0.000 A 
ATOM      3  C   UNL     1      34.897  -5.089  36.331  0.00  0.00    +0.000 C 
ATOM      4  N   UNL     1      35.131  -6.518  34.259  0.00  0.00    +0.000 NA
ATOM      5  C   UNL     1      34.838  -6.439  32.952  0.00  0.00    +0.000 A 
ATOM      6  C   UNL     1      35.024  -7.311  31.907  0.00  0.00    +0.000 A 
ATOM      7  C   UNL     1      34.613  -6.961  30.622  0.00  0.00    +0.000 A 
ATOM      8  C   UNL     1      34.021  -5.741  30.402  0.00  0.00    +0.000 A 
ATOM      9  C   UNL     1      33.849  -4.893  31.464  0.00  0.00    +0.000 A 
ATOM     10  C   UNL     1      34.247  -5.214  32.750  0.00  0.00    +0.000 A 
ENDROOT
BRANCH   1  14
ATOM     11  N   UNL     1      33.920   0.335  33.271  0.00  0.00    +0.000 NA
ATOM     12  C   UNL     1      33.551  -0.947  33.828  0.00  0.00    +0.000 A 
ATOM     13  N   UNL     1      34.086  -2.134  33.586  0.00  0.00    +0.000 NA
ATOM     14  C   UNL     1      33.615  -3.180  34.186  0.00  0.00    +0.000 A 
ATOM     15  C   UNL     1      32.569  -2.993  35.056  0.00  0.00    +0.000 A 
ATOM     16  S   UNL     1      32.326  -1.303  34.953  0.00  0.00    +0.000 S 
BRANCH  11  18
ATOM     17  C   UNL     1      33.690   2.765  33.093  0.00  0.00    +0.000 C 
ATOM     18  C   UNL     1      33.149   1.486  33.725  0.00  0.00    +0.000 C 
ENDBRANCH  11  18
ENDBRANCH   1  14
BRANCH   8  19
ATOM     19  O   UNL     1      33.615  -5.407  29.103  0.00  0.00    +0.000 OA
ATOM     20  C   UNL     1      33.534  -6.344  28.069  0.00  0.00    +0.000 C 
ENDBRANCH   8  19
TORSDOF 3
ENDMDL
MODEL 10
REMARK VINA RESULT:      -5.9     18.929     20.712
REMARK  Name = 
REMARK  3 active torsions:
REMARK  status: ('A' for Active; 'I' for Inactive)
REMARK    1  A    between atoms: C_2  and  N_3
REMARK    2  A    between atoms: C_6  and  C_7
REMARK    3  A    between atoms: C_14  and  O_15
REMARK                            x       y       z     vdW  Elec       q    Type
REMARK                         _______ _______ _______ _____ _____    ______ ____
ROOT
ATOM      1  C   UNL     1      33.754   0.682  35.391  0.00  0.00    +0.000 A 
ATOM      2  C   UNL     1      33.486   0.074  34.183  0.00  0.00    +0.000 A 
ATOM      3  C   UNL     1      33.392  -1.400  33.968  0.00  0.00    +0.000 C 
ATOM      4  N   UNL     1      33.322   1.020  33.240  0.00  0.00    +0.000 NA
ATOM      5  C   UNL     1      33.475   2.234  33.791  0.00  0.00    +0.000 A 
ATOM      6  C   UNL     1      33.409   3.503  33.269  0.00  0.00    +0.000 A 
ATOM      7  C   UNL     1      33.615   4.610  34.090  0.00  0.00    +0.000 A 
ATOM      8  C   UNL     1      33.884   4.430  35.425  0.00  0.00    +0.000 A 
ATOM      9  C   UNL     1      33.943   3.152  35.917  0.00  0.00    +0.000 A 
ATOM     10  C   UNL     1      33.744   2.035  35.125  0.00  0.00    +0.000 A 
ENDROOT
BRANCH   1  14
ATOM     11  N   UNL     1      32.543  -0.671  39.969  0.00  0.00    +0.000 NA
ATOM     12  C   UNL     1      33.383  -0.565  38.798  0.00  0.00    +0.000 A 
ATOM     13  N   UNL     1      33.116   0.034  37.647  0.00  0.00    +0.000 NA
ATOM     14  C   UNL     1      34.003   0.025  36.703  0.00  0.00    +0.000 A 
ATOM     15  C   UNL     1      35.190  -0.616  36.957  0.00  0.00    +0.000 A 
ATOM     16  S   UNL     1      34.954  -1.173  38.557  0.00  0.00    +0.000 S 
BRANCH  11  18
ATOM     17  C   UNL     1      32.529  -2.808  41.164  0.00  0.00    +0.000 C 
ATOM     18  C   UNL     1      33.103  -1.396  41.105  0.00  0.00    +0.000 C 
ENDBRANCH  11  18
ENDBRANCH   1  14
BRANCH   8  19
ATOM     19  O   UNL     1      34.089   5.554  36.235  0.00  0.00    +0.000 OA
ATOM     20  C   UNL     1      34.284   6.837  35.716  0.00  0.00    +0.000 C 
ENDBRANCH   8  19
TORSDOF 3
ENDMDL
