MODEL 1
REMARK VINA RESULT:      -7.3      0.000      0.000
REMARK  Name = 
REMARK  0 active torsions:
REMARK  status: ('A' for Active; 'I' for Inactive)
REMARK                            x       y       z     vdW  Elec       q    Type
REMARK                         _______ _______ _______ _____ _____    ______ ____
ROOT
ATOM      1  C   UNL     1      36.037   5.064  35.585  0.00  0.00    +0.000 C 
ATOM      2  C   UNL     1      34.781   5.714  35.656  0.00  0.00    +0.000 C 
ATOM      3  C   UNL     1      33.827   5.828  34.610  0.00  0.00    +0.000 C 
ATOM      4  C   UNL     1      33.548   4.402  34.181  0.00  0.00    +0.000 C 
ATOM      5  C   UNL     1      33.755   3.409  35.281  0.00  0.00    +0.000 C 
ATOM      6  C   UNL     1      33.930   3.690  36.529  0.00  0.00    +0.000 C 
ATOM      7  C   UNL     1      34.125   2.699  37.549  0.00  0.00    +0.000 C 
ATOM      8  C   UNL     1      34.131   1.279  37.172  0.00  0.00    +0.000 C 
ATOM      9  C   UNL     1      33.930   0.976  35.751  0.00  0.00    +0.000 A 
ATOM     10  C   UNL     1      33.915  -0.337  35.284  0.00  0.00    +0.000 A 
ATOM     11  C   UNL     1      33.727  -0.599  33.956  0.00  0.00    +0.000 A 
ATOM     12  O   UNL     1      33.713  -1.929  33.485  0.00  0.00    +0.000 OA
ATOM     13  C   UNL     1      33.546   0.414  33.040  0.00  0.00    +0.000 A 
ATOM     14  C   UNL     1      33.555   1.722  33.476  0.00  0.00    +0.000 A 
ATOM     15  C   UNL     1      33.750   1.985  34.840  0.00  0.00    +0.000 A 
ATOM     16  C   UNL     1      33.937   5.180  36.995  0.00  0.00    +0.000 C 
ATOM     17  C   UNL     1      35.338   5.114  37.846  0.00  0.00    +0.000 C 
ATOM     18  C   UNL     1      35.944   6.419  37.618  0.00  0.00    +0.000 C 
ATOM     19  C   UNL     1      34.927   7.130  36.500  0.00  0.00    +0.000 C 
ATOM     20  O   UNL     1      36.119   7.614  35.635  0.00  0.00    +0.000 OA
ENDROOT
TORSDOF 0
ENDMDL
MODEL 2
REMARK VINA RESULT:      -7.3     21.694     23.355
REMARK  Name = 
REMARK  0 active torsions:
REMARK  status: ('A' for Active; 'I' for Inactive)
REMARK                            x       y       z     vdW  Elec       q    Type
REMARK                         _______ _______ _______ _____ _____    ______ ____
ROOT
ATOM      1  C   UNL     1      27.890  24.930  28.666  0.00  0.00    +0.000 C 
ATOM      2  C   UNL     1      26.905  23.918  28.762  0.00  0.00    +0.000 C 
ATOM      3  C   UNL     1      25.708  23.826  28.002  0.00  0.00    +0.000 C 
ATOM      4  C   UNL     1      26.161  23.848  26.557  0.00  0.00    +0.000 C 
ATOM      5  C   UNL     1      27.542  23.305  26.368  0.00  0.00    +0.000 C 
ATOM      6  C   UNL     1      28.232  22.669  27.256  0.00  0.00    +0.000 C 
ATOM      7  C   UNL     1      29.556  22.165  27.027  0.00  0.00    +0.000 C 
ATOM      8  C   UNL     1      30.182  22.378  25.715  0.00  0.00    +0.000 C 
ATOM      9  C   UNL     1      29.387  23.102  24.717  0.00  0.00    +0.000 A 
ATOM     10  C   UNL     1      29.883  23.356  23.440  0.00  0.00    +0.000 A 
ATOM     11  C   UNL     1      29.127  24.033  22.524  0.00  0.00    +0.000 A 
ATOM     12  O   UNL     1      29.631  24.290  21.232  0.00  0.00    +0.000 OA
ATOM     13  C   UNL     1      27.860  24.482  22.826  0.00  0.00    +0.000 A 
ATOM     14  C   UNL     1      27.346  24.242  24.083  0.00  0.00    +0.000 A 
ATOM     15  C   UNL     1      28.126  23.548  25.019  0.00  0.00    +0.000 A 
ATOM     16  C   UNL     1      27.624  22.413  28.672  0.00  0.00    +0.000 C 
ATOM     17  C   UNL     1      28.899  22.974  29.538  0.00  0.00    +0.000 C 
ATOM     18  C   UNL     1      28.280  23.615  30.690  0.00  0.00    +0.000 C 
ATOM     19  C   UNL     1      26.646  23.532  30.349  0.00  0.00    +0.000 C 
ATOM     20  O   UNL     1      26.425  25.012  30.754  0.00  0.00    +0.000 OA
ENDROOT
TORSDOF 0
ENDMDL
MODEL 3
REMARK VINA RESULT:      -7.3     21.004     22.758
REMARK  Name = 
REMARK  0 active torsions:
REMARK  status: ('A' for Active; 'I' for Inactive)
REMARK                            x       y       z     vdW  Elec       q    Type
REMARK                         _______ _______ _______ _____ _____    ______ ____
ROOT
ATOM      1  C   UNL     1      29.687  24.501  28.371  0.00  0.00    +0.000 C 
ATOM      2  C   UNL     1      29.609  23.169  28.846  0.00  0.00    +0.000 C 
ATOM      3  C   UNL     1      28.428  22.401  29.021  0.00  0.00    +0.000 C 
ATOM      4  C   UNL     1      27.751  22.412  27.666  0.00  0.00    +0.000 C 
ATOM      5  C   UNL     1      28.714  22.574  26.533  0.00  0.00    +0.000 C 
ATOM      6  C   UNL     1      30.000  22.491  26.617  0.00  0.00    +0.000 C 
ATOM      7  C   UNL     1      30.885  22.653  25.498  0.00  0.00    +0.000 C 
ATOM      8  C   UNL     1      30.314  22.933  24.173  0.00  0.00    +0.000 C 
ATOM      9  C   UNL     1      28.852  23.023  24.093  0.00  0.00    +0.000 A 
ATOM     10  C   UNL     1      28.206  23.282  22.886  0.00  0.00    +0.000 A 
ATOM     11  C   UNL     1      26.843  23.364  22.832  0.00  0.00    +0.000 A 
ATOM     12  O   UNL     1      26.190  23.626  21.610  0.00  0.00    +0.000 OA
ATOM     13  C   UNL     1      26.066  23.193  23.957  0.00  0.00    +0.000 A 
ATOM     14  C   UNL     1      26.680  22.935  25.164  0.00  0.00    +0.000 A 
ATOM     15  C   UNL     1      28.080  22.854  25.214  0.00  0.00    +0.000 A 
ATOM     16  C   UNL     1      30.670  22.198  27.997  0.00  0.00    +0.000 C 
ATOM     17  C   UNL     1      31.755  23.427  27.954  0.00  0.00    +0.000 C 
ATOM     18  C   UNL     1      31.839  23.864  29.341  0.00  0.00    +0.000 C 
ATOM     19  C   UNL     1      30.661  22.958  30.105  0.00  0.00    +0.000 C 
ATOM     20  O   UNL     1      30.120  24.195  30.868  0.00  0.00    +0.000 OA
ENDROOT
TORSDOF 0
ENDMDL
MODEL 4
REMARK VINA RESULT:      -7.2     19.370     20.728
REMARK  Name = 
REMARK  0 active torsions:
REMARK  status: ('A' for Active; 'I' for Inactive)
REMARK                            x       y       z     vdW  Elec       q    Type
REMARK                         _______ _______ _______ _____ _____    ______ ____
ROOT
ATOM      1  C   UNL     1      22.208  -8.813  22.696  0.00  0.00    +0.000 C 
ATOM      2  C   UNL     1      23.384  -8.371  23.349  0.00  0.00    +0.000 C 
ATOM      3  C   UNL     1      23.729  -7.027  23.651  0.00  0.00    +0.000 C 
ATOM      4  C   UNL     1      22.564  -6.498  24.462  0.00  0.00    +0.000 C 
ATOM      5  C   UNL     1      21.843  -7.569  25.217  0.00  0.00    +0.000 C 
ATOM      6  C   UNL     1      22.251  -8.783  25.382  0.00  0.00    +0.000 C 
ATOM      7  C   UNL     1      21.521  -9.777  26.117  0.00  0.00    +0.000 C 
ATOM      8  C   UNL     1      20.233  -9.412  26.722  0.00  0.00    +0.000 C 
ATOM      9  C   UNL     1      19.783  -8.030  26.528  0.00  0.00    +0.000 A 
ATOM     10  C   UNL     1      18.578  -7.577  27.061  0.00  0.00    +0.000 A 
ATOM     11  C   UNL     1      18.175  -6.286  26.868  0.00  0.00    +0.000 A 
ATOM     12  O   UNL     1      16.955  -5.830  27.408  0.00  0.00    +0.000 OA
ATOM     13  C   UNL     1      18.939  -5.393  26.148  0.00  0.00    +0.000 A 
ATOM     14  C   UNL     1      20.136  -5.815  25.610  0.00  0.00    +0.000 A 
ATOM     15  C   UNL     1      20.544  -7.143  25.811  0.00  0.00    +0.000 A 
ATOM     16  C   UNL     1      23.610  -9.234  24.760  0.00  0.00    +0.000 C 
ATOM     17  C   UNL     1      23.050 -10.586  24.019  0.00  0.00    +0.000 C 
ATOM     18  C   UNL     1      23.820 -10.649  22.784  0.00  0.00    +0.000 C 
ATOM     19  C   UNL     1      24.690  -9.222  22.796  0.00  0.00    +0.000 C 
ATOM     20  O   UNL     1      24.349  -8.933  21.311  0.00  0.00    +0.000 OA
ENDROOT
TORSDOF 0
ENDMDL
MODEL 5
REMARK VINA RESULT:      -7.0     22.146     24.421
REMARK  Name = 
REMARK  0 active torsions:
REMARK  status: ('A' for Active; 'I' for Inactive)
REMARK                            x       y       z     vdW  Elec       q    Type
REMARK                         _______ _______ _______ _____ _____    ______ ____
ROOT
ATOM      1  C   UNL     1      28.834  25.194  24.169  0.00  0.00    +0.000 C 
ATOM      2  C   UNL     1      28.662  23.898  23.626  0.00  0.00    +0.000 C 
ATOM      3  C   UNL     1      29.207  22.688  24.132  0.00  0.00    +0.000 C 
ATOM      4  C   UNL     1      28.731  22.618  25.569  0.00  0.00    +0.000 C 
ATOM      5  C   UNL     1      27.438  23.336  25.792  0.00  0.00    +0.000 C 
ATOM      6  C   UNL     1      26.655  23.788  24.870  0.00  0.00    +0.000 C 
ATOM      7  C   UNL     1      25.421  24.472  25.135  0.00  0.00    +0.000 C 
ATOM      8  C   UNL     1      25.009  24.682  26.529  0.00  0.00    +0.000 C 
ATOM      9  C   UNL     1      25.907  24.162  27.566  0.00  0.00    +0.000 A 
ATOM     10  C   UNL     1      25.611  24.304  28.920  0.00  0.00    +0.000 A 
ATOM     11  C   UNL     1      26.461  23.813  29.872  0.00  0.00    +0.000 A 
ATOM     12  O   UNL     1      26.160  23.959  31.242  0.00  0.00    +0.000 OA
ATOM     13  C   UNL     1      27.629  23.166  29.529  0.00  0.00    +0.000 A 
ATOM     14  C   UNL     1      27.944  23.012  28.197  0.00  0.00    +0.000 A 
ATOM     15  C   UNL     1      27.068  23.519  27.224  0.00  0.00    +0.000 A 
ATOM     16  C   UNL     1      27.038  23.600  23.368  0.00  0.00    +0.000 C 
ATOM     17  C   UNL     1      26.828  25.162  22.913  0.00  0.00    +0.000 C 
ATOM     18  C   UNL     1      27.877  25.381  21.927  0.00  0.00    +0.000 C 
ATOM     19  C   UNL     1      28.757  23.961  21.975  0.00  0.00    +0.000 C 
ATOM     20  O   UNL     1      30.105  24.728  22.005  0.00  0.00    +0.000 OA
ENDROOT
TORSDOF 0
ENDMDL
MODEL 6
REMARK VINA RESULT:      -7.0      1.561      6.542
REMARK  Name = 
REMARK  0 active torsions:
REMARK  status: ('A' for Active; 'I' for Inactive)
REMARK                            x       y       z     vdW  Elec       q    Type
REMARK                         _______ _______ _______ _____ _____    ______ ____
ROOT
ATOM      1  C   UNL     1      35.248  -1.137  35.602  0.00  0.00    +0.000 C 
ATOM      2  C   UNL     1      33.963  -1.388  36.142  0.00  0.00    +0.000 C 
ATOM      3  C   UNL     1      33.449  -0.891  37.369  0.00  0.00    +0.000 C 
ATOM      4  C   UNL     1      33.585   0.615  37.266  0.00  0.00    +0.000 C 
ATOM      5  C   UNL     1      33.540   1.112  35.856  0.00  0.00    +0.000 C 
ATOM      6  C   UNL     1      33.201   0.418  34.821  0.00  0.00    +0.000 C 
ATOM      7  C   UNL     1      33.173   0.941  33.485  0.00  0.00    +0.000 C 
ATOM      8  C   UNL     1      33.550   2.343  33.261  0.00  0.00    +0.000 C 
ATOM      9  C   UNL     1      33.932   3.119  34.445  0.00  0.00    +0.000 A 
ATOM     10  C   UNL     1      34.305   4.457  34.347  0.00  0.00    +0.000 A 
ATOM     11  C   UNL     1      34.658   5.163  35.463  0.00  0.00    +0.000 A 
ATOM     12  O   UNL     1      35.036   6.518  35.362  0.00  0.00    +0.000 OA
ATOM     13  C   UNL     1      34.657   4.583  36.713  0.00  0.00    +0.000 A 
ATOM     14  C   UNL     1      34.291   3.260  36.838  0.00  0.00    +0.000 A 
ATOM     15  C   UNL     1      33.930   2.540  35.689  0.00  0.00    +0.000 A 
ATOM     16  C   UNL     1      32.792  -1.080  34.991  0.00  0.00    +0.000 C 
ATOM     17  C   UNL     1      33.778  -1.687  33.830  0.00  0.00    +0.000 C 
ATOM     18  C   UNL     1      34.201  -2.972  34.371  0.00  0.00    +0.000 C 
ATOM     19  C   UNL     1      33.556  -2.975  35.912  0.00  0.00    +0.000 C 
ATOM     20  O   UNL     1      34.883  -3.486  36.531  0.00  0.00    +0.000 OA
ENDROOT
TORSDOF 0
ENDMDL
MODEL 7
REMARK VINA RESULT:      -6.9     18.962     21.711
REMARK  Name = 
REMARK  0 active torsions:
REMARK  status: ('A' for Active; 'I' for Inactive)
REMARK                            x       y       z     vdW  Elec       q    Type
REMARK                         _______ _______ _______ _____ _____    ______ ____
ROOT
ATOM      1  C   UNL     1      17.589  -9.422  25.104  0.00  0.00    +0.000 C 
ATOM      2  C   UNL     1      17.698  -9.674  26.493  0.00  0.00    +0.000 C 
ATOM      3  C   UNL     1      18.633 -10.535  27.126  0.00  0.00    +0.000 C 
ATOM      4  C   UNL     1      19.990 -10.038  26.673  0.00  0.00    +0.000 C 
ATOM      5  C   UNL     1      19.998  -8.580  26.340  0.00  0.00    +0.000 C 
ATOM      6  C   UNL     1      19.053  -7.740  26.602  0.00  0.00    +0.000 C 
ATOM      7  C   UNL     1      19.107  -6.346  26.262  0.00  0.00    +0.000 C 
ATOM      8  C   UNL     1      20.296  -5.827  25.573  0.00  0.00    +0.000 C 
ATOM      9  C   UNL     1      21.362  -6.792  25.282  0.00  0.00    +0.000 A 
ATOM     10  C   UNL     1      22.534  -6.407  24.636  0.00  0.00    +0.000 A 
ATOM     11  C   UNL     1      23.515  -7.321  24.373  0.00  0.00    +0.000 A 
ATOM     12  O   UNL     1      24.701  -6.929  23.718  0.00  0.00    +0.000 OA
ATOM     13  C   UNL     1      23.383  -8.644  24.737  0.00  0.00    +0.000 A 
ATOM     14  C   UNL     1      22.233  -9.051  25.379  0.00  0.00    +0.000 A 
ATOM     15  C   UNL     1      21.229  -8.108  25.644  0.00  0.00    +0.000 A 
ATOM     16  C   UNL     1      17.760  -8.229  27.329  0.00  0.00    +0.000 C 
ATOM     17  C   UNL     1      16.683  -7.578  26.278  0.00  0.00    +0.000 C 
ATOM     18  C   UNL     1      15.604  -8.556  26.237  0.00  0.00    +0.000 C 
ATOM     19  C   UNL     1      16.191  -9.820  27.158  0.00  0.00    +0.000 C 
ATOM     20  O   UNL     1      15.744 -10.871  26.109  0.00  0.00    +0.000 OA
ENDROOT
TORSDOF 0
ENDMDL
MODEL 8
REMARK VINA RESULT:      -6.8     20.275     22.920
REMARK  Name = 
REMARK  0 active torsions:
REMARK  status: ('A' for Active; 'I' for Inactive)
REMARK                            x       y       z     vdW  Elec       q    Type
REMARK                         _______ _______ _______ _____ _____    ______ ____
ROOT
ATOM      1  C   UNL     1      28.710  25.013  25.026  0.00  0.00    +0.000 C 
ATOM      2  C   UNL     1      28.438  23.791  24.366  0.00  0.00    +0.000 C 
ATOM      3  C   UNL     1      29.381  22.786  24.022  0.00  0.00    +0.000 C 
ATOM      4  C   UNL     1      30.062  22.427  25.327  0.00  0.00    +0.000 C 
ATOM      5  C   UNL     1      29.192  22.654  26.522  0.00  0.00    +0.000 C 
ATOM      6  C   UNL     1      27.926  22.908  26.498  0.00  0.00    +0.000 C 
ATOM      7  C   UNL     1      27.133  23.117  27.676  0.00  0.00    +0.000 C 
ATOM      8  C   UNL     1      27.780  23.046  28.993  0.00  0.00    +0.000 C 
ATOM      9  C   UNL     1      29.217  22.757  29.004  0.00  0.00    +0.000 A 
ATOM     10  C   UNL     1      29.930  22.664  30.198  0.00  0.00    +0.000 A 
ATOM     11  C   UNL     1      31.269  22.394  30.188  0.00  0.00    +0.000 A 
ATOM     12  O   UNL     1      31.989  22.301  31.397  0.00  0.00    +0.000 OA
ATOM     13  C   UNL     1      31.957  22.204  29.009  0.00  0.00    +0.000 A 
ATOM     14  C   UNL     1      31.276  22.289  27.814  0.00  0.00    +0.000 A 
ATOM     15  C   UNL     1      29.901  22.568  27.830  0.00  0.00    +0.000 A 
ATOM     16  C   UNL     1      27.180  23.000  25.130  0.00  0.00    +0.000 C 
ATOM     17  C   UNL     1      26.445  24.440  25.402  0.00  0.00    +0.000 C 
ATOM     18  C   UNL     1      26.450  25.085  24.096  0.00  0.00    +0.000 C 
ATOM     19  C   UNL     1      27.344  24.038  23.150  0.00  0.00    +0.000 C 
ATOM     20  O   UNL     1      28.169  25.200  22.538  0.00  0.00    +0.000 OA
ENDROOT
TORSDOF 0
ENDMDL
MODEL 9
REMARK VINA RESULT:      -6.8     21.670     23.328
REMARK  Name = 
REMARK  0 active torsions:
REMARK  status: ('A' for Active; 'I' for Inactive)
REMARK                            x       y       z     vdW  Elec       q    Type
REMARK                         _______ _______ _______ _____ _____    ______ ____
ROOT
ATOM      1  C   UNL     1      30.170  24.636  25.953  0.00  0.00    +0.000 C 
ATOM      2  C   UNL     1      30.372  23.235  25.964  0.00  0.00    +0.000 C 
ATOM      3  C   UNL     1      30.845  22.457  27.053  0.00  0.00    +0.000 C 
ATOM      4  C   UNL     1      29.893  22.761  28.192  0.00  0.00    +0.000 C 
ATOM      5  C   UNL     1      28.527  23.152  27.724  0.00  0.00    +0.000 C 
ATOM      6  C   UNL     1      28.082  23.043  26.516  0.00  0.00    +0.000 C 
ATOM      7  C   UNL     1      26.760  23.432  26.115  0.00  0.00    +0.000 C 
ATOM      8  C   UNL     1      25.847  23.991  27.120  0.00  0.00    +0.000 C 
ATOM      9  C   UNL     1      26.365  24.109  28.487  0.00  0.00    +0.000 A 
ATOM     10  C   UNL     1      25.583  24.623  29.519  0.00  0.00    +0.000 A 
ATOM     11  C   UNL     1      26.084  24.725  30.786  0.00  0.00    +0.000 A 
ATOM     12  O   UNL     1      25.291  25.246  31.829  0.00  0.00    +0.000 OA
ATOM     13  C   UNL     1      27.368  24.325  31.087  0.00  0.00    +0.000 A 
ATOM     14  C   UNL     1      28.163  23.812  30.084  0.00  0.00    +0.000 A 
ATOM     15  C   UNL     1      27.643  23.711  28.785  0.00  0.00    +0.000 A 
ATOM     16  C   UNL     1      29.005  22.459  25.400  0.00  0.00    +0.000 C 
ATOM     17  C   UNL     1      28.778  23.660  24.307  0.00  0.00    +0.000 C 
ATOM     18  C   UNL     1      30.077  23.792  23.661  0.00  0.00    +0.000 C 
ATOM     19  C   UNL     1      31.052  22.753  24.535  0.00  0.00    +0.000 C 
ATOM     20  O   UNL     1      32.188  23.804  24.630  0.00  0.00    +0.000 OA
ENDROOT
TORSDOF 0
ENDMDL
MODEL 10
REMARK VINA RESULT:      -6.5     19.904     21.530
REMARK  Name = 
REMARK  0 active torsions:
REMARK  status: ('A' for Active; 'I' for Inactive)
REMARK                            x       y       z     vdW  Elec       q    Type
REMARK                         _______ _______ _______ _____ _____    ______ ____
ROOT
ATOM      1  C   UNL     1      24.216   3.025  16.115  0.00  0.00    +0.000 C 
ATOM      2  C   UNL     1      24.991   2.446  17.148  0.00  0.00    +0.000 C 
ATOM      3  C   UNL     1      26.246   1.797  17.002  0.00  0.00    +0.000 C 
ATOM      4  C   UNL     1      27.135   2.817  16.318  0.00  0.00    +0.000 C 
ATOM      5  C   UNL     1      26.735   4.228  16.608  0.00  0.00    +0.000 C 
ATOM      6  C   UNL     1      25.886   4.604  17.505  0.00  0.00    +0.000 C 
ATOM      7  C   UNL     1      25.534   5.975  17.746  0.00  0.00    +0.000 C 
ATOM      8  C   UNL     1      26.164   7.025  16.935  0.00  0.00    +0.000 C 
ATOM      9  C   UNL     1      27.127   6.584  15.920  0.00  0.00    +0.000 A 
ATOM     10  C   UNL     1      27.785   7.496  15.098  0.00  0.00    +0.000 A 
ATOM     11  C   UNL     1      28.678   7.064  14.158  0.00  0.00    +0.000 A 
ATOM     12  O   UNL     1      29.342   7.989  13.325  0.00  0.00    +0.000 OA
ATOM     13  C   UNL     1      28.959   5.725  13.992  0.00  0.00    +0.000 A 
ATOM     14  C   UNL     1      28.323   4.802  14.794  0.00  0.00    +0.000 A 
ATOM     15  C   UNL     1      27.406   5.251  15.757  0.00  0.00    +0.000 A 
ATOM     16  C   UNL     1      25.179   3.537  18.399  0.00  0.00    +0.000 C 
ATOM     17  C   UNL     1      23.644   4.065  18.162  0.00  0.00    +0.000 C 
ATOM     18  C   UNL     1      22.855   2.841  18.138  0.00  0.00    +0.000 C 
ATOM     19  C   UNL     1      24.009   1.635  18.203  0.00  0.00    +0.000 C 
ATOM     20  O   UNL     1      23.321   0.833  17.068  0.00  0.00    +0.000 OA
ENDROOT
TORSDOF 0
ENDMDL
