MODEL 1
REMARK VINA RESULT:      -7.1      0.000      0.000
REMARK  Name = 
REMARK  9 active torsions:
REMARK  status: ('A' for Active; 'I' for Inactive)
REMARK    1  A    between atoms: O_2  and  C_3
REMARK    2  A    between atoms: C_6  and  N_7
REMARK    3  A    between atoms: N_7  and  C_8
REMARK    4  A    between atoms: C_8  and  C_9
REMARK    5  A    between atoms: C_12  and  S_13
REMARK    6  A    between atoms: S_13  and  C_14
REMARK    7  A    between atoms: C_14  and  C_15
REMARK    8  A    between atoms: N_21  and  C_22
REMARK    9  A    between atoms: C_25  and  O_26
REMARK                            x       y       z     vdW  Elec       q    Type
REMARK                         _______ _______ _______ _____ _____    ______ ____
ROOT
ATOM      1  C   UNL     1      36.289   2.265  15.573  0.00  0.00    +0.000 A 
ATOM      2  N   UNL     1      35.237   2.781  16.233  0.00  0.00    +0.000 NA
ATOM      3  N   UNL     1      34.561   1.793  16.799  0.00  0.00    +0.000 NA
ATOM      4  C   UNL     1      35.168   0.626  16.510  0.00  0.00    +0.000 A 
ATOM      5  N   UNL     1      36.230   0.937  15.755  0.00  0.00    +0.000 N 
ENDROOT
BRANCH   5   6
ATOM      6  C   UNL     1      37.161   0.003  15.219  0.00  0.00    +0.000 A 
ATOM      7  C   UNL     1      38.375  -0.180  15.800  0.00  0.00    +0.000 A 
ATOM      8  C   UNL     1      39.255  -1.097  15.247  0.00  0.00    +0.000 A 
ATOM      9  C   UNL     1      38.946  -1.830  14.135  0.00  0.00    +0.000 A 
ATOM     10  C   UNL     1      37.711  -1.625  13.568  0.00  0.00    +0.000 A 
ATOM     11  C   UNL     1      36.833  -0.727  14.097  0.00  0.00    +0.000 A 
BRANCH   9  12
ATOM     12  O   UNL     1      39.791  -2.758  13.547  0.00  0.00    +0.000 OA
ATOM     13  C   UNL     1      40.075  -2.779  12.164  0.00  0.00    +0.000 C 
ENDBRANCH   9  12
ENDBRANCH   5   6
BRANCH   1  14
ATOM     14  C   UNL     1      37.318   3.015  14.791  0.00  0.00    +0.000 C 
BRANCH  14  15
ATOM     15  N   UNL     1      37.371   4.404  15.151  0.00  0.00    +0.000 NA
BRANCH  15  19
ATOM     16  C   UNL     1      40.079   5.766  18.143  0.00  0.00    +0.000 A 
ATOM     17  C   UNL     1      40.278   6.071  16.808  0.00  0.00    +0.000 A 
ATOM     18  C   UNL     1      39.386   5.620  15.849  0.00  0.00    +0.000 A 
ATOM     19  C   UNL     1      38.276   4.861  16.149  0.00  0.00    +0.000 A 
ATOM     20  C   UNL     1      38.084   4.560  17.493  0.00  0.00    +0.000 A 
ATOM     21  C   UNL     1      38.970   5.008  18.447  0.00  0.00    +0.000 A 
BRANCH  16  23
ATOM     22  C   UNL     1      40.531   7.162  20.087  0.00  0.00    +0.000 C 
ATOM     23  O   UNL     1      40.951   6.200  19.137  0.00  0.00    +0.000 OA
ENDBRANCH  16  23
ENDBRANCH  15  19
ENDBRANCH  14  15
ENDBRANCH   1  14
BRANCH   4  24
ATOM     24  S   UNL     1      34.644  -1.018  17.041  0.00  0.00    +0.000 S 
BRANCH  24  25
ATOM     25  C   UNL     1      35.768  -1.528  18.367  0.00  0.00    +0.000 C 
BRANCH  25  26
ATOM     26  C   UNL     1      36.676  -2.554  17.836  0.00  0.00    +0.000 A 
ATOM     27  C   UNL     1      37.911  -2.701  18.426  0.00  0.00    +0.000 A 
ATOM     28  C   UNL     1      38.805  -3.632  17.987  0.00  0.00    +0.000 A 
ATOM     29  C   UNL     1      38.479  -4.452  16.930  0.00  0.00    +0.000 A 
ATOM     30  C   UNL     1      37.249  -4.311  16.337  0.00  0.00    +0.000 A 
ATOM     31  C   UNL     1      36.347  -3.375  16.775  0.00  0.00    +0.000 A 
ENDBRANCH  25  26
ENDBRANCH  24  25
ENDBRANCH   4  24
TORSDOF 9
ENDMDL
MODEL 2
REMARK VINA RESULT:      -7.0      1.947      2.880
REMARK  Name = 
REMARK  9 active torsions:
REMARK  status: ('A' for Active; 'I' for Inactive)
REMARK    1  A    between atoms: O_2  and  C_3
REMARK    2  A    between atoms: C_6  and  N_7
REMARK    3  A    between atoms: N_7  and  C_8
REMARK    4  A    between atoms: C_8  and  C_9
REMARK    5  A    between atoms: C_12  and  S_13
REMARK    6  A    between atoms: S_13  and  C_14
REMARK    7  A    between atoms: C_14  and  C_15
REMARK    8  A    between atoms: N_21  and  C_22
REMARK    9  A    between atoms: C_25  and  O_26
REMARK                            x       y       z     vdW  Elec       q    Type
REMARK                         _______ _______ _______ _____ _____    ______ ____
ROOT
ATOM      1  C   UNL     1      35.950   1.618  16.330  0.00  0.00    +0.000 A 
ATOM      2  N   UNL     1      35.014   1.120  17.157  0.00  0.00    +0.000 NA
ATOM      3  N   UNL     1      34.890  -0.179  16.931  0.00  0.00    +0.000 NA
ATOM      4  C   UNL     1      35.746  -0.536  15.954  0.00  0.00    +0.000 A 
ATOM      5  N   UNL     1      36.389   0.583  15.597  0.00  0.00    +0.000 N 
ENDROOT
BRANCH   5   6
ATOM      6  C   UNL     1      37.389   0.671  14.588  0.00  0.00    +0.000 A 
ATOM      7  C   UNL     1      37.055   0.638  13.272  0.00  0.00    +0.000 A 
ATOM      8  C   UNL     1      38.057   0.724  12.319  0.00  0.00    +0.000 A 
ATOM      9  C   UNL     1      39.378   0.842  12.654  0.00  0.00    +0.000 A 
ATOM     10  C   UNL     1      39.688   0.872  13.993  0.00  0.00    +0.000 A 
ATOM     11  C   UNL     1      38.716   0.788  14.944  0.00  0.00    +0.000 A 
BRANCH   9  12
ATOM     12  O   UNL     1      40.415   0.931  11.739  0.00  0.00    +0.000 OA
ATOM     13  C   UNL     1      40.262   1.481  10.447  0.00  0.00    +0.000 C 
ENDBRANCH   9  12
ENDBRANCH   5   6
BRANCH   1  14
ATOM     14  C   UNL     1      36.410   3.036  16.239  0.00  0.00    +0.000 C 
BRANCH  14  15
ATOM     15  N   UNL     1      37.235   3.413  17.352  0.00  0.00    +0.000 NA
BRANCH  15  19
ATOM     16  C   UNL     1      40.490   6.111  16.838  0.00  0.00    +0.000 A 
ATOM     17  C   UNL     1      39.932   5.452  15.756  0.00  0.00    +0.000 A 
ATOM     18  C   UNL     1      38.873   4.579  15.943  0.00  0.00    +0.000 A 
ATOM     19  C   UNL     1      38.322   4.315  17.177  0.00  0.00    +0.000 A 
ATOM     20  C   UNL     1      38.889   4.981  18.257  0.00  0.00    +0.000 A 
ATOM     21  C   UNL     1      39.941   5.850  18.074  0.00  0.00    +0.000 A 
BRANCH  16  23
ATOM     22  C   UNL     1      42.686   6.633  15.921  0.00  0.00    +0.000 C 
ATOM     23  O   UNL     1      41.555   6.996  16.693  0.00  0.00    +0.000 OA
ENDBRANCH  16  23
ENDBRANCH  15  19
ENDBRANCH  14  15
ENDBRANCH   1  14
BRANCH   4  24
ATOM     24  S   UNL     1      35.968  -2.194  15.273  0.00  0.00    +0.000 S 
BRANCH  24  25
ATOM     25  C   UNL     1      37.463  -2.880  16.031  0.00  0.00    +0.000 C 
BRANCH  25  26
ATOM     26  C   UNL     1      38.554  -2.812  15.050  0.00  0.00    +0.000 A 
ATOM     27  C   UNL     1      39.843  -2.683  15.516  0.00  0.00    +0.000 A 
ATOM     28  C   UNL     1      40.906  -2.614  14.664  0.00  0.00    +0.000 A 
ATOM     29  C   UNL     1      40.699  -2.673  13.304  0.00  0.00    +0.000 A 
ATOM     30  C   UNL     1      39.417  -2.802  12.833  0.00  0.00    +0.000 A 
ATOM     31  C   UNL     1      38.345  -2.871  13.686  0.00  0.00    +0.000 A 
ENDBRANCH  25  26
ENDBRANCH  24  25
ENDBRANCH   4  24
TORSDOF 9
ENDMDL
MODEL 3
REMARK VINA RESULT:      -6.8      3.064      9.091
REMARK  Name = 
REMARK  9 active torsions:
REMARK  status: ('A' for Active; 'I' for Inactive)
REMARK    1  A    between atoms: O_2  and  C_3
REMARK    2  A    between atoms: C_6  and  N_7
REMARK    3  A    between atoms: N_7  and  C_8
REMARK    4  A    between atoms: C_8  and  C_9
REMARK    5  A    between atoms: C_12  and  S_13
REMARK    6  A    between atoms: S_13  and  C_14
REMARK    7  A    between atoms: C_14  and  C_15
REMARK    8  A    between atoms: N_21  and  C_22
REMARK    9  A    between atoms: C_25  and  O_26
REMARK                            x       y       z     vdW  Elec       q    Type
REMARK                         _______ _______ _______ _____ _____    ______ ____
ROOT
ATOM      1  C   UNL     1      37.283   4.651  15.360  0.00  0.00    +0.000 A 
ATOM      2  N   UNL     1      36.299   4.964  14.498  0.00  0.00    +0.000 NA
ATOM      3  N   UNL     1      36.230   6.282  14.389  0.00  0.00    +0.000 NA
ATOM      4  C   UNL     1      37.167   6.837  15.180  0.00  0.00    +0.000 A 
ATOM      5  N   UNL     1      37.806   5.817  15.769  0.00  0.00    +0.000 N 
ENDROOT
BRANCH   5   6
ATOM      6  C   UNL     1      38.879   5.944  16.696  0.00  0.00    +0.000 A 
ATOM      7  C   UNL     1      38.677   5.745  18.025  0.00  0.00    +0.000 A 
ATOM      8  C   UNL     1      39.746   5.879  18.896  0.00  0.00    +0.000 A 
ATOM      9  C   UNL     1      41.004   6.205  18.469  0.00  0.00    +0.000 A 
ATOM     10  C   UNL     1      41.179   6.401  17.119  0.00  0.00    +0.000 A 
ATOM     11  C   UNL     1      40.140   6.274  16.247  0.00  0.00    +0.000 A 
BRANCH   9  12
ATOM     12  O   UNL     1      42.102   6.350  19.300  0.00  0.00    +0.000 OA
ATOM     13  C   UNL     1      42.017   6.312  20.710  0.00  0.00    +0.000 C 
ENDBRANCH   9  12
ENDBRANCH   5   6
BRANCH   1  14
ATOM     14  C   UNL     1      37.710   3.283  15.782  0.00  0.00    +0.000 C 
BRANCH  14  15
ATOM     15  N   UNL     1      36.811   2.702  16.738  0.00  0.00    +0.000 NA
BRANCH  15  19
ATOM     16  C   UNL     1      35.323  -1.253  16.207  0.00  0.00    +0.000 A 
ATOM     17  C   UNL     1      36.397  -0.789  15.467  0.00  0.00    +0.000 A 
ATOM     18  C   UNL     1      36.868   0.500  15.654  0.00  0.00    +0.000 A 
ATOM     19  C   UNL     1      36.317   1.380  16.560  0.00  0.00    +0.000 A 
ATOM     20  C   UNL     1      35.239   0.905  17.298  0.00  0.00    +0.000 A 
ATOM     21  C   UNL     1      34.770  -0.376  17.114  0.00  0.00    +0.000 A 
BRANCH  16  23
ATOM     22  C   UNL     1      35.311  -3.379  15.018  0.00  0.00    +0.000 C 
ATOM     23  O   UNL     1      34.820  -2.541  16.049  0.00  0.00    +0.000 OA
ENDBRANCH  16  23
ENDBRANCH  15  19
ENDBRANCH  14  15
ENDBRANCH   1  14
BRANCH   4  24
ATOM     24  S   UNL     1      37.487   8.601  15.393  0.00  0.00    +0.000 S 
BRANCH  24  25
ATOM     25  C   UNL     1      36.539   9.139  16.840  0.00  0.00    +0.000 C 
BRANCH  25  26
ATOM     26  C   UNL     1      37.440   9.168  18.000  0.00  0.00    +0.000 A 
ATOM     27  C   UNL     1      36.936   8.798  19.226  0.00  0.00    +0.000 A 
ATOM     28  C   UNL     1      37.713   8.801  20.347  0.00  0.00    +0.000 A 
ATOM     29  C   UNL     1      39.034   9.180  20.265  0.00  0.00    +0.000 A 
ATOM     30  C   UNL     1      39.543   9.550  19.045  0.00  0.00    +0.000 A 
ATOM     31  C   UNL     1      38.765   9.549  17.916  0.00  0.00    +0.000 A 
ENDBRANCH  25  26
ENDBRANCH  24  25
ENDBRANCH   4  24
TORSDOF 9
ENDMDL
MODEL 4
REMARK VINA RESULT:      -6.7      2.171      2.978
REMARK  Name = 
REMARK  9 active torsions:
REMARK  status: ('A' for Active; 'I' for Inactive)
REMARK    1  A    between atoms: O_2  and  C_3
REMARK    2  A    between atoms: C_6  and  N_7
REMARK    3  A    between atoms: N_7  and  C_8
REMARK    4  A    between atoms: C_8  and  C_9
REMARK    5  A    between atoms: C_12  and  S_13
REMARK    6  A    between atoms: S_13  and  C_14
REMARK    7  A    between atoms: C_14  and  C_15
REMARK    8  A    between atoms: N_21  and  C_22
REMARK    9  A    between atoms: C_25  and  O_26
REMARK                            x       y       z     vdW  Elec       q    Type
REMARK                         _______ _______ _______ _____ _____    ______ ____
ROOT
ATOM      1  C   UNL     1      36.934   2.677  15.988  0.00  0.00    +0.000 A 
ATOM      2  N   UNL     1      35.949   2.470  16.879  0.00  0.00    +0.000 NA
ATOM      3  N   UNL     1      35.589   1.197  16.830  0.00  0.00    +0.000 NA
ATOM      4  C   UNL     1      36.337   0.566  15.906  0.00  0.00    +0.000 A 
ATOM      5  N   UNL     1      37.160   1.493  15.398  0.00  0.00    +0.000 N 
ENDROOT
BRANCH   5   6
ATOM      6  C   UNL     1      38.130   1.265  14.382  0.00  0.00    +0.000 A 
ATOM      7  C   UNL     1      39.444   1.122  14.695  0.00  0.00    +0.000 A 
ATOM      8  C   UNL     1      40.359   0.903  13.677  0.00  0.00    +0.000 A 
ATOM      9  C   UNL     1      39.989   0.824  12.363  0.00  0.00    +0.000 A 
ATOM     10  C   UNL     1      38.652   0.972  12.076  0.00  0.00    +0.000 A 
ATOM     11  C   UNL     1      37.739   1.188  13.062  0.00  0.00    +0.000 A 
BRANCH   9  12
ATOM     12  O   UNL     1      40.865   0.606  11.313  0.00  0.00    +0.000 OA
ATOM     13  C   UNL     1      42.218   0.242  11.495  0.00  0.00    +0.000 C 
ENDBRANCH   9  12
ENDBRANCH   5   6
BRANCH   1  14
ATOM     14  C   UNL     1      37.638   3.964  15.706  0.00  0.00    +0.000 C 
BRANCH  14  15
ATOM     15  N   UNL     1      38.742   4.188  16.595  0.00  0.00    +0.000 NA
BRANCH  15  19
ATOM     16  C   UNL     1      38.924   7.712  18.980  0.00  0.00    +0.000 A 
ATOM     17  C   UNL     1      39.339   6.490  19.480  0.00  0.00    +0.000 A 
ATOM     18  C   UNL     1      39.274   5.355  18.689  0.00  0.00    +0.000 A 
ATOM     19  C   UNL     1      38.805   5.364  17.393  0.00  0.00    +0.000 A 
ATOM     20  C   UNL     1      38.390   6.596  16.900  0.00  0.00    +0.000 A 
ATOM     21  C   UNL     1      38.455   7.725  17.685  0.00  0.00    +0.000 A 
BRANCH  16  23
ATOM     22  C   UNL     1      37.855   9.271  20.516  0.00  0.00    +0.000 C 
ATOM     23  O   UNL     1      38.973   8.876  19.742  0.00  0.00    +0.000 OA
ENDBRANCH  16  23
ENDBRANCH  15  19
ENDBRANCH  14  15
ENDBRANCH   1  14
BRANCH   4  24
ATOM     24  S   UNL     1      36.240  -1.179  15.453  0.00  0.00    +0.000 S 
BRANCH  24  25
ATOM     25  C   UNL     1      37.662  -2.003  16.214  0.00  0.00    +0.000 C 
BRANCH  25  26
ATOM     26  C   UNL     1      38.644  -2.300  15.162  0.00  0.00    +0.000 A 
ATOM     27  C   UNL     1      38.194  -2.431  13.868  0.00  0.00    +0.000 A 
ATOM     28  C   UNL     1      39.047  -2.707  12.840  0.00  0.00    +0.000 A 
ATOM     29  C   UNL     1      40.393  -2.859  13.089  0.00  0.00    +0.000 A 
ATOM     30  C   UNL     1      40.848  -2.729  14.377  0.00  0.00    +0.000 A 
ATOM     31  C   UNL     1      39.993  -2.453  15.413  0.00  0.00    +0.000 A 
ENDBRANCH  25  26
ENDBRANCH  24  25
ENDBRANCH   4  24
TORSDOF 9
ENDMDL
MODEL 5
REMARK VINA RESULT:      -6.7      2.871      7.213
REMARK  Name = 
REMARK  9 active torsions:
REMARK  status: ('A' for Active; 'I' for Inactive)
REMARK    1  A    between atoms: O_2  and  C_3
REMARK    2  A    between atoms: C_6  and  N_7
REMARK    3  A    between atoms: N_7  and  C_8
REMARK    4  A    between atoms: C_8  and  C_9
REMARK    5  A    between atoms: C_12  and  S_13
REMARK    6  A    between atoms: S_13  and  C_14
REMARK    7  A    between atoms: C_14  and  C_15
REMARK    8  A    between atoms: N_21  and  C_22
REMARK    9  A    between atoms: C_25  and  O_26
REMARK                            x       y       z     vdW  Elec       q    Type
REMARK                         _______ _______ _______ _____ _____    ______ ____
ROOT
ATOM      1  C   UNL     1      36.719   0.275  16.290  0.00  0.00    +0.000 A 
ATOM      2  N   UNL     1      36.385   0.864  17.452  0.00  0.00    +0.000 NA
ATOM      3  N   UNL     1      36.521   2.174  17.322  0.00  0.00    +0.000 NA
ATOM      4  C   UNL     1      36.946   2.448  16.073  0.00  0.00    +0.000 A 
ATOM      5  N   UNL     1      37.061   1.267  15.453  0.00  0.00    +0.000 N 
ENDROOT
BRANCH   5   6
ATOM      6  C   UNL     1      37.487   1.082  14.108  0.00  0.00    +0.000 A 
ATOM      7  C   UNL     1      36.581   0.915  13.109  0.00  0.00    +0.000 A 
ATOM      8  C   UNL     1      37.034   0.736  11.812  0.00  0.00    +0.000 A 
ATOM      9  C   UNL     1      38.364   0.721  11.495  0.00  0.00    +0.000 A 
ATOM     10  C   UNL     1      39.259   0.892  12.525  0.00  0.00    +0.000 A 
ATOM     11  C   UNL     1      38.832   1.069  13.807  0.00  0.00    +0.000 A 
BRANCH   9  12
ATOM     12  O   UNL     1      38.865   0.546  10.215  0.00  0.00    +0.000 OA
ATOM     13  C   UNL     1      40.233   0.319   9.943  0.00  0.00    +0.000 C 
ENDBRANCH   9  12
ENDBRANCH   5   6
BRANCH   1  14
ATOM     14  C   UNL     1      36.714  -1.188  15.987  0.00  0.00    +0.000 C 
BRANCH  14  15
ATOM     15  N   UNL     1      37.999  -1.792  16.198  0.00  0.00    +0.000 NA
BRANCH  15  19
ATOM     16  C   UNL     1      40.478  -2.853  12.901  0.00  0.00    +0.000 A 
ATOM     17  C   UNL     1      39.099  -2.864  12.789  0.00  0.00    +0.000 A 
ATOM     18  C   UNL     1      38.309  -2.515  13.872  0.00  0.00    +0.000 A 
ATOM     19  C   UNL     1      38.825  -2.146  15.094  0.00  0.00    +0.000 A 
ATOM     20  C   UNL     1      40.212  -2.138  15.198  0.00  0.00    +0.000 A 
ATOM     21  C   UNL     1      40.998  -2.484  14.122  0.00  0.00    +0.000 A 
BRANCH  16  23
ATOM     22  C   UNL     1      42.513  -2.489  11.612  0.00  0.00    +0.000 C 
ATOM     23  O   UNL     1      41.307  -3.197  11.837  0.00  0.00    +0.000 OA
ENDBRANCH  16  23
ENDBRANCH  15  19
ENDBRANCH  14  15
ENDBRANCH   1  14
BRANCH   4  24
ATOM     24  S   UNL     1      37.286   4.084  15.388  0.00  0.00    +0.000 S 
BRANCH  24  25
ATOM     25  C   UNL     1      39.084   4.299  15.402  0.00  0.00    +0.000 C 
BRANCH  25  26
ATOM     26  C   UNL     1      39.454   5.043  16.613  0.00  0.00    +0.000 A 
ATOM     27  C   UNL     1      40.520   5.910  16.546  0.00  0.00    +0.000 A 
ATOM     28  C   UNL     1      40.920   6.634  17.630  0.00  0.00    +0.000 A 
ATOM     29  C   UNL     1      40.250   6.506  18.826  0.00  0.00    +0.000 A 
ATOM     30  C   UNL     1      39.185   5.644  18.900  0.00  0.00    +0.000 A 
ATOM     31  C   UNL     1      38.780   4.913  17.812  0.00  0.00    +0.000 A 
ENDBRANCH  25  26
ENDBRANCH  24  25
ENDBRANCH   4  24
TORSDOF 9
ENDMDL
MODEL 6
REMARK VINA RESULT:      -6.7      3.451      5.463
REMARK  Name = 
REMARK  9 active torsions:
REMARK  status: ('A' for Active; 'I' for Inactive)
REMARK    1  A    between atoms: O_2  and  C_3
REMARK    2  A    between atoms: C_6  and  N_7
REMARK    3  A    between atoms: N_7  and  C_8
REMARK    4  A    between atoms: C_8  and  C_9
REMARK    5  A    between atoms: C_12  and  S_13
REMARK    6  A    between atoms: S_13  and  C_14
REMARK    7  A    between atoms: C_14  and  C_15
REMARK    8  A    between atoms: N_21  and  C_22
REMARK    9  A    between atoms: C_25  and  O_26
REMARK                            x       y       z     vdW  Elec       q    Type
REMARK                         _______ _______ _______ _____ _____    ______ ____
ROOT
ATOM      1  C   UNL     1      37.211   2.776  12.719  0.00  0.00    +0.000 A 
ATOM      2  N   UNL     1      36.748   4.032  12.850  0.00  0.00    +0.000 NA
ATOM      3  N   UNL     1      36.380   4.223  14.107  0.00  0.00    +0.000 NA
ATOM      4  C   UNL     1      36.601   3.093  14.804  0.00  0.00    +0.000 A 
ATOM      5  N   UNL     1      37.113   2.213  13.933  0.00  0.00    +0.000 N 
ENDROOT
BRANCH   5   6
ATOM      6  C   UNL     1      37.495   0.878  14.242  0.00  0.00    +0.000 A 
ATOM      7  C   UNL     1      36.782  -0.177  13.769  0.00  0.00    +0.000 A 
ATOM      8  C   UNL     1      37.185  -1.463  14.092  0.00  0.00    +0.000 A 
ATOM      9  C   UNL     1      38.279  -1.714  14.873  0.00  0.00    +0.000 A 
ATOM     10  C   UNL     1      38.982  -0.628  15.339  0.00  0.00    +0.000 A 
ATOM     11  C   UNL     1      38.601   0.643  15.031  0.00  0.00    +0.000 A 
BRANCH   9  12
ATOM     12  O   UNL     1      38.720  -2.979  15.223  0.00  0.00    +0.000 OA
ATOM     13  C   UNL     1      40.028  -3.242  15.688  0.00  0.00    +0.000 C 
ENDBRANCH   9  12
ENDBRANCH   5   6
BRANCH   1  14
ATOM     14  C   UNL     1      37.730   2.131  11.475  0.00  0.00    +0.000 C 
BRANCH  14  15
ATOM     15  N   UNL     1      39.164   2.066  11.453  0.00  0.00    +0.000 NA
BRANCH  15  19
ATOM     16  C   UNL     1      41.188  -1.589  12.283  0.00  0.00    +0.000 A 
ATOM     17  C   UNL     1      40.032  -1.570  11.523  0.00  0.00    +0.000 A 
ATOM     18  C   UNL     1      39.388  -0.372  11.262  0.00  0.00    +0.000 A 
ATOM     19  C   UNL     1      39.839   0.844  11.728  0.00  0.00    +0.000 A 
ATOM     20  C   UNL     1      41.001   0.815  12.491  0.00  0.00    +0.000 A 
ATOM     21  C   UNL     1      41.643  -0.375  12.750  0.00  0.00    +0.000 A 
BRANCH  16  23
ATOM     22  C   UNL     1      43.255  -2.752  12.840  0.00  0.00    +0.000 C 
ATOM     23  O   UNL     1      41.865  -2.771  12.568  0.00  0.00    +0.000 OA
ENDBRANCH  16  23
ENDBRANCH  15  19
ENDBRANCH  14  15
ENDBRANCH   1  14
BRANCH   4  24
ATOM     24  S   UNL     1      36.268   2.830  16.560  0.00  0.00    +0.000 S 
BRANCH  24  25
ATOM     25  C   UNL     1      34.866   1.688  16.667  0.00  0.00    +0.000 C 
BRANCH  25  26
ATOM     26  C   UNL     1      35.356   0.399  17.175  0.00  0.00    +0.000 A 
ATOM     27  C   UNL     1      34.742  -0.751  16.735  0.00  0.00    +0.000 A 
ATOM     28  C   UNL     1      35.143  -1.982  17.164  0.00  0.00    +0.000 A 
ATOM     29  C   UNL     1      36.185  -2.092  18.056  0.00  0.00    +0.000 A 
ATOM     30  C   UNL     1      36.802  -0.948  18.499  0.00  0.00    +0.000 A 
ATOM     31  C   UNL     1      36.401   0.292  18.071  0.00  0.00    +0.000 A 
ENDBRANCH  25  26
ENDBRANCH  24  25
ENDBRANCH   4  24
TORSDOF 9
ENDMDL
MODEL 7
REMARK VINA RESULT:      -6.6      3.413      5.919
REMARK  Name = 
REMARK  9 active torsions:
REMARK  status: ('A' for Active; 'I' for Inactive)
REMARK    1  A    between atoms: O_2  and  C_3
REMARK    2  A    between atoms: C_6  and  N_7
REMARK    3  A    between atoms: N_7  and  C_8
REMARK    4  A    between atoms: C_8  and  C_9
REMARK    5  A    between atoms: C_12  and  S_13
REMARK    6  A    between atoms: S_13  and  C_14
REMARK    7  A    between atoms: C_14  and  C_15
REMARK    8  A    between atoms: N_21  and  C_22
REMARK    9  A    between atoms: C_25  and  O_26
REMARK                            x       y       z     vdW  Elec       q    Type
REMARK                         _______ _______ _______ _____ _____    ______ ____
ROOT
ATOM      1  C   UNL     1      37.766  -1.828  16.522  0.00  0.00    +0.000 A 
ATOM      2  N   UNL     1      38.304  -2.807  17.271  0.00  0.00    +0.000 NA
ATOM      3  N   UNL     1      39.483  -3.132  16.766  0.00  0.00    +0.000 NA
ATOM      4  C   UNL     1      39.722  -2.367  15.683  0.00  0.00    +0.000 A 
ATOM      5  N   UNL     1      38.653  -1.570  15.550  0.00  0.00    +0.000 N 
ENDROOT
BRANCH   5   6
ATOM      6  C   UNL     1      38.477  -0.595  14.529  0.00  0.00    +0.000 A 
ATOM      7  C   UNL     1      37.675  -0.843  13.461  0.00  0.00    +0.000 A 
ATOM      8  C   UNL     1      37.531   0.132  12.486  0.00  0.00    +0.000 A 
ATOM      9  C   UNL     1      38.167   1.340  12.557  0.00  0.00    +0.000 A 
ATOM     10  C   UNL     1      38.973   1.564  13.648  0.00  0.00    +0.000 A 
ATOM     11  C   UNL     1      39.127   0.618  14.616  0.00  0.00    +0.000 A 
BRANCH   9  12
ATOM     12  O   UNL     1      38.054   2.344  11.609  0.00  0.00    +0.000 OA
ATOM     13  C   UNL     1      37.744   2.097  10.253  0.00  0.00    +0.000 C 
ENDBRANCH   9  12
ENDBRANCH   5   6
BRANCH   1  14
ATOM     14  C   UNL     1      36.445  -1.160  16.727  0.00  0.00    +0.000 C 
BRANCH  14  15
ATOM     15  N   UNL     1      36.582   0.162  17.270  0.00  0.00    +0.000 NA
BRANCH  15  19
ATOM     16  C   UNL     1      35.644   3.591  14.923  0.00  0.00    +0.000 A 
ATOM     17  C   UNL     1      35.125   2.347  14.609  0.00  0.00    +0.000 A 
ATOM     18  C   UNL     1      35.440   1.243  15.384  0.00  0.00    +0.000 A 
ATOM     19  C   UNL     1      36.266   1.306  16.486  0.00  0.00    +0.000 A 
ATOM     20  C   UNL     1      36.783   2.559  16.794  0.00  0.00    +0.000 A 
ATOM     21  C   UNL     1      36.470   3.658  16.024  0.00  0.00    +0.000 A 
BRANCH  16  23
ATOM     22  C   UNL     1      36.050   4.980  12.965  0.00  0.00    +0.000 C 
ATOM     23  O   UNL     1      35.352   4.724  14.170  0.00  0.00    +0.000 OA
ENDBRANCH  16  23
ENDBRANCH  15  19
ENDBRANCH  14  15
ENDBRANCH   1  14
BRANCH   4  24
ATOM     24  S   UNL     1      41.190  -2.417  14.634  0.00  0.00    +0.000 S 
BRANCH  24  25
ATOM     25  C   UNL     1      40.659  -3.015  13.009  0.00  0.00    +0.000 C 
BRANCH  25  26
ATOM     26  C   UNL     1      40.784  -1.913  12.046  0.00  0.00    +0.000 A 
ATOM     27  C   UNL     1      40.101  -2.007  10.855  0.00  0.00    +0.000 A 
ATOM     28  C   UNL     1      40.170  -1.023   9.913  0.00  0.00    +0.000 A 
ATOM     29  C   UNL     1      40.937   0.097  10.146  0.00  0.00    +0.000 A 
ATOM     30  C   UNL     1      41.620   0.197  11.333  0.00  0.00    +0.000 A 
ATOM     31  C   UNL     1      41.554  -0.791  12.281  0.00  0.00    +0.000 A 
ENDBRANCH  25  26
ENDBRANCH  24  25
ENDBRANCH   4  24
TORSDOF 9
ENDMDL
MODEL 8
REMARK VINA RESULT:      -6.6      3.323      7.951
REMARK  Name = 
REMARK  9 active torsions:
REMARK  status: ('A' for Active; 'I' for Inactive)
REMARK    1  A    between atoms: O_2  and  C_3
REMARK    2  A    between atoms: C_6  and  N_7
REMARK    3  A    between atoms: N_7  and  C_8
REMARK    4  A    between atoms: C_8  and  C_9
REMARK    5  A    between atoms: C_12  and  S_13
REMARK    6  A    between atoms: S_13  and  C_14
REMARK    7  A    between atoms: C_14  and  C_15
REMARK    8  A    between atoms: N_21  and  C_22
REMARK    9  A    between atoms: C_25  and  O_26
REMARK                            x       y       z     vdW  Elec       q    Type
REMARK                         _______ _______ _______ _____ _____    ______ ____
ROOT
ATOM      1  C   UNL     1      36.501   2.889  15.821  0.00  0.00    +0.000 A 
ATOM      2  N   UNL     1      37.071   2.710  17.026  0.00  0.00    +0.000 NA
ATOM      3  N   UNL     1      37.797   3.778  17.318  0.00  0.00    +0.000 NA
ATOM      4  C   UNL     1      37.705   4.660  16.305  0.00  0.00    +0.000 A 
ATOM      5  N   UNL     1      36.903   4.095  15.393  0.00  0.00    +0.000 N 
ENDROOT
BRANCH   5   6
ATOM      6  C   UNL     1      36.530   4.680  14.150  0.00  0.00    +0.000 A 
ATOM      7  C   UNL     1      37.243   4.429  13.021  0.00  0.00    +0.000 A 
ATOM      8  C   UNL     1      36.850   5.019  11.831  0.00  0.00    +0.000 A 
ATOM      9  C   UNL     1      35.766   5.848  11.746  0.00  0.00    +0.000 A 
ATOM     10  C   UNL     1      35.063   6.085  12.904  0.00  0.00    +0.000 A 
ATOM     11  C   UNL     1      35.434   5.515  14.084  0.00  0.00    +0.000 A 
BRANCH   9  12
ATOM     12  O   UNL     1      35.335   6.460  10.580  0.00  0.00    +0.000 OA
ATOM     13  C   UNL     1      34.193   7.290  10.518  0.00  0.00    +0.000 C 
ENDBRANCH   9  12
ENDBRANCH   5   6
BRANCH   1  14
ATOM     14  C   UNL     1      35.602   1.938  15.100  0.00  0.00    +0.000 C 
BRANCH  14  15
ATOM     15  N   UNL     1      36.331   0.885  14.452  0.00  0.00    +0.000 NA
BRANCH  15  19
ATOM     16  C   UNL     1      38.267  -2.142  16.739  0.00  0.00    +0.000 A 
ATOM     17  C   UNL     1      38.971  -1.379  15.824  0.00  0.00    +0.000 A 
ATOM     18  C   UNL     1      38.325  -0.398  15.090  0.00  0.00    +0.000 A 
ATOM     19  C   UNL     1      36.980  -0.125  15.216  0.00  0.00    +0.000 A 
ATOM     20  C   UNL     1      36.281  -0.897  16.137  0.00  0.00    +0.000 A 
ATOM     21  C   UNL     1      36.923  -1.872  16.868  0.00  0.00    +0.000 A 
BRANCH  16  23
ATOM     22  C   UNL     1      38.677  -3.197  18.896  0.00  0.00    +0.000 C 
ATOM     23  O   UNL     1      38.879  -3.137  17.495  0.00  0.00    +0.000 OA
ENDBRANCH  16  23
ENDBRANCH  15  19
ENDBRANCH  14  15
ENDBRANCH   1  14
BRANCH   4  24
ATOM     24  S   UNL     1      38.507   6.275  16.209  0.00  0.00    +0.000 S 
BRANCH  24  25
ATOM     25  C   UNL     1      40.293   5.984  16.306  0.00  0.00    +0.000 C 
BRANCH  25  26
ATOM     26  C   UNL     1      40.727   6.223  17.688  0.00  0.00    +0.000 A 
ATOM     27  C   UNL     1      42.065   6.443  17.922  0.00  0.00    +0.000 A 
ATOM     28  C   UNL     1      42.541   6.672  19.180  0.00  0.00    +0.000 A 
ATOM     29  C   UNL     1      41.674   6.686  20.250  0.00  0.00    +0.000 A 
ATOM     30  C   UNL     1      40.338   6.468  20.023  0.00  0.00    +0.000 A 
ATOM     31  C   UNL     1      39.856   6.236  18.760  0.00  0.00    +0.000 A 
ENDBRANCH  25  26
ENDBRANCH  24  25
ENDBRANCH   4  24
TORSDOF 9
ENDMDL
MODEL 9
REMARK VINA RESULT:      -6.5      2.499      4.258
REMARK  Name = 
REMARK  9 active torsions:
REMARK  status: ('A' for Active; 'I' for Inactive)
REMARK    1  A    between atoms: O_2  and  C_3
REMARK    2  A    between atoms: C_6  and  N_7
REMARK    3  A    between atoms: N_7  and  C_8
REMARK    4  A    between atoms: C_8  and  C_9
REMARK    5  A    between atoms: C_12  and  S_13
REMARK    6  A    between atoms: S_13  and  C_14
REMARK    7  A    between atoms: C_14  and  C_15
REMARK    8  A    between atoms: N_21  and  C_22
REMARK    9  A    between atoms: C_25  and  O_26
REMARK                            x       y       z     vdW  Elec       q    Type
REMARK                         _______ _______ _______ _____ _____    ______ ____
ROOT
ATOM      1  C   UNL     1      38.022   3.679  15.426  0.00  0.00    +0.000 A 
ATOM      2  N   UNL     1      38.664   4.267  14.402  0.00  0.00    +0.000 NA
ATOM      3  N   UNL     1      38.483   3.541  13.310  0.00  0.00    +0.000 NA
ATOM      4  C   UNL     1      37.720   2.474  13.615  0.00  0.00    +0.000 A 
ATOM      5  N   UNL     1      37.446   2.576  14.922  0.00  0.00    +0.000 N 
ENDROOT
BRANCH   5   6
ATOM      6  C   UNL     1      36.664   1.654  15.673  0.00  0.00    +0.000 A 
ATOM      7  C   UNL     1      35.409   1.977  16.081  0.00  0.00    +0.000 A 
ATOM      8  C   UNL     1      34.679   1.053  16.812  0.00  0.00    +0.000 A 
ATOM      9  C   UNL     1      35.175  -0.178  17.141  0.00  0.00    +0.000 A 
ATOM     10  C   UNL     1      36.448  -0.478  16.716  0.00  0.00    +0.000 A 
ATOM     11  C   UNL     1      37.181   0.417  15.997  0.00  0.00    +0.000 A 
BRANCH   9  12
ATOM     12  O   UNL     1      34.485  -1.133  17.869  0.00  0.00    +0.000 OA
ATOM     13  C   UNL     1      33.374  -1.842  17.359  0.00  0.00    +0.000 C 
ENDBRANCH   9  12
ENDBRANCH   5   6
BRANCH   1  14
ATOM     14  C   UNL     1      37.960   4.152  16.842  0.00  0.00    +0.000 C 
BRANCH  14  15
ATOM     15  N   UNL     1      38.357   5.524  16.976  0.00  0.00    +0.000 NA
BRANCH  15  19
ATOM     16  C   UNL     1      41.689   6.590  19.405  0.00  0.00    +0.000 A 
ATOM     17  C   UNL     1      41.822   6.448  18.035  0.00  0.00    +0.000 A 
ATOM     18  C   UNL     1      40.727   6.103  17.261  0.00  0.00    +0.000 A 
ATOM     19  C   UNL     1      39.472   5.882  17.785  0.00  0.00    +0.000 A 
ATOM     20  C   UNL     1      39.348   6.025  19.162  0.00  0.00    +0.000 A 
ATOM     21  C   UNL     1      40.436   6.370  19.933  0.00  0.00    +0.000 A 
BRANCH  16  23
ATOM     22  C   UNL     1      43.192   6.063  21.249  0.00  0.00    +0.000 C 
ATOM     23  O   UNL     1      42.765   6.936  20.218  0.00  0.00    +0.000 OA
ENDBRANCH  16  23
ENDBRANCH  15  19
ENDBRANCH  14  15
ENDBRANCH   1  14
BRANCH   4  24
ATOM     24  S   UNL     1      37.184   1.175  12.481  0.00  0.00    +0.000 S 
BRANCH  24  25
ATOM     25  C   UNL     1      38.667   0.258  11.989  0.00  0.00    +0.000 C 
BRANCH  25  26
ATOM     26  C   UNL     1      39.015  -0.674  13.070  0.00  0.00    +0.000 A 
ATOM     27  C   UNL     1      38.251  -1.807  13.226  0.00  0.00    +0.000 A 
ATOM     28  C   UNL     1      38.515  -2.716  14.208  0.00  0.00    +0.000 A 
ATOM     29  C   UNL     1      39.570  -2.509  15.069  0.00  0.00    +0.000 A 
ATOM     30  C   UNL     1      40.337  -1.381  14.918  0.00  0.00    +0.000 A 
ATOM     31  C   UNL     1      40.073  -0.464  13.933  0.00  0.00    +0.000 A 
ENDBRANCH  25  26
ENDBRANCH  24  25
ENDBRANCH   4  24
TORSDOF 9
ENDMDL
MODEL 10
REMARK VINA RESULT:      -6.4     26.591     29.515
REMARK  Name = 
REMARK  9 active torsions:
REMARK  status: ('A' for Active; 'I' for Inactive)
REMARK    1  A    between atoms: O_2  and  C_3
REMARK    2  A    between atoms: C_6  and  N_7
REMARK    3  A    between atoms: N_7  and  C_8
REMARK    4  A    between atoms: C_8  and  C_9
REMARK    5  A    between atoms: C_12  and  S_13
REMARK    6  A    between atoms: S_13  and  C_14
REMARK    7  A    between atoms: C_14  and  C_15
REMARK    8  A    between atoms: N_21  and  C_22
REMARK    9  A    between atoms: C_25  and  O_26
REMARK                            x       y       z     vdW  Elec       q    Type
REMARK                         _______ _______ _______ _____ _____    ______ ____
ROOT
ATOM      1  C   UNL     1       9.646   0.919   9.854  0.00  0.00    +0.000 A 
ATOM      2  N   UNL     1       9.082   0.198  10.839  0.00  0.00    +0.000 NA
ATOM      3  N   UNL     1       8.510   1.024  11.700  0.00  0.00    +0.000 NA
ATOM      4  C   UNL     1       8.697   2.290  11.283  0.00  0.00    +0.000 A 
ATOM      5  N   UNL     1       9.398   2.206  10.145  0.00  0.00    +0.000 N 
ENDROOT
BRANCH   5   6
ATOM      6  C   UNL     1       9.824   3.312   9.357  0.00  0.00    +0.000 A 
ATOM      7  C   UNL     1       9.210   3.606   8.181  0.00  0.00    +0.000 A 
ATOM      8  C   UNL     1       9.654   4.690   7.441  0.00  0.00    +0.000 A 
ATOM      9  C   UNL     1      10.693   5.480   7.850  0.00  0.00    +0.000 A 
ATOM     10  C   UNL     1      11.296   5.159   9.043  0.00  0.00    +0.000 A 
ATOM     11  C   UNL     1      10.874   4.098   9.784  0.00  0.00    +0.000 A 
BRANCH   9  12
ATOM     12  O   UNL     1      11.172   6.573   7.146  0.00  0.00    +0.000 OA
ATOM     13  C   UNL     1      10.349   7.410   6.361  0.00  0.00    +0.000 C 
ENDBRANCH   9  12
ENDBRANCH   5   6
BRANCH   1  14
ATOM     14  C   UNL     1      10.399   0.399   8.673  0.00  0.00    +0.000 C 
BRANCH  14  15
ATOM     15  N   UNL     1      11.820   0.472   8.858  0.00  0.00    +0.000 NA
BRANCH  15  19
ATOM     16  C   UNL     1      14.308  -2.868   7.967  0.00  0.00    +0.000 A 
ATOM     17  C   UNL     1      13.529  -2.844   9.110  0.00  0.00    +0.000 A 
ATOM     18  C   UNL     1      12.725  -1.749   9.383  0.00  0.00    +0.000 A 
ATOM     19  C   UNL     1      12.650  -0.645   8.562  0.00  0.00    +0.000 A 
ATOM     20  C   UNL     1      13.437  -0.678   7.416  0.00  0.00    +0.000 A 
ATOM     21  C   UNL     1      14.236  -1.766   7.143  0.00  0.00    +0.000 A 
BRANCH  16  23
ATOM     22  C   UNL     1      15.854  -3.969   6.441  0.00  0.00    +0.000 C 
ATOM     23  O   UNL     1      15.129  -3.948   7.657  0.00  0.00    +0.000 OA
ENDBRANCH  16  23
ENDBRANCH  15  19
ENDBRANCH  14  15
ENDBRANCH   1  14
BRANCH   4  24
ATOM     24  S   UNL     1       8.115   3.790  12.103  0.00  0.00    +0.000 S 
BRANCH  24  25
ATOM     25  C   UNL     1       6.577   4.279  11.281  0.00  0.00    +0.000 C 
BRANCH  25  26
ATOM     26  C   UNL     1       6.879   5.368  10.343  0.00  0.00    +0.000 A 
ATOM     27  C   UNL     1       6.086   5.506   9.227  0.00  0.00    +0.000 A 
ATOM     28  C   UNL     1       6.307   6.494   8.312  0.00  0.00    +0.000 A 
ATOM     29  C   UNL     1       7.343   7.382   8.499  0.00  0.00    +0.000 A 
ATOM     30  C   UNL     1       8.137   7.251   9.611  0.00  0.00    +0.000 A 
ATOM     31  C   UNL     1       7.919   6.258  10.531  0.00  0.00    +0.000 A 
ENDBRANCH  25  26
ENDBRANCH  24  25
ENDBRANCH   4  24
TORSDOF 9
ENDMDL
