MODEL 1
REMARK VINA RESULT:      -8.1      0.000      0.000
REMARK  Name = 
REMARK  7 active torsions:
REMARK  status: ('A' for Active; 'I' for Inactive)
REMARK    1  A    between atoms: C_3  and  C_4
REMARK    2  A    between atoms: C_4  and  C_5
REMARK    3  A    between atoms: N_13  and  C_14
REMARK    4  A    between atoms: C_14  and  C_15
REMARK    5  A    between atoms: C_15  and  C_16
REMARK    6  A    between atoms: C_16  and  C_17
REMARK    7  A    between atoms: C_23  and  N_24
REMARK                            x       y       z     vdW  Elec       q    Type
REMARK                         _______ _______ _______ _____ _____    ______ ____
ROOT
ATOM      1  C   UNL     1      37.648   4.539  13.431  0.00  0.00    +0.000 C 
ENDROOT
BRANCH   1   2
ATOM      2  C   UNL     1      38.579   5.493  13.669  0.00  0.00    +0.000 C 
BRANCH   2   8
ATOM      3  C   UNL     1      37.834   3.960  17.842  0.00  0.00    +0.000 C 
ATOM      4  C   UNL     1      38.861   4.635  16.936  0.00  0.00    +0.000 C 
ATOM      5  C   UNL     1      39.607   5.584  17.536  0.00  0.00    +0.000 C 
ATOM      6  C   UNL     1      40.604   6.255  16.692  0.00  0.00    +0.000 C 
ATOM      7  C   UNL     1      40.182   6.337  15.272  0.00  0.00    +0.000 C 
ATOM      8  N   UNL     1      39.596   5.200  14.697  0.00  0.00    +0.000 NA
ATOM      9  C   UNL     1      39.024   4.207  15.528  0.00  0.00    +0.000 C 
BRANCH   5  10
ATOM     10  C   UNL     1      39.311   5.803  18.946  0.00  0.00    +0.000 C 
BRANCH  10  11
ATOM     11  C   UNL     1      38.885   7.076  19.453  0.00  0.00    +0.000 A 
ATOM     12  C   UNL     1      37.830   7.701  18.757  0.00  0.00    +0.000 A 
ATOM     13  C   UNL     1      37.293   8.901  19.065  0.00  0.00    +0.000 A 
ATOM     14  C   UNL     1      37.807   9.595  20.156  0.00  0.00    +0.000 A 
ATOM     15  C   UNL     1      38.825   9.043  20.871  0.00  0.00    +0.000 A 
ATOM     16  C   UNL     1      39.385   7.786  20.541  0.00  0.00    +0.000 A 
ENDBRANCH  10  11
ENDBRANCH   5  10
ENDBRANCH   2   8
ENDBRANCH   1   2
BRANCH   1  17
ATOM     17  C   UNL     1      36.723   3.599  13.186  0.00  0.00    +0.000 C 
BRANCH  17  18
ATOM     18  C   UNL     1      35.843   3.120  14.305  0.00  0.00    +0.000 A 
ATOM     19  C   UNL     1      34.691   3.760  14.734  0.00  0.00    +0.000 A 
ATOM     20  N   UNL     1      34.214   3.137  15.801  0.00  0.00    +0.000 NA
ATOM     21  C   UNL     1      35.015   2.110  16.086  0.00  0.00    +0.000 A 
ATOM     22  C   UNL     1      34.939   1.131  17.062  0.00  0.00    +0.000 A 
ATOM     23  C   UNL     1      35.899   0.106  17.102  0.00  0.00    +0.000 A 
ATOM     24  C   UNL     1      36.922   0.066  16.172  0.00  0.00    +0.000 A 
ATOM     25  C   UNL     1      36.999   1.037  15.218  0.00  0.00    +0.000 A 
ATOM     26  C   UNL     1      36.044   2.077  15.160  0.00  0.00    +0.000 A 
BRANCH  24  27
ATOM     27  N   UNL     1      37.871  -1.015  16.178  0.00  0.00    +0.000 N 
ATOM     28  C   UNL     1      38.123  -1.935  17.094  0.00  0.00    +0.000 A 
ATOM     29  N   UNL     1      39.077  -2.767  16.681  0.00  0.00    +0.000 NA
ATOM     30  N   UNL     1      39.450  -2.384  15.480  0.00  0.00    +0.000 NA
ATOM     31  C   UNL     1      38.717  -1.299  15.142  0.00  0.00    +0.000 A 
ENDBRANCH  24  27
ENDBRANCH  17  18
ENDBRANCH   1  17
TORSDOF 7
ENDMDL
MODEL 2
REMARK VINA RESULT:      -7.8      1.501      2.240
REMARK  Name = 
REMARK  7 active torsions:
REMARK  status: ('A' for Active; 'I' for Inactive)
REMARK    1  A    between atoms: C_3  and  C_4
REMARK    2  A    between atoms: C_4  and  C_5
REMARK    3  A    between atoms: N_13  and  C_14
REMARK    4  A    between atoms: C_14  and  C_15
REMARK    5  A    between atoms: C_15  and  C_16
REMARK    6  A    between atoms: C_16  and  C_17
REMARK    7  A    between atoms: C_23  and  N_24
REMARK                            x       y       z     vdW  Elec       q    Type
REMARK                         _______ _______ _______ _____ _____    ______ ____
ROOT
ATOM      1  C   UNL     1      38.366   2.675  14.659  0.00  0.00    +0.000 C 
ENDROOT
BRANCH   1   2
ATOM      2  C   UNL     1      39.332   3.557  15.005  0.00  0.00    +0.000 C 
BRANCH   2   8
ATOM      3  C   UNL     1      41.913   6.361  17.412  0.00  0.00    +0.000 C 
ATOM      4  C   UNL     1      40.472   5.958  17.108  0.00  0.00    +0.000 C 
ATOM      5  C   UNL     1      39.641   5.987  18.169  0.00  0.00    +0.000 C 
ATOM      6  C   UNL     1      38.247   5.603  17.913  0.00  0.00    +0.000 C 
ATOM      7  C   UNL     1      38.126   4.608  16.819  0.00  0.00    +0.000 C 
ATOM      8  N   UNL     1      38.902   4.803  15.668  0.00  0.00    +0.000 NA
ATOM      9  C   UNL     1      40.056   5.622  15.728  0.00  0.00    +0.000 C 
BRANCH   5  10
ATOM     10  C   UNL     1      40.256   6.402  19.424  0.00  0.00    +0.000 C 
BRANCH  10  11
ATOM     11  C   UNL     1      40.079   7.718  19.968  0.00  0.00    +0.000 A 
ATOM     12  C   UNL     1      38.775   8.044  20.395  0.00  0.00    +0.000 A 
ATOM     13  C   UNL     1      38.399   9.228  20.923  0.00  0.00    +0.000 A 
ATOM     14  C   UNL     1      39.360  10.223  21.068  0.00  0.00    +0.000 A 
ATOM     15  C   UNL     1      40.639   9.969  20.676  0.00  0.00    +0.000 A 
ATOM     16  C   UNL     1      41.026   8.726  20.122  0.00  0.00    +0.000 A 
ENDBRANCH  10  11
ENDBRANCH   5  10
ENDBRANCH   2   8
ENDBRANCH   1   2
BRANCH   1  17
ATOM     17  C   UNL     1      37.401   1.806  14.320  0.00  0.00    +0.000 C 
BRANCH  17  18
ATOM     18  C   UNL     1      36.325   1.472  15.314  0.00  0.00    +0.000 A 
ATOM     19  C   UNL     1      35.219   2.263  15.577  0.00  0.00    +0.000 A 
ATOM     20  N   UNL     1      34.528   1.734  16.575  0.00  0.00    +0.000 NA
ATOM     21  C   UNL     1      35.145   0.621  16.976  0.00  0.00    +0.000 A 
ATOM     22  C   UNL     1      34.815  -0.313  17.941  0.00  0.00    +0.000 A 
ATOM     23  C   UNL     1      35.621  -1.450  18.120  0.00  0.00    +0.000 A 
ATOM     24  C   UNL     1      36.745  -1.644  17.338  0.00  0.00    +0.000 A 
ATOM     25  C   UNL     1      37.073  -0.715  16.395  0.00  0.00    +0.000 A 
ATOM     26  C   UNL     1      36.275   0.435  16.198  0.00  0.00    +0.000 A 
BRANCH  24  27
ATOM     27  N   UNL     1      37.538  -2.835  17.482  0.00  0.00    +0.000 N 
ATOM     28  C   UNL     1      38.466  -3.150  18.370  0.00  0.00    +0.000 A 
ATOM     29  N   UNL     1      38.938  -4.375  18.149  0.00  0.00    +0.000 NA
ATOM     30  N   UNL     1      38.308  -4.864  17.104  0.00  0.00    +0.000 NA
ATOM     31  C   UNL     1      37.433  -3.930  16.670  0.00  0.00    +0.000 A 
ENDBRANCH  24  27
ENDBRANCH  17  18
ENDBRANCH   1  17
TORSDOF 7
ENDMDL
MODEL 3
REMARK VINA RESULT:      -7.7      1.880      4.248
REMARK  Name = 
REMARK  7 active torsions:
REMARK  status: ('A' for Active; 'I' for Inactive)
REMARK    1  A    between atoms: C_3  and  C_4
REMARK    2  A    between atoms: C_4  and  C_5
REMARK    3  A    between atoms: N_13  and  C_14
REMARK    4  A    between atoms: C_14  and  C_15
REMARK    5  A    between atoms: C_15  and  C_16
REMARK    6  A    between atoms: C_16  and  C_17
REMARK    7  A    between atoms: C_23  and  N_24
REMARK                            x       y       z     vdW  Elec       q    Type
REMARK                         _______ _______ _______ _____ _____    ______ ____
ROOT
ATOM      1  C   UNL     1      39.093   1.581  13.521  0.00  0.00    +0.000 C 
ENDROOT
BRANCH   1   2
ATOM      2  C   UNL     1      37.840   2.046  13.307  0.00  0.00    +0.000 C 
BRANCH   2   8
ATOM      3  C   UNL     1      40.261   5.426  15.049  0.00  0.00    +0.000 C 
ATOM      4  C   UNL     1      38.961   4.637  15.183  0.00  0.00    +0.000 C 
ATOM      5  C   UNL     1      38.563   4.415  16.451  0.00  0.00    +0.000 C 
ATOM      6  C   UNL     1      37.316   3.657  16.617  0.00  0.00    +0.000 C 
ATOM      7  C   UNL     1      37.093   2.685  15.518  0.00  0.00    +0.000 C 
ATOM      8  N   UNL     1      37.353   3.110  14.207  0.00  0.00    +0.000 NA
ATOM      9  C   UNL     1      38.203   4.219  13.981  0.00  0.00    +0.000 C 
BRANCH   5  10
ATOM     10  C   UNL     1      39.438   4.967  17.479  0.00  0.00    +0.000 C 
BRANCH  10  11
ATOM     11  C   UNL     1      39.058   6.088  18.289  0.00  0.00    +0.000 A 
ATOM     12  C   UNL     1      39.804   6.285  19.469  0.00  0.00    +0.000 A 
ATOM     13  C   UNL     1      39.600   7.271  20.369  0.00  0.00    +0.000 A 
ATOM     14  C   UNL     1      38.575   8.181  20.130  0.00  0.00    +0.000 A 
ATOM     15  C   UNL     1      37.819   8.046  19.006  0.00  0.00    +0.000 A 
ATOM     16  C   UNL     1      38.037   7.009  18.069  0.00  0.00    +0.000 A 
ENDBRANCH  10  11
ENDBRANCH   5  10
ENDBRANCH   2   8
ENDBRANCH   1   2
BRANCH   1  17
ATOM     17  C   UNL     1      40.338   1.127  13.728  0.00  0.00    +0.000 C 
BRANCH  17  18
ATOM     18  C   UNL     1      40.539  -0.273  14.237  0.00  0.00    +0.000 A 
ATOM     19  C   UNL     1      41.551  -1.125  13.826  0.00  0.00    +0.000 A 
ATOM     20  N   UNL     1      41.381  -2.312  14.387  0.00  0.00    +0.000 NA
ATOM     21  C   UNL     1      40.290  -2.267  15.154  0.00  0.00    +0.000 A 
ATOM     22  C   UNL     1      39.709  -3.213  15.980  0.00  0.00    +0.000 A 
ATOM     23  C   UNL     1      38.577  -2.878  16.741  0.00  0.00    +0.000 A 
ATOM     24  C   UNL     1      38.037  -1.606  16.674  0.00  0.00    +0.000 A 
ATOM     25  C   UNL     1      38.607  -0.679  15.852  0.00  0.00    +0.000 A 
ATOM     26  C   UNL     1      39.746  -0.995  15.077  0.00  0.00    +0.000 A 
BRANCH  24  27
ATOM     27  N   UNL     1      36.913  -1.246  17.496  0.00  0.00    +0.000 N 
ATOM     28  C   UNL     1      36.837  -1.011  18.795  0.00  0.00    +0.000 A 
ATOM     29  N   UNL     1      35.595  -0.685  19.147  0.00  0.00    +0.000 NA
ATOM     30  N   UNL     1      34.853  -0.710  18.062  0.00  0.00    +0.000 NA
ATOM     31  C   UNL     1      35.645  -1.054  17.022  0.00  0.00    +0.000 A 
ENDBRANCH  24  27
ENDBRANCH  17  18
ENDBRANCH   1  17
TORSDOF 7
ENDMDL
MODEL 4
REMARK VINA RESULT:      -7.6      2.880      8.512
REMARK  Name = 
REMARK  7 active torsions:
REMARK  status: ('A' for Active; 'I' for Inactive)
REMARK    1  A    between atoms: C_3  and  C_4
REMARK    2  A    between atoms: C_4  and  C_5
REMARK    3  A    between atoms: N_13  and  C_14
REMARK    4  A    between atoms: C_14  and  C_15
REMARK    5  A    between atoms: C_15  and  C_16
REMARK    6  A    between atoms: C_16  and  C_17
REMARK    7  A    between atoms: C_23  and  N_24
REMARK                            x       y       z     vdW  Elec       q    Type
REMARK                         _______ _______ _______ _____ _____    ______ ____
ROOT
ATOM      1  C   UNL     1      38.864   5.131  16.580  0.00  0.00    +0.000 C 
ENDROOT
BRANCH   1   2
ATOM      2  C   UNL     1      38.994   5.258  15.239  0.00  0.00    +0.000 C 
BRANCH   2   8
ATOM      3  C   UNL     1      34.967   3.235  15.313  0.00  0.00    +0.000 C 
ATOM      4  C   UNL     1      36.420   3.085  14.867  0.00  0.00    +0.000 C 
ATOM      5  C   UNL     1      36.924   1.842  14.993  0.00  0.00    +0.000 C 
ATOM      6  C   UNL     1      38.320   1.662  14.575  0.00  0.00    +0.000 C 
ATOM      7  C   UNL     1      39.133   2.888  14.773  0.00  0.00    +0.000 C 
ATOM      8  N   UNL     1      38.564   4.116  14.408  0.00  0.00    +0.000 NA
ATOM      9  C   UNL     1      37.157   4.235  14.296  0.00  0.00    +0.000 C 
BRANCH   5  10
ATOM     10  C   UNL     1      35.998   0.850  15.528  0.00  0.00    +0.000 C 
BRANCH  10  11
ATOM     11  C   UNL     1      36.296   0.076  16.698  0.00  0.00    +0.000 A 
ATOM     12  C   UNL     1      35.687   0.501  17.897  0.00  0.00    +0.000 A 
ATOM     13  C   UNL     1      35.846  -0.083  19.105  0.00  0.00    +0.000 A 
ATOM     14  C   UNL     1      36.673  -1.198  19.196  0.00  0.00    +0.000 A 
ATOM     15  C   UNL     1      37.288  -1.659  18.073  0.00  0.00    +0.000 A 
ATOM     16  C   UNL     1      37.119  -1.041  16.811  0.00  0.00    +0.000 A 
ENDBRANCH  10  11
ENDBRANCH   5  10
ENDBRANCH   2   8
ENDBRANCH   1   2
BRANCH   1  17
ATOM     17  C   UNL     1      38.745   5.005  17.910  0.00  0.00    +0.000 C 
BRANCH  17  18
ATOM     18  C   UNL     1      39.203   6.125  18.802  0.00  0.00    +0.000 A 
ATOM     19  C   UNL     1      40.283   6.054  19.667  0.00  0.00    +0.000 A 
ATOM     20  N   UNL     1      40.349   7.170  20.378  0.00  0.00    +0.000 NA
ATOM     21  C   UNL     1      39.348   7.970  20.007  0.00  0.00    +0.000 A 
ATOM     22  C   UNL     1      39.002   9.250  20.404  0.00  0.00    +0.000 A 
ATOM     23  C   UNL     1      37.918   9.902  19.795  0.00  0.00    +0.000 A 
ATOM     24  C   UNL     1      37.190   9.276  18.799  0.00  0.00    +0.000 A 
ATOM     25  C   UNL     1      37.529   8.011  18.418  0.00  0.00    +0.000 A 
ATOM     26  C   UNL     1      38.616   7.336  19.017  0.00  0.00    +0.000 A 
BRANCH  24  27
ATOM     27  N   UNL     1      36.116   9.965  18.136  0.00  0.00    +0.000 N 
ATOM     28  C   UNL     1      34.884   9.576  17.859  0.00  0.00    +0.000 A 
ATOM     29  N   UNL     1      34.206  10.544  17.246  0.00  0.00    +0.000 NA
ATOM     30  N   UNL     1      35.009  11.578  17.123  0.00  0.00    +0.000 NA
ATOM     31  C   UNL     1      36.201  11.247  17.667  0.00  0.00    +0.000 A 
ENDBRANCH  24  27
ENDBRANCH  17  18
ENDBRANCH   1  17
TORSDOF 7
ENDMDL
MODEL 5
REMARK VINA RESULT:      -7.1      4.641      7.057
REMARK  Name = 
REMARK  7 active torsions:
REMARK  status: ('A' for Active; 'I' for Inactive)
REMARK    1  A    between atoms: C_3  and  C_4
REMARK    2  A    between atoms: C_4  and  C_5
REMARK    3  A    between atoms: N_13  and  C_14
REMARK    4  A    between atoms: C_14  and  C_15
REMARK    5  A    between atoms: C_15  and  C_16
REMARK    6  A    between atoms: C_16  and  C_17
REMARK    7  A    between atoms: C_23  and  N_24
REMARK                            x       y       z     vdW  Elec       q    Type
REMARK                         _______ _______ _______ _____ _____    ______ ____
ROOT
ATOM      1  C   UNL     1      37.429   1.147  13.158  0.00  0.00    +0.000 C 
ENDROOT
BRANCH   1   2
ATOM      2  C   UNL     1      37.544   0.395  12.039  0.00  0.00    +0.000 C 
BRANCH   2   8
ATOM      3  C   UNL     1      39.798  -2.491  14.667  0.00  0.00    +0.000 C 
ATOM      4  C   UNL     1      39.930  -1.521  13.496  0.00  0.00    +0.000 C 
ATOM      5  C   UNL     1      41.079  -0.816  13.473  0.00  0.00    +0.000 C 
ATOM      6  C   UNL     1      41.239   0.129  12.360  0.00  0.00    +0.000 C 
ATOM      7  C   UNL     1      39.942   0.681  11.895  0.00  0.00    +0.000 C 
ATOM      8  N   UNL     1      38.863  -0.206  11.763  0.00  0.00    +0.000 NA
ATOM      9  C   UNL     1      38.875  -1.438  12.461  0.00  0.00    +0.000 C 
BRANCH   5  10
ATOM     10  C   UNL     1      42.000  -1.100  14.566  0.00  0.00    +0.000 C 
BRANCH  10  11
ATOM     11  C   UNL     1      43.417  -1.213  14.366  0.00  0.00    +0.000 A 
ATOM     12  C   UNL     1      44.215  -0.245  15.010  0.00  0.00    +0.000 A 
ATOM     13  C   UNL     1      45.561  -0.170  14.941  0.00  0.00    +0.000 A 
ATOM     14  C   UNL     1      46.238  -1.117  14.178  0.00  0.00    +0.000 A 
ATOM     15  C   UNL     1      45.524  -2.080  13.534  0.00  0.00    +0.000 A 
ATOM     16  C   UNL     1      44.112  -2.151  13.609  0.00  0.00    +0.000 A 
ENDBRANCH  10  11
ENDBRANCH   5  10
ENDBRANCH   2   8
ENDBRANCH   1   2
BRANCH   1  17
ATOM     17  C   UNL     1      37.311   1.901  14.262  0.00  0.00    +0.000 C 
BRANCH  17  18
ATOM     18  C   UNL     1      36.239   1.580  15.264  0.00  0.00    +0.000 A 
ATOM     19  C   UNL     1      35.155   2.395  15.550  0.00  0.00    +0.000 A 
ATOM     20  N   UNL     1      34.464   1.870  16.550  0.00  0.00    +0.000 NA
ATOM     21  C   UNL     1      35.057   0.737  16.929  0.00  0.00    +0.000 A 
ATOM     22  C   UNL     1      34.715  -0.203  17.885  0.00  0.00    +0.000 A 
ATOM     23  C   UNL     1      35.494  -1.361  18.039  0.00  0.00    +0.000 A 
ATOM     24  C   UNL     1      36.604  -1.572  17.241  0.00  0.00    +0.000 A 
ATOM     25  C   UNL     1      36.944  -0.639  16.306  0.00  0.00    +0.000 A 
ATOM     26  C   UNL     1      36.173   0.533  16.134  0.00  0.00    +0.000 A 
BRANCH  24  27
ATOM     27  N   UNL     1      37.369  -2.785  17.360  0.00  0.00    +0.000 N 
ATOM     28  C   UNL     1      37.200  -3.968  16.796  0.00  0.00    +0.000 A 
ATOM     29  N   UNL     1      38.160  -4.813  17.168  0.00  0.00    +0.000 NA
ATOM     30  N   UNL     1      38.963  -4.170  17.986  0.00  0.00    +0.000 NA
ATOM     31  C   UNL     1      38.497  -2.909  18.123  0.00  0.00    +0.000 A 
ENDBRANCH  24  27
ENDBRANCH  17  18
ENDBRANCH   1  17
TORSDOF 7
ENDMDL
MODEL 6
REMARK VINA RESULT:      -7.0      3.047      7.566
REMARK  Name = 
REMARK  7 active torsions:
REMARK  status: ('A' for Active; 'I' for Inactive)
REMARK    1  A    between atoms: C_3  and  C_4
REMARK    2  A    between atoms: C_4  and  C_5
REMARK    3  A    between atoms: N_13  and  C_14
REMARK    4  A    between atoms: C_14  and  C_15
REMARK    5  A    between atoms: C_15  and  C_16
REMARK    6  A    between atoms: C_16  and  C_17
REMARK    7  A    between atoms: C_23  and  N_24
REMARK                            x       y       z     vdW  Elec       q    Type
REMARK                         _______ _______ _______ _____ _____    ______ ____
ROOT
ATOM      1  C   UNL     1      36.677   3.438  16.288  0.00  0.00    +0.000 C 
ENDROOT
BRANCH   1   2
ATOM      2  C   UNL     1      35.390   3.086  16.065  0.00  0.00    +0.000 C 
BRANCH   2   8
ATOM      3  C   UNL     1      36.514  -0.400  18.691  0.00  0.00    +0.000 C 
ATOM      4  C   UNL     1      36.078   0.000  17.283  0.00  0.00    +0.000 C 
ATOM      5  C   UNL     1      36.662  -0.701  16.291  0.00  0.00    +0.000 C 
ATOM      6  C   UNL     1      36.267  -0.341  14.923  0.00  0.00    +0.000 C 
ATOM      7  C   UNL     1      35.907   1.093  14.796  0.00  0.00    +0.000 C 
ATOM      8  N   UNL     1      35.115   1.660  15.805  0.00  0.00    +0.000 NA
ATOM      9  C   UNL     1      35.051   1.046  17.079  0.00  0.00    +0.000 C 
BRANCH   5  10
ATOM     10  C   UNL     1      37.605  -1.723  16.728  0.00  0.00    +0.000 C 
BRANCH  10  11
ATOM     11  C   UNL     1      37.292  -3.123  16.691  0.00  0.00    +0.000 A 
ATOM     12  C   UNL     1      38.240  -3.988  17.275  0.00  0.00    +0.000 A 
ATOM     13  C   UNL     1      38.139  -5.333  17.334  0.00  0.00    +0.000 A 
ATOM     14  C   UNL     1      37.015  -5.937  16.779  0.00  0.00    +0.000 A 
ATOM     15  C   UNL     1      36.062  -5.155  16.201  0.00  0.00    +0.000 A 
ATOM     16  C   UNL     1      36.175  -3.746  16.142  0.00  0.00    +0.000 A 
ENDBRANCH  10  11
ENDBRANCH   5  10
ENDBRANCH   2   8
ENDBRANCH   1   2
BRANCH   1  17
ATOM     17  C   UNL     1      37.952   3.788  16.520  0.00  0.00    +0.000 C 
BRANCH  17  18
ATOM     18  C   UNL     1      38.908   3.903  15.365  0.00  0.00    +0.000 A 
ATOM     19  C   UNL     1      39.331   5.099  14.807  0.00  0.00    +0.000 A 
ATOM     20  N   UNL     1      40.082   4.845  13.747  0.00  0.00    +0.000 NA
ATOM     21  C   UNL     1      40.166   3.523  13.591  0.00  0.00    +0.000 A 
ATOM     22  C   UNL     1      40.857   2.749  12.676  0.00  0.00    +0.000 A 
ATOM     23  C   UNL     1      40.825   1.349  12.777  0.00  0.00    +0.000 A 
ATOM     24  C   UNL     1      40.106   0.734  13.786  0.00  0.00    +0.000 A 
ATOM     25  C   UNL     1      39.418   1.500  14.680  0.00  0.00    +0.000 A 
ATOM     26  C   UNL     1      39.437   2.911  14.597  0.00  0.00    +0.000 A 
BRANCH  24  27
ATOM     27  N   UNL     1      40.120  -0.697  13.924  0.00  0.00    +0.000 N 
ATOM     28  C   UNL     1      40.771  -1.475  14.772  0.00  0.00    +0.000 A 
ATOM     29  N   UNL     1      40.478  -2.757  14.562  0.00  0.00    +0.000 NA
ATOM     30  N   UNL     1      39.624  -2.814  13.564  0.00  0.00    +0.000 NA
ATOM     31  C   UNL     1      39.383  -1.550  13.149  0.00  0.00    +0.000 A 
ENDBRANCH  24  27
ENDBRANCH  17  18
ENDBRANCH   1  17
TORSDOF 7
ENDMDL
MODEL 7
REMARK VINA RESULT:      -7.0      2.923      4.968
REMARK  Name = 
REMARK  7 active torsions:
REMARK  status: ('A' for Active; 'I' for Inactive)
REMARK    1  A    between atoms: C_3  and  C_4
REMARK    2  A    between atoms: C_4  and  C_5
REMARK    3  A    between atoms: N_13  and  C_14
REMARK    4  A    between atoms: C_14  and  C_15
REMARK    5  A    between atoms: C_15  and  C_16
REMARK    6  A    between atoms: C_16  and  C_17
REMARK    7  A    between atoms: C_23  and  N_24
REMARK                            x       y       z     vdW  Elec       q    Type
REMARK                         _______ _______ _______ _____ _____    ______ ____
ROOT
ATOM      1  C   UNL     1      34.395   9.249  14.931  0.00  0.00    +0.000 C 
ENDROOT
BRANCH   1   2
ATOM      2  C   UNL     1      34.816  10.377  15.548  0.00  0.00    +0.000 C 
BRANCH   2   8
ATOM      3  C   UNL     1      38.355   7.704  14.742  0.00  0.00    +0.000 C 
ATOM      4  C   UNL     1      37.667   8.563  15.801  0.00  0.00    +0.000 C 
ATOM      5  C   UNL     1      37.714   8.063  17.051  0.00  0.00    +0.000 C 
ATOM      6  C   UNL     1      37.061   8.863  18.095  0.00  0.00    +0.000 C 
ATOM      7  C   UNL     1      35.906   9.636  17.577  0.00  0.00    +0.000 C 
ATOM      8  N   UNL     1      36.055  10.288  16.344  0.00  0.00    +0.000 NA
ATOM      9  C   UNL     1      37.059   9.864  15.441  0.00  0.00    +0.000 C 
BRANCH   5  10
ATOM     10  C   UNL     1      38.414   6.791  17.182  0.00  0.00    +0.000 C 
BRANCH  10  11
ATOM     11  C   UNL     1      39.658   6.668  17.887  0.00  0.00    +0.000 A 
ATOM     12  C   UNL     1      39.567   6.500  19.284  0.00  0.00    +0.000 A 
ATOM     13  C   UNL     1      40.615   6.377  20.127  0.00  0.00    +0.000 A 
ATOM     14  C   UNL     1      41.900   6.415  19.594  0.00  0.00    +0.000 A 
ATOM     15  C   UNL     1      42.054   6.573  18.251  0.00  0.00    +0.000 A 
ATOM     16  C   UNL     1      40.951   6.703  17.374  0.00  0.00    +0.000 A 
ENDBRANCH  10  11
ENDBRANCH   5  10
ENDBRANCH   2   8
ENDBRANCH   1   2
BRANCH   1  17
ATOM     17  C   UNL     1      33.976   8.135  14.310  0.00  0.00    +0.000 C 
BRANCH  17  18
ATOM     18  C   UNL     1      34.891   7.442  13.340  0.00  0.00    +0.000 A 
ATOM     19  C   UNL     1      35.303   7.971  12.127  0.00  0.00    +0.000 A 
ATOM     20  N   UNL     1      36.014   7.066  11.473  0.00  0.00    +0.000 NA
ATOM     21  C   UNL     1      36.082   5.960  12.216  0.00  0.00    +0.000 A 
ATOM     22  C   UNL     1      36.735   4.757  12.013  0.00  0.00    +0.000 A 
ATOM     23  C   UNL     1      36.696   3.763  13.004  0.00  0.00    +0.000 A 
ATOM     24  C   UNL     1      36.009   3.976  14.186  0.00  0.00    +0.000 A 
ATOM     25  C   UNL     1      35.359   5.160  14.378  0.00  0.00    +0.000 A 
ATOM     26  C   UNL     1      35.386   6.173  13.394  0.00  0.00    +0.000 A 
BRANCH  24  27
ATOM     27  N   UNL     1      36.017   2.981  15.225  0.00  0.00    +0.000 N 
ATOM     28  C   UNL     1      36.992   2.204  15.666  0.00  0.00    +0.000 A 
ATOM     29  N   UNL     1      36.569   1.434  16.666  0.00  0.00    +0.000 NA
ATOM     30  N   UNL     1      35.302   1.713  16.878  0.00  0.00    +0.000 NA
ATOM     31  C   UNL     1      34.933   2.671  15.998  0.00  0.00    +0.000 A 
ENDBRANCH  24  27
ENDBRANCH  17  18
ENDBRANCH   1  17
TORSDOF 7
ENDMDL
MODEL 8
REMARK VINA RESULT:      -7.0      3.040      6.214
REMARK  Name = 
REMARK  7 active torsions:
REMARK  status: ('A' for Active; 'I' for Inactive)
REMARK    1  A    between atoms: C_3  and  C_4
REMARK    2  A    between atoms: C_4  and  C_5
REMARK    3  A    between atoms: N_13  and  C_14
REMARK    4  A    between atoms: C_14  and  C_15
REMARK    5  A    between atoms: C_15  and  C_16
REMARK    6  A    between atoms: C_16  and  C_17
REMARK    7  A    between atoms: C_23  and  N_24
REMARK                            x       y       z     vdW  Elec       q    Type
REMARK                         _______ _______ _______ _____ _____    ______ ____
ROOT
ATOM      1  C   UNL     1      39.515  -2.407  14.155  0.00  0.00    +0.000 C 
ENDROOT
BRANCH   1   2
ATOM      2  C   UNL     1      39.089  -2.522  12.875  0.00  0.00    +0.000 C 
BRANCH   2   8
ATOM      3  C   UNL     1      42.018   0.899  13.077  0.00  0.00    +0.000 C 
ATOM      4  C   UNL     1      40.634   0.481  12.585  0.00  0.00    +0.000 C 
ATOM      5  C   UNL     1      39.685   1.431  12.694  0.00  0.00    +0.000 C 
ATOM      6  C   UNL     1      38.340   1.062  12.232  0.00  0.00    +0.000 C 
ATOM      7  C   UNL     1      38.059  -0.384  12.405  0.00  0.00    +0.000 C 
ATOM      8  N   UNL     1      39.070  -1.293  12.059  0.00  0.00    +0.000 NA
ATOM      9  C   UNL     1      40.415  -0.858  11.992  0.00  0.00    +0.000 C 
BRANCH   5  10
ATOM     10  C   UNL     1      40.139   2.697  13.258  0.00  0.00    +0.000 C 
BRANCH  10  11
ATOM     11  C   UNL     1      39.345   3.453  14.185  0.00  0.00    +0.000 A 
ATOM     12  C   UNL     1      39.084   4.793  13.832  0.00  0.00    +0.000 A 
ATOM     13  C   UNL     1      38.370   5.671  14.568  0.00  0.00    +0.000 A 
ATOM     14  C   UNL     1      37.838   5.239  15.779  0.00  0.00    +0.000 A 
ATOM     15  C   UNL     1      38.053   3.954  16.175  0.00  0.00    +0.000 A 
ATOM     16  C   UNL     1      38.804   3.040  15.399  0.00  0.00    +0.000 A 
ENDBRANCH  10  11
ENDBRANCH   5  10
ENDBRANCH   2   8
ENDBRANCH   1   2
BRANCH   1  17
ATOM     17  C   UNL     1      39.933  -2.303  15.425  0.00  0.00    +0.000 C 
BRANCH  17  18
ATOM     18  C   UNL     1      38.934  -2.405  16.543  0.00  0.00    +0.000 A 
ATOM     19  C   UNL     1      38.963  -3.363  17.543  0.00  0.00    +0.000 A 
ATOM     20  N   UNL     1      37.886  -3.237  18.303  0.00  0.00    +0.000 NA
ATOM     21  C   UNL     1      37.152  -2.226  17.836  0.00  0.00    +0.000 A 
ATOM     22  C   UNL     1      35.973  -1.662  18.289  0.00  0.00    +0.000 A 
ATOM     23  C   UNL     1      35.436  -0.541  17.635  0.00  0.00    +0.000 A 
ATOM     24  C   UNL     1      36.076   0.006  16.537  0.00  0.00    +0.000 A 
ATOM     25  C   UNL     1      37.233  -0.560  16.087  0.00  0.00    +0.000 A 
ATOM     26  C   UNL     1      37.791  -1.687  16.731  0.00  0.00    +0.000 A 
BRANCH  24  27
ATOM     27  N   UNL     1      35.557   1.187  15.902  0.00  0.00    +0.000 N 
ATOM     28  C   UNL     1      35.619   1.587  14.644  0.00  0.00    +0.000 A 
ATOM     29  N   UNL     1      34.981   2.744  14.481  0.00  0.00    +0.000 NA
ATOM     30  N   UNL     1      34.496   3.101  15.649  0.00  0.00    +0.000 NA
ATOM     31  C   UNL     1      34.838   2.153  16.550  0.00  0.00    +0.000 A 
ENDBRANCH  24  27
ENDBRANCH  17  18
ENDBRANCH   1  17
TORSDOF 7
ENDMDL
MODEL 9
REMARK VINA RESULT:      -6.9      4.689      8.274
REMARK  Name = 
REMARK  7 active torsions:
REMARK  status: ('A' for Active; 'I' for Inactive)
REMARK    1  A    between atoms: C_3  and  C_4
REMARK    2  A    between atoms: C_4  and  C_5
REMARK    3  A    between atoms: N_13  and  C_14
REMARK    4  A    between atoms: C_14  and  C_15
REMARK    5  A    between atoms: C_15  and  C_16
REMARK    6  A    between atoms: C_16  and  C_17
REMARK    7  A    between atoms: C_23  and  N_24
REMARK                            x       y       z     vdW  Elec       q    Type
REMARK                         _______ _______ _______ _____ _____    ______ ____
ROOT
ATOM      1  C   UNL     1      38.811  -2.919  15.224  0.00  0.00    +0.000 C 
ENDROOT
BRANCH   1   2
ATOM      2  C   UNL     1      38.353  -2.681  13.973  0.00  0.00    +0.000 C 
BRANCH   2   8
ATOM      3  C   UNL     1      42.232  -3.249  11.749  0.00  0.00    +0.000 C 
ATOM      4  C   UNL     1      41.269  -2.207  12.312  0.00  0.00    +0.000 C 
ATOM      5  C   UNL     1      41.861  -1.120  12.846  0.00  0.00    +0.000 C 
ATOM      6  C   UNL     1      40.964  -0.097  13.399  0.00  0.00    +0.000 C 
ATOM      7  C   UNL     1      39.706  -0.676  13.933  0.00  0.00    +0.000 C 
ATOM      8  N   UNL     1      39.069  -1.668  13.174  0.00  0.00    +0.000 NA
ATOM      9  C   UNL     1      39.804  -2.396  12.207  0.00  0.00    +0.000 C 
BRANCH   5  10
ATOM     10  C   UNL     1      43.318  -1.121  12.792  0.00  0.00    +0.000 C 
BRANCH  10  11
ATOM     11  C   UNL     1      44.129  -1.306  13.961  0.00  0.00    +0.000 A 
ATOM     12  C   UNL     1      44.248  -0.193  14.818  0.00  0.00    +0.000 A 
ATOM     13  C   UNL     1      44.970  -0.158  15.959  0.00  0.00    +0.000 A 
ATOM     14  C   UNL     1      45.661  -1.304  16.339  0.00  0.00    +0.000 A 
ATOM     15  C   UNL     1      45.584  -2.414  15.555  0.00  0.00    +0.000 A 
ATOM     16  C   UNL     1      44.827  -2.443  14.359  0.00  0.00    +0.000 A 
ENDBRANCH  10  11
ENDBRANCH   5  10
ENDBRANCH   2   8
ENDBRANCH   1   2
BRANCH   1  17
ATOM     17  C   UNL     1      39.274  -3.149  16.463  0.00  0.00    +0.000 C 
BRANCH  17  18
ATOM     18  C   UNL     1      38.525  -2.600  17.645  0.00  0.00    +0.000 A 
ATOM     19  C   UNL     1      38.557  -3.140  18.920  0.00  0.00    +0.000 A 
ATOM     20  N   UNL     1      37.710  -2.483  19.696  0.00  0.00    +0.000 NA
ATOM     21  C   UNL     1      37.124  -1.527  18.972  0.00  0.00    +0.000 A 
ATOM     22  C   UNL     1      36.207  -0.549  19.314  0.00  0.00    +0.000 A 
ATOM     23  C   UNL     1      35.794   0.390  18.355  0.00  0.00    +0.000 A 
ATOM     24  C   UNL     1      36.297   0.346  17.067  0.00  0.00    +0.000 A 
ATOM     25  C   UNL     1      37.192  -0.626  16.731  0.00  0.00    +0.000 A 
ATOM     26  C   UNL     1      37.622  -1.581  17.681  0.00  0.00    +0.000 A 
BRANCH  24  27
ATOM     27  N   UNL     1      35.918   1.342  16.101  0.00  0.00    +0.000 N 
ATOM     28  C   UNL     1      34.780   1.997  15.940  0.00  0.00    +0.000 A 
ATOM     29  N   UNL     1      34.866   2.854  14.925  0.00  0.00    +0.000 NA
ATOM     30  N   UNL     1      36.075   2.755  14.419  0.00  0.00    +0.000 NA
ATOM     31  C   UNL     1      36.750   1.825  15.130  0.00  0.00    +0.000 A 
ENDBRANCH  24  27
ENDBRANCH  17  18
ENDBRANCH   1  17
TORSDOF 7
ENDMDL
MODEL 10
REMARK VINA RESULT:      -6.8      4.329      6.778
REMARK  Name = 
REMARK  7 active torsions:
REMARK  status: ('A' for Active; 'I' for Inactive)
REMARK    1  A    between atoms: C_3  and  C_4
REMARK    2  A    between atoms: C_4  and  C_5
REMARK    3  A    between atoms: N_13  and  C_14
REMARK    4  A    between atoms: C_14  and  C_15
REMARK    5  A    between atoms: C_15  and  C_16
REMARK    6  A    between atoms: C_16  and  C_17
REMARK    7  A    between atoms: C_23  and  N_24
REMARK                            x       y       z     vdW  Elec       q    Type
REMARK                         _______ _______ _______ _____ _____    ______ ____
ROOT
ATOM      1  C   UNL     1      39.852   8.305  13.417  0.00  0.00    +0.000 C 
ENDROOT
BRANCH   1   2
ATOM      2  C   UNL     1      41.077   7.766  13.219  0.00  0.00    +0.000 C 
BRANCH   2   8
ATOM      3  C   UNL     1      38.537   4.896  15.591  0.00  0.00    +0.000 C 
ATOM      4  C   UNL     1      39.910   5.560  15.511  0.00  0.00    +0.000 C 
ATOM      5  C   UNL     1      40.443   5.901  16.702  0.00  0.00    +0.000 C 
ATOM      6  C   UNL     1      41.762   6.544  16.662  0.00  0.00    +0.000 C 
ATOM      7  C   UNL     1      41.967   7.341  15.428  0.00  0.00    +0.000 C 
ATOM      8  N   UNL     1      41.549   6.782  14.211  0.00  0.00    +0.000 NA
ATOM      9  C   UNL     1      40.586   5.744  14.207  0.00  0.00    +0.000 C 
BRANCH   5  10
ATOM     10  C   UNL     1      39.622   5.574  17.862  0.00  0.00    +0.000 C 
BRANCH  10  11
ATOM     11  C   UNL     1      39.161   6.575  18.782  0.00  0.00    +0.000 A 
ATOM     12  C   UNL     1      38.022   7.305  18.387  0.00  0.00    +0.000 A 
ATOM     13  C   UNL     1      37.439   8.292  19.101  0.00  0.00    +0.000 A 
ATOM     14  C   UNL     1      37.992   8.632  20.332  0.00  0.00    +0.000 A 
ATOM     15  C   UNL     1      39.092   7.961  20.771  0.00  0.00    +0.000 A 
ATOM     16  C   UNL     1      39.698   6.929  20.016  0.00  0.00    +0.000 A 
ENDBRANCH  10  11
ENDBRANCH   5  10
ENDBRANCH   2   8
ENDBRANCH   1   2
BRANCH   1  17
ATOM     17  C   UNL     1      38.633   8.830  13.615  0.00  0.00    +0.000 C 
BRANCH  17  18
ATOM     18  C   UNL     1      37.418   7.960  13.449  0.00  0.00    +0.000 A 
ATOM     19  C   UNL     1      37.331   6.882  12.583  0.00  0.00    +0.000 A 
ATOM     20  N   UNL     1      36.098   6.401  12.604  0.00  0.00    +0.000 NA
ATOM     21  C   UNL     1      35.373   7.128  13.456  0.00  0.00    +0.000 A 
ATOM     22  C   UNL     1      34.057   7.014  13.870  0.00  0.00    +0.000 A 
ATOM     23  C   UNL     1      33.552   7.888  14.846  0.00  0.00    +0.000 A 
ATOM     24  C   UNL     1      34.359   8.867  15.399  0.00  0.00    +0.000 A 
ATOM     25  C   UNL     1      35.652   8.982  14.980  0.00  0.00    +0.000 A 
ATOM     26  C   UNL     1      36.181   8.112  14.000  0.00  0.00    +0.000 A 
BRANCH  24  27
ATOM     27  N   UNL     1      33.859   9.725  16.438  0.00  0.00    +0.000 N 
ATOM     28  C   UNL     1      34.128  10.989  16.715  0.00  0.00    +0.000 A 
ATOM     29  N   UNL     1      33.420  11.407  17.763  0.00  0.00    +0.000 NA
ATOM     30  N   UNL     1      32.681  10.400  18.173  0.00  0.00    +0.000 NA
ATOM     31  C   UNL     1      32.932   9.343  17.368  0.00  0.00    +0.000 A 
ENDBRANCH  24  27
ENDBRANCH  17  18
ENDBRANCH   1  17
TORSDOF 7
ENDMDL
