MODEL 1
REMARK VINA RESULT:      -6.5      0.000      0.000
REMARK  Name = 
REMARK  3 active torsions:
REMARK  status: ('A' for Active; 'I' for Inactive)
REMARK    1  A    between atoms: C_2  and  C_4
REMARK    2  A    between atoms: C_8  and  C_9
REMARK    3  A    between atoms: N_11  and  C_12
REMARK                            x       y       z     vdW  Elec       q    Type
REMARK                         _______ _______ _______ _____ _____    ______ ____
ROOT
ATOM      1  C   UNL     1      17.634   9.559  39.126  0.00  0.00    +0.000 A 
ATOM      2  C   UNL     1      16.363   9.949  39.532  0.00  0.00    +0.000 A 
ATOM      3  C   UNL     1      15.768   9.534  40.831  0.00  0.00    +0.000 C 
ATOM      4  N   UNL     1      15.825  10.727  38.564  0.00  0.00    +0.000 NA
ATOM      5  C   UNL     1      16.676  10.871  37.540  0.00  0.00    +0.000 A 
ATOM      6  C   UNL     1      17.797  10.147  37.888  0.00  0.00    +0.000 A 
ATOM      7  C   UNL     1      19.032   9.994  37.074  0.00  0.00    +0.000 C 
ENDROOT
BRANCH   1   9
ATOM      8  C   UNL     1      18.555   7.258  39.650  0.00  0.00    +0.000 C 
ATOM      9  C   UNL     1      18.572   8.715  39.858  0.00  0.00    +0.000 C 
ATOM     10  O   UNL     1      19.397   9.207  40.666  0.00  0.00    +0.000 OA
ENDBRANCH   1   9
BRANCH   5  11
ATOM     11  C   UNL     1      16.489  11.630  36.295  0.00  0.00    +0.000 C 
ATOM     12  O   UNL     1      17.046  12.715  36.082  0.00  0.00    +0.000 OA
ATOM     13  N   UNL     1      15.637  11.107  35.287  0.00  0.00    +0.000 NA
BRANCH  13  14
ATOM     14  C   UNL     1      15.383  11.739  34.060  0.00  0.00    +0.000 A 
ATOM     15  C   UNL     1      14.430  12.696  33.912  0.00  0.00    +0.000 A 
ATOM     16  C   UNL     1      14.201  13.300  32.702  0.00  0.00    +0.000 A 
ATOM     17  C   UNL     1      14.962  12.921  31.602  0.00  0.00    +0.000 A 
ATOM     18  C   UNL     1      15.932  11.949  31.741  0.00  0.00    +0.000 A 
ATOM     19  C   UNL     1      16.145  11.356  32.969  0.00  0.00    +0.000 A 
ATOM     20 CL   UNL     1      17.389  10.117  33.130  0.00  0.00    +0.000 Cl
ENDBRANCH  13  14
ENDBRANCH   5  11
TORSDOF 3
ENDMDL
MODEL 2
REMARK VINA RESULT:      -6.1     28.908     31.379
REMARK  Name = 
REMARK  3 active torsions:
REMARK  status: ('A' for Active; 'I' for Inactive)
REMARK    1  A    between atoms: C_2  and  C_4
REMARK    2  A    between atoms: C_8  and  C_9
REMARK    3  A    between atoms: N_11  and  C_12
REMARK                            x       y       z     vdW  Elec       q    Type
REMARK                         _______ _______ _______ _____ _____    ______ ____
ROOT
ATOM      1  C   UNL     1      27.986  23.245  12.730  0.00  0.00    +0.000 A 
ATOM      2  C   UNL     1      28.741  23.979  13.637  0.00  0.00    +0.000 A 
ATOM      3  C   UNL     1      28.134  24.923  14.615  0.00  0.00    +0.000 C 
ATOM      4  N   UNL     1      30.046  23.674  13.453  0.00  0.00    +0.000 NA
ATOM      5  C   UNL     1      30.192  22.776  12.471  0.00  0.00    +0.000 A 
ATOM      6  C   UNL     1      28.915  22.510  12.022  0.00  0.00    +0.000 A 
ATOM      7  C   UNL     1      28.545  21.569  10.932  0.00  0.00    +0.000 C 
ENDROOT
BRANCH   1   9
ATOM      8  C   UNL     1      25.918  24.188  11.613  0.00  0.00    +0.000 C 
ATOM      9  C   UNL     1      26.536  23.261  12.575  0.00  0.00    +0.000 C 
ATOM     10  O   UNL     1      25.800  22.498  13.245  0.00  0.00    +0.000 OA
ENDBRANCH   1   9
BRANCH   5  11
ATOM     11  C   UNL     1      31.432  22.178  11.954  0.00  0.00    +0.000 C 
ATOM     12  O   UNL     1      32.007  21.237  12.516  0.00  0.00    +0.000 OA
ATOM     13  N   UNL     1      32.003  22.694  10.760  0.00  0.00    +0.000 NA
BRANCH  13  14
ATOM     14  C   UNL     1      33.181  22.206  10.172  0.00  0.00    +0.000 A 
ATOM     15  C   UNL     1      34.417  22.629  10.546  0.00  0.00    +0.000 A 
ATOM     16  C   UNL     1      35.552  22.137   9.956  0.00  0.00    +0.000 A 
ATOM     17  C   UNL     1      35.433  21.184   8.951  0.00  0.00    +0.000 A 
ATOM     18  C   UNL     1      34.183  20.748   8.563  0.00  0.00    +0.000 A 
ATOM     19  C   UNL     1      33.054  21.256   9.172  0.00  0.00    +0.000 A 
ATOM     20 CL   UNL     1      31.463  20.689   8.666  0.00  0.00    +0.000 Cl
ENDBRANCH  13  14
ENDBRANCH   5  11
TORSDOF 3
ENDMDL
MODEL 3
REMARK VINA RESULT:      -6.0     21.842     23.001
REMARK  Name = 
REMARK  3 active torsions:
REMARK  status: ('A' for Active; 'I' for Inactive)
REMARK    1  A    between atoms: C_2  and  C_4
REMARK    2  A    between atoms: C_8  and  C_9
REMARK    3  A    between atoms: N_11  and  C_12
REMARK                            x       y       z     vdW  Elec       q    Type
REMARK                         _______ _______ _______ _____ _____    ______ ____
ROOT
ATOM      1  C   UNL     1      19.073  -7.219  26.255  0.00  0.00    +0.000 A 
ATOM      2  C   UNL     1      19.476  -5.902  26.068  0.00  0.00    +0.000 A 
ATOM      3  C   UNL     1      18.733  -4.742  26.631  0.00  0.00    +0.000 C 
ATOM      4  N   UNL     1      20.603  -5.903  25.318  0.00  0.00    +0.000 NA
ATOM      5  C   UNL     1      20.965  -7.152  25.002  0.00  0.00    +0.000 A 
ATOM      6  C   UNL     1      20.016  -7.969  25.582  0.00  0.00    +0.000 A 
ATOM      7  C   UNL     1      19.977  -9.453  25.518  0.00  0.00    +0.000 C 
ENDROOT
BRANCH   1   9
ATOM      8  C   UNL     1      16.587  -7.698  26.350  0.00  0.00    +0.000 C 
ATOM      9  C   UNL     1      17.908  -7.686  26.999  0.00  0.00    +0.000 C 
ATOM     10  O   UNL     1      18.009  -8.080  28.186  0.00  0.00    +0.000 OA
ENDBRANCH   1   9
BRANCH   5  11
ATOM     11  C   UNL     1      22.119  -7.597  24.208  0.00  0.00    +0.000 C 
ATOM     12  O   UNL     1      22.014  -8.006  23.045  0.00  0.00    +0.000 OA
ATOM     13  N   UNL     1      23.415  -7.559  24.788  0.00  0.00    +0.000 NA
BRANCH  13  14
ATOM     14  C   UNL     1      24.588  -7.957  24.129  0.00  0.00    +0.000 A 
ATOM     15  C   UNL     1      25.357  -7.094  23.415  0.00  0.00    +0.000 A 
ATOM     16  C   UNL     1      26.500  -7.507  22.781  0.00  0.00    +0.000 A 
ATOM     17  C   UNL     1      26.879  -8.842  22.871  0.00  0.00    +0.000 A 
ATOM     18  C   UNL     1      26.105  -9.727  23.594  0.00  0.00    +0.000 A 
ATOM     19  C   UNL     1      24.959  -9.288  24.225  0.00  0.00    +0.000 A 
ATOM     20 CL   UNL     1      23.982 -10.432  25.145  0.00  0.00    +0.000 Cl
ENDBRANCH  13  14
ENDBRANCH   5  11
TORSDOF 3
ENDMDL
MODEL 4
REMARK VINA RESULT:      -5.6     21.638     24.721
REMARK  Name = 
REMARK  3 active torsions:
REMARK  status: ('A' for Active; 'I' for Inactive)
REMARK    1  A    between atoms: C_2  and  C_4
REMARK    2  A    between atoms: C_8  and  C_9
REMARK    3  A    between atoms: N_11  and  C_12
REMARK                            x       y       z     vdW  Elec       q    Type
REMARK                         _______ _______ _______ _____ _____    ______ ____
ROOT
ATOM      1  C   UNL     1      28.724  27.511  20.140  0.00  0.00    +0.000 A 
ATOM      2  C   UNL     1      29.690  26.722  19.528  0.00  0.00    +0.000 A 
ATOM      3  C   UNL     1      30.427  27.149  18.308  0.00  0.00    +0.000 C 
ATOM      4  N   UNL     1      29.805  25.569  20.227  0.00  0.00    +0.000 NA
ATOM      5  C   UNL     1      28.966  25.557  21.270  0.00  0.00    +0.000 A 
ATOM      6  C   UNL     1      28.294  26.760  21.216  0.00  0.00    +0.000 A 
ATOM      7  C   UNL     1      27.248  27.226  22.164  0.00  0.00    +0.000 C 
ENDROOT
BRANCH   1   9
ATOM      8  C   UNL     1      28.945  30.032  20.259  0.00  0.00    +0.000 C 
ATOM      9  C   UNL     1      28.275  28.835  19.724  0.00  0.00    +0.000 C 
ATOM     10  O   UNL     1      27.326  28.977  18.916  0.00  0.00    +0.000 OA
ENDBRANCH   1   9
BRANCH   5  11
ATOM     11  C   UNL     1      28.772  24.503  22.277  0.00  0.00    +0.000 C 
ATOM     12  O   UNL     1      28.290  23.397  22.003  0.00  0.00    +0.000 OA
ATOM     13  N   UNL     1      29.153  24.753  23.622  0.00  0.00    +0.000 NA
BRANCH  13  14
ATOM     14  C   UNL     1      29.017  23.826  24.667  0.00  0.00    +0.000 A 
ATOM     15  C   UNL     1      27.826  23.563  25.264  0.00  0.00    +0.000 A 
ATOM     16  C   UNL     1      27.719  22.653  26.284  0.00  0.00    +0.000 A 
ATOM     17  C   UNL     1      28.859  21.985  26.716  0.00  0.00    +0.000 A 
ATOM     18  C   UNL     1      30.075  22.244  26.117  0.00  0.00    +0.000 A 
ATOM     19  C   UNL     1      30.158  23.164  25.091  0.00  0.00    +0.000 A 
ATOM     20 CL   UNL     1      31.718  23.484  24.335  0.00  0.00    +0.000 Cl
ENDBRANCH  13  14
ENDBRANCH   5  11
TORSDOF 3
ENDMDL
MODEL 5
REMARK VINA RESULT:      -5.6     18.545     19.829
REMARK  Name = 
REMARK  3 active torsions:
REMARK  status: ('A' for Active; 'I' for Inactive)
REMARK    1  A    between atoms: C_2  and  C_4
REMARK    2  A    between atoms: C_8  and  C_9
REMARK    3  A    between atoms: N_11  and  C_12
REMARK                            x       y       z     vdW  Elec       q    Type
REMARK                         _______ _______ _______ _____ _____    ______ ____
ROOT
ATOM      1  C   UNL     1      31.538  22.435  30.313  0.00  0.00    +0.000 A 
ATOM      2  C   UNL     1      30.350  22.243  31.008  0.00  0.00    +0.000 A 
ATOM      3  C   UNL     1      30.307  21.749  32.411  0.00  0.00    +0.000 C 
ATOM      4  N   UNL     1      29.321  22.577  30.196  0.00  0.00    +0.000 NA
ATOM      5  C   UNL     1      29.768  22.980  29.000  0.00  0.00    +0.000 A 
ATOM      6  C   UNL     1      31.142  22.892  29.071  0.00  0.00    +0.000 A 
ATOM      7  C   UNL     1      32.102  23.231  27.988  0.00  0.00    +0.000 C 
ENDROOT
BRANCH   1   9
ATOM      8  C   UNL     1      33.587  23.256  31.554  0.00  0.00    +0.000 C 
ATOM      9  C   UNL     1      32.892  22.200  30.801  0.00  0.00    +0.000 C 
ATOM     10  O   UNL     1      33.480  21.112  30.592  0.00  0.00    +0.000 OA
ENDBRANCH   1   9
BRANCH   5  11
ATOM     11  C   UNL     1      28.990  23.427  27.835  0.00  0.00    +0.000 C 
ATOM     12  O   UNL     1      28.600  24.594  27.698  0.00  0.00    +0.000 OA
ATOM     13  N   UNL     1      28.666  22.490  26.818  0.00  0.00    +0.000 NA
BRANCH  13  14
ATOM     14  C   UNL     1      27.931  22.799  25.663  0.00  0.00    +0.000 A 
ATOM     15  C   UNL     1      26.573  22.839  25.646  0.00  0.00    +0.000 A 
ATOM     16  C   UNL     1      25.879  23.144  24.504  0.00  0.00    +0.000 A 
ATOM     17  C   UNL     1      26.582  23.418  23.337  0.00  0.00    +0.000 A 
ATOM     18  C   UNL     1      27.961  23.380  23.342  0.00  0.00    +0.000 A 
ATOM     19  C   UNL     1      28.640  23.071  24.504  0.00  0.00    +0.000 A 
ATOM     20 CL   UNL     1      30.403  23.027  24.495  0.00  0.00    +0.000 Cl
ENDBRANCH  13  14
ENDBRANCH   5  11
TORSDOF 3
ENDMDL
MODEL 6
REMARK VINA RESULT:      -5.5     18.049     19.843
REMARK  Name = 
REMARK  3 active torsions:
REMARK  status: ('A' for Active; 'I' for Inactive)
REMARK    1  A    between atoms: C_2  and  C_4
REMARK    2  A    between atoms: C_8  and  C_9
REMARK    3  A    between atoms: N_11  and  C_12
REMARK                            x       y       z     vdW  Elec       q    Type
REMARK                         _______ _______ _______ _____ _____    ______ ____
ROOT
ATOM      1  C   UNL     1      26.010  24.138  26.192  0.00  0.00    +0.000 A 
ATOM      2  C   UNL     1      25.262  24.630  27.255  0.00  0.00    +0.000 A 
ATOM      3  C   UNL     1      24.095  25.535  27.070  0.00  0.00    +0.000 C 
ATOM      4  N   UNL     1      25.784  24.146  28.406  0.00  0.00    +0.000 NA
ATOM      5  C   UNL     1      26.838  23.359  28.157  0.00  0.00    +0.000 A 
ATOM      6  C   UNL     1      26.979  23.354  26.785  0.00  0.00    +0.000 A 
ATOM      7  C   UNL     1      28.014  22.620  26.011  0.00  0.00    +0.000 C 
ENDROOT
BRANCH   1   9
ATOM      8  C   UNL     1      26.387  25.609  24.165  0.00  0.00    +0.000 C 
ATOM      9  C   UNL     1      25.803  24.402  24.773  0.00  0.00    +0.000 C 
ATOM     10  O   UNL     1      25.136  23.619  24.055  0.00  0.00    +0.000 OA
ENDBRANCH   1   9
BRANCH   5  11
ATOM     11  C   UNL     1      27.688  22.638  29.116  0.00  0.00    +0.000 C 
ATOM     12  O   UNL     1      27.338  21.584  29.661  0.00  0.00    +0.000 OA
ATOM     13  N   UNL     1      28.967  23.164  29.438  0.00  0.00    +0.000 NA
BRANCH  13  14
ATOM     14  C   UNL     1      29.865  22.567  30.337  0.00  0.00    +0.000 A 
ATOM     15  C   UNL     1      29.600  22.439  31.663  0.00  0.00    +0.000 A 
ATOM     16  C   UNL     1      30.493  21.851  32.520  0.00  0.00    +0.000 A 
ATOM     17  C   UNL     1      31.699  21.375  32.019  0.00  0.00    +0.000 A 
ATOM     18  C   UNL     1      31.979  21.500  30.673  0.00  0.00    +0.000 A 
ATOM     19  C   UNL     1      31.064  22.095  29.829  0.00  0.00    +0.000 A 
ATOM     20 CL   UNL     1      31.436  22.246  28.112  0.00  0.00    +0.000 Cl
ENDBRANCH  13  14
ENDBRANCH   5  11
TORSDOF 3
ENDMDL
MODEL 7
REMARK VINA RESULT:      -5.2     18.941     21.287
REMARK  Name = 
REMARK  3 active torsions:
REMARK  status: ('A' for Active; 'I' for Inactive)
REMARK    1  A    between atoms: C_2  and  C_4
REMARK    2  A    between atoms: C_8  and  C_9
REMARK    3  A    between atoms: N_11  and  C_12
REMARK                            x       y       z     vdW  Elec       q    Type
REMARK                         _______ _______ _______ _____ _____    ______ ____
ROOT
ATOM      1  C   UNL     1      28.320  24.028  24.058  0.00  0.00    +0.000 A 
ATOM      2  C   UNL     1      27.382  24.691  24.839  0.00  0.00    +0.000 A 
ATOM      3  C   UNL     1      26.424  25.684  24.281  0.00  0.00    +0.000 C 
ATOM      4  N   UNL     1      27.517  24.272  26.119  0.00  0.00    +0.000 NA
ATOM      5  C   UNL     1      28.497  23.366  26.222  0.00  0.00    +0.000 A 
ATOM      6  C   UNL     1      28.996  23.214  24.946  0.00  0.00    +0.000 A 
ATOM      7  C   UNL     1      30.104  22.312  24.536  0.00  0.00    +0.000 C 
ENDROOT
BRANCH   1   9
ATOM      8  C   UNL     1      29.429  25.227  22.122  0.00  0.00    +0.000 C 
ATOM      9  C   UNL     1      28.532  24.173  22.623  0.00  0.00    +0.000 C 
ATOM     10  O   UNL     1      27.964  23.414  21.801  0.00  0.00    +0.000 OA
ENDBRANCH   1   9
BRANCH   5  11
ATOM     11  C   UNL     1      28.968  22.662  27.424  0.00  0.00    +0.000 C 
ATOM     12  O   UNL     1      28.520  21.563  27.775  0.00  0.00    +0.000 OA
ATOM     13  N   UNL     1      29.980  23.257  28.223  0.00  0.00    +0.000 NA
BRANCH  13  14
ATOM     14  C   UNL     1      30.509  22.681  29.388  0.00  0.00    +0.000 A 
ATOM     15  C   UNL     1      31.681  21.995  29.401  0.00  0.00    +0.000 A 
ATOM     16  C   UNL     1      32.177  21.442  30.553  0.00  0.00    +0.000 A 
ATOM     17  C   UNL     1      31.461  21.588  31.736  0.00  0.00    +0.000 A 
ATOM     18  C   UNL     1      30.269  22.284  31.735  0.00  0.00    +0.000 A 
ATOM     19  C   UNL     1      29.790  22.833  30.562  0.00  0.00    +0.000 A 
ATOM     20 CL   UNL     1      28.266  23.719  30.578  0.00  0.00    +0.000 Cl
ENDBRANCH  13  14
ENDBRANCH   5  11
TORSDOF 3
ENDMDL
MODEL 8
REMARK VINA RESULT:      -5.2     21.687     23.986
REMARK  Name = 
REMARK  3 active torsions:
REMARK  status: ('A' for Active; 'I' for Inactive)
REMARK    1  A    between atoms: C_2  and  C_4
REMARK    2  A    between atoms: C_8  and  C_9
REMARK    3  A    between atoms: N_11  and  C_12
REMARK                            x       y       z     vdW  Elec       q    Type
REMARK                         _______ _______ _______ _____ _____    ______ ____
ROOT
ATOM      1  C   UNL     1      34.319  -2.840  35.441  0.00  0.00    +0.000 A 
ATOM      2  C   UNL     1      33.774  -1.883  34.593  0.00  0.00    +0.000 A 
ATOM      3  C   UNL     1      33.614  -0.456  34.983  0.00  0.00    +0.000 C 
ATOM      4  N   UNL     1      33.445  -2.484  33.426  0.00  0.00    +0.000 NA
ATOM      5  C   UNL     1      33.745  -3.788  33.460  0.00  0.00    +0.000 A 
ATOM      6  C   UNL     1      34.286  -4.010  34.709  0.00  0.00    +0.000 A 
ATOM      7  C   UNL     1      34.779  -5.310  35.235  0.00  0.00    +0.000 C 
ENDROOT
BRANCH   1   9
ATOM      8  C   UNL     1      33.912  -2.879  37.941  0.00  0.00    +0.000 C 
ATOM      9  C   UNL     1      34.809  -2.636  36.799  0.00  0.00    +0.000 C 
ATOM     10  O   UNL     1      35.985  -2.256  37.017  0.00  0.00    +0.000 OA
ENDBRANCH   1   9
BRANCH   5  11
ATOM     11  C   UNL     1      33.552  -4.799  32.410  0.00  0.00    +0.000 C 
ATOM     12  O   UNL     1      32.527  -5.486  32.322  0.00  0.00    +0.000 OA
ATOM     13  N   UNL     1      34.578  -5.004  31.449  0.00  0.00    +0.000 NA
BRANCH  13  14
ATOM     14  C   UNL     1      34.508  -5.937  30.403  0.00  0.00    +0.000 A 
ATOM     15  C   UNL     1      34.023  -5.625  29.173  0.00  0.00    +0.000 A 
ATOM     16  C   UNL     1      33.965  -6.555  28.168  0.00  0.00    +0.000 A 
ATOM     17  C   UNL     1      34.413  -7.848  28.415  0.00  0.00    +0.000 A 
ATOM     18  C   UNL     1      34.907  -8.176  29.661  0.00  0.00    +0.000 A 
ATOM     19  C   UNL     1      34.957  -7.222  30.658  0.00  0.00    +0.000 A 
ATOM     20 CL   UNL     1      35.591  -7.657  32.245  0.00  0.00    +0.000 Cl
ENDBRANCH  13  14
ENDBRANCH   5  11
TORSDOF 3
ENDMDL
MODEL 9
REMARK VINA RESULT:      -5.2     19.136     20.258
REMARK  Name = 
REMARK  3 active torsions:
REMARK  status: ('A' for Active; 'I' for Inactive)
REMARK    1  A    between atoms: C_2  and  C_4
REMARK    2  A    between atoms: C_8  and  C_9
REMARK    3  A    between atoms: N_11  and  C_12
REMARK                            x       y       z     vdW  Elec       q    Type
REMARK                         _______ _______ _______ _____ _____    ______ ____
ROOT
ATOM      1  C   UNL     1      30.097  23.041  26.711  0.00  0.00    +0.000 A 
ATOM      2  C   UNL     1      30.117  23.139  25.325  0.00  0.00    +0.000 A 
ATOM      3  C   UNL     1      31.342  22.897  24.516  0.00  0.00    +0.000 C 
ATOM      4  N   UNL     1      28.876  23.476  24.903  0.00  0.00    +0.000 NA
ATOM      5  C   UNL     1      28.039  23.606  25.939  0.00  0.00    +0.000 A 
ATOM      6  C   UNL     1      28.795  23.337  27.060  0.00  0.00    +0.000 A 
ATOM      7  C   UNL     1      28.315  23.351  28.467  0.00  0.00    +0.000 C 
ENDROOT
BRANCH   1   9
ATOM      8  C   UNL     1      32.162  23.750  27.994  0.00  0.00    +0.000 C 
ATOM      9  C   UNL     1      31.213  22.702  27.586  0.00  0.00    +0.000 C 
ATOM     10  O   UNL     1      31.383  21.530  28.001  0.00  0.00    +0.000 OA
ENDBRANCH   1   9
BRANCH   5  11
ATOM     11  C   UNL     1      26.611  23.959  25.922  0.00  0.00    +0.000 C 
ATOM     12  O   UNL     1      25.722  23.140  25.661  0.00  0.00    +0.000 OA
ATOM     13  N   UNL     1      26.225  25.294  26.218  0.00  0.00    +0.000 NA
BRANCH  13  14
ATOM     14  C   UNL     1      24.898  25.748  26.234  0.00  0.00    +0.000 A 
ATOM     15  C   UNL     1      24.245  26.146  25.111  0.00  0.00    +0.000 A 
ATOM     16  C   UNL     1      22.947  26.586  25.153  0.00  0.00    +0.000 A 
ATOM     17  C   UNL     1      22.285  26.625  26.375  0.00  0.00    +0.000 A 
ATOM     18  C   UNL     1      22.938  26.223  27.522  0.00  0.00    +0.000 A 
ATOM     19  C   UNL     1      24.245  25.783  27.455  0.00  0.00    +0.000 A 
ATOM     20 CL   UNL     1      25.066  25.272  28.930  0.00  0.00    +0.000 Cl
ENDBRANCH  13  14
ENDBRANCH   5  11
TORSDOF 3
ENDMDL
MODEL 10
REMARK VINA RESULT:      -5.1     19.097     22.053
REMARK  Name = 
REMARK  3 active torsions:
REMARK  status: ('A' for Active; 'I' for Inactive)
REMARK    1  A    between atoms: C_2  and  C_4
REMARK    2  A    between atoms: C_8  and  C_9
REMARK    3  A    between atoms: N_11  and  C_12
REMARK                            x       y       z     vdW  Elec       q    Type
REMARK                         _______ _______ _______ _____ _____    ______ ____
ROOT
ATOM      1  C   UNL     1      27.617  26.343  22.488  0.00  0.00    +0.000 A 
ATOM      2  C   UNL     1      28.403  25.226  22.231  0.00  0.00    +0.000 A 
ATOM      3  C   UNL     1      29.272  25.109  21.029  0.00  0.00    +0.000 C 
ATOM      4  N   UNL     1      28.220  24.335  23.234  0.00  0.00    +0.000 NA
ATOM      5  C   UNL     1      27.355  24.807  24.140  0.00  0.00    +0.000 A 
ATOM      6  C   UNL     1      26.980  26.052  23.678  0.00  0.00    +0.000 A 
ATOM      7  C   UNL     1      26.028  26.983  24.337  0.00  0.00    +0.000 C 
ENDROOT
BRANCH   1   9
ATOM      8  C   UNL     1      28.358  28.707  21.963  0.00  0.00    +0.000 C 
ATOM      9  C   UNL     1      27.503  27.546  21.671  0.00  0.00    +0.000 C 
ATOM     10  O   UNL     1      26.688  27.612  20.720  0.00  0.00    +0.000 OA
ENDBRANCH   1   9
BRANCH   5  11
ATOM     11  C   UNL     1      26.881  24.164  25.374  0.00  0.00    +0.000 C 
ATOM     12  O   UNL     1      25.951  23.348  25.389  0.00  0.00    +0.000 OA
ATOM     13  N   UNL     1      27.509  24.485  26.607  0.00  0.00    +0.000 NA
BRANCH  13  14
ATOM     14  C   UNL     1      27.144  23.937  27.846  0.00  0.00    +0.000 A 
ATOM     15  C   UNL     1      26.210  24.504  28.653  0.00  0.00    +0.000 A 
ATOM     16  C   UNL     1      25.871  23.948  29.860  0.00  0.00    +0.000 A 
ATOM     17  C   UNL     1      26.501  22.778  30.266  0.00  0.00    +0.000 A 
ATOM     18  C   UNL     1      27.453  22.194  29.455  0.00  0.00    +0.000 A 
ATOM     19  C   UNL     1      27.776  22.771  28.243  0.00  0.00    +0.000 A 
ATOM     20 CL   UNL     1      28.994  22.011  27.218  0.00  0.00    +0.000 Cl
ENDBRANCH  13  14
ENDBRANCH   5  11
TORSDOF 3
ENDMDL
