MODEL 1
REMARK VINA RESULT:      -5.4      0.000      0.000
REMARK  Name = 
REMARK  5 active torsions:
REMARK  status: ('A' for Active; 'I' for Inactive)
REMARK    1  A    between atoms: C_2  and  N_3
REMARK    2  A    between atoms: C_2  and  C_12
REMARK    3  A    between atoms: N_3  and  N_4
REMARK    4  A    between atoms: C_5  and  O_7
REMARK    5  A    between atoms: O_7  and  C_8
REMARK                            x       y       z     vdW  Elec       q    Type
REMARK                         _______ _______ _______ _____ _____    ______ ____
ROOT
ATOM      1  C   UNL     1      18.220  -9.075  28.788  0.00  0.00    +0.000 C 
ATOM      2  C   UNL     1      17.791  -8.642  27.614  0.00  0.00    +0.000 C 
ENDROOT
BRANCH   2   3
ATOM      3  C   UNL     1      18.480  -7.505  27.028  0.00  0.00    +0.000 A 
ATOM      4  C   UNL     1      18.044  -6.229  27.250  0.00  0.00    +0.000 A 
ATOM      5  C   UNL     1      18.672  -5.114  26.703  0.00  0.00    +0.000 A 
ATOM      6  C   UNL     1      19.779  -5.292  25.903  0.00  0.00    +0.000 A 
ATOM      7  C   UNL     1      20.234  -6.576  25.667  0.00  0.00    +0.000 A 
ATOM      8  C   UNL     1      19.594  -7.672  26.223  0.00  0.00    +0.000 A 
ATOM      9 CL   UNL     1      20.151  -9.302  25.932  0.00  0.00    +0.000 Cl
ENDBRANCH   2   3
BRANCH   2  10
ATOM     10  N   UNL     1      16.713  -9.304  27.026  0.00  0.00    +0.000 NA
BRANCH  10  11
ATOM     11  N   UNL     1      15.513  -8.833  26.591  0.00  0.00    +0.000 NA
ATOM     12  C   UNL     1      15.120  -8.623  25.249  0.00  0.00    +0.000 C 
ATOM     13  O   UNL     1      15.941  -8.888  24.346  0.00  0.00    +0.000 OA
BRANCH  12  14
ATOM     14  O   UNL     1      13.836  -8.126  24.936  0.00  0.00    +0.000 OA
BRANCH  14  15
ATOM     15  C   UNL     1      12.726  -8.973  25.169  0.00  0.00    +0.000 C 
ATOM     16  C   UNL     1      13.105 -10.365  24.773  0.00  0.00    +0.000 C 
ATOM     17  C   UNL     1      11.627  -8.520  24.199  0.00  0.00    +0.000 C 
ATOM     18  C   UNL     1      12.205  -8.881  26.571  0.00  0.00    +0.000 C 
ENDBRANCH  14  15
ENDBRANCH  12  14
ENDBRANCH  10  11
ENDBRANCH   2  10
TORSDOF 5
ENDMDL
MODEL 2
REMARK VINA RESULT:      -5.4     20.736     21.858
REMARK  Name = 
REMARK  5 active torsions:
REMARK  status: ('A' for Active; 'I' for Inactive)
REMARK    1  A    between atoms: C_2  and  N_3
REMARK    2  A    between atoms: C_2  and  C_12
REMARK    3  A    between atoms: N_3  and  N_4
REMARK    4  A    between atoms: C_5  and  O_7
REMARK    5  A    between atoms: O_7  and  C_8
REMARK                            x       y       z     vdW  Elec       q    Type
REMARK                         _______ _______ _______ _____ _____    ______ ____
ROOT
ATOM      1  C   UNL     1      19.698   9.970  39.932  0.00  0.00    +0.000 C 
ATOM      2  C   UNL     1      18.968   9.102  39.251  0.00  0.00    +0.000 C 
ENDROOT
BRANCH   2   3
ATOM      3  C   UNL     1      18.356   8.014  39.995  0.00  0.00    +0.000 A 
ATOM      4  C   UNL     1      18.995   6.814  40.136  0.00  0.00    +0.000 A 
ATOM      5  C   UNL     1      18.442   5.745  40.836  0.00  0.00    +0.000 A 
ATOM      6  C   UNL     1      17.201   5.892  41.415  0.00  0.00    +0.000 A 
ATOM      7  C   UNL     1      16.540   7.099  41.282  0.00  0.00    +0.000 A 
ATOM      8  C   UNL     1      17.110   8.151  40.581  0.00  0.00    +0.000 A 
ATOM      9 CL   UNL     1      16.288   9.681  40.399  0.00  0.00    +0.000 Cl
ENDBRANCH   2   3
BRANCH   2  10
ATOM     10  N   UNL     1      18.838   9.291  37.875  0.00  0.00    +0.000 NA
BRANCH  10  11
ATOM     11  N   UNL     1      18.190  10.258  37.170  0.00  0.00    +0.000 NA
ATOM     12  C   UNL     1      17.377  10.074  36.027  0.00  0.00    +0.000 C 
ATOM     13  O   UNL     1      17.220   8.912  35.597  0.00  0.00    +0.000 OA
BRANCH  12  14
ATOM     14  O   UNL     1      16.759  11.172  35.389  0.00  0.00    +0.000 OA
BRANCH  14  15
ATOM     15  C   UNL     1      15.816  11.922  36.131  0.00  0.00    +0.000 C 
ATOM     16  C   UNL     1      14.852  12.546  35.172  0.00  0.00    +0.000 C 
ATOM     17  C   UNL     1      16.595  13.069  36.786  0.00  0.00    +0.000 C 
ATOM     18  C   UNL     1      15.143  11.118  37.203  0.00  0.00    +0.000 C 
ENDBRANCH  14  15
ENDBRANCH  12  14
ENDBRANCH  10  11
ENDBRANCH   2  10
TORSDOF 5
ENDMDL
MODEL 3
REMARK VINA RESULT:      -5.0     21.455     22.440
REMARK  Name = 
REMARK  5 active torsions:
REMARK  status: ('A' for Active; 'I' for Inactive)
REMARK    1  A    between atoms: C_2  and  N_3
REMARK    2  A    between atoms: C_2  and  C_12
REMARK    3  A    between atoms: N_3  and  N_4
REMARK    4  A    between atoms: C_5  and  O_7
REMARK    5  A    between atoms: O_7  and  C_8
REMARK                            x       y       z     vdW  Elec       q    Type
REMARK                         _______ _______ _______ _____ _____    ______ ____
ROOT
ATOM      1  C   UNL     1      20.114   9.862  41.599  0.00  0.00    +0.000 C 
ATOM      2  C   UNL     1      19.312   9.635  40.571  0.00  0.00    +0.000 C 
ENDROOT
BRANCH   2   3
ATOM      3  C   UNL     1      18.039   8.990  40.847  0.00  0.00    +0.000 A 
ATOM      4  C   UNL     1      16.947   9.723  41.218  0.00  0.00    +0.000 A 
ATOM      5  C   UNL     1      15.712   9.144  41.496  0.00  0.00    +0.000 A 
ATOM      6  C   UNL     1      15.574   7.778  41.396  0.00  0.00    +0.000 A 
ATOM      7  C   UNL     1      16.668   7.020  41.022  0.00  0.00    +0.000 A 
ATOM      8  C   UNL     1      17.888   7.618  40.749  0.00  0.00    +0.000 A 
ATOM      9 CL   UNL     1      19.284   6.677  40.280  0.00  0.00    +0.000 Cl
ENDBRANCH   2   3
BRANCH   2  10
ATOM     10  N   UNL     1      19.743  10.027  39.304  0.00  0.00    +0.000 NA
BRANCH  10  11
ATOM     11  N   UNL     1      19.096  10.703  38.317  0.00  0.00    +0.000 NA
ATOM     12  C   UNL     1      18.324  10.146  37.271  0.00  0.00    +0.000 C 
ATOM     13  O   UNL     1      18.208   8.903  37.223  0.00  0.00    +0.000 OA
BRANCH  12  14
ATOM     14  O   UNL     1      17.702  10.968  36.307  0.00  0.00    +0.000 OA
BRANCH  14  15
ATOM     15  C   UNL     1      16.450  11.540  36.636  0.00  0.00    +0.000 C 
ATOM     16  C   UNL     1      15.591  11.529  35.411  0.00  0.00    +0.000 C 
ATOM     17  C   UNL     1      16.722  13.012  36.973  0.00  0.00    +0.000 C 
ATOM     18  C   UNL     1      15.799  10.884  37.817  0.00  0.00    +0.000 C 
ENDBRANCH  14  15
ENDBRANCH  12  14
ENDBRANCH  10  11
ENDBRANCH   2  10
TORSDOF 5
ENDMDL
MODEL 4
REMARK VINA RESULT:      -4.9      1.708      2.072
REMARK  Name = 
REMARK  5 active torsions:
REMARK  status: ('A' for Active; 'I' for Inactive)
REMARK    1  A    between atoms: C_2  and  N_3
REMARK    2  A    between atoms: C_2  and  C_12
REMARK    3  A    between atoms: N_3  and  N_4
REMARK    4  A    between atoms: C_5  and  O_7
REMARK    5  A    between atoms: O_7  and  C_8
REMARK                            x       y       z     vdW  Elec       q    Type
REMARK                         _______ _______ _______ _____ _____    ______ ____
ROOT
ATOM      1  C   UNL     1      19.998  -9.910  28.075  0.00  0.00    +0.000 C 
ATOM      2  C   UNL     1      19.375  -9.517  26.976  0.00  0.00    +0.000 C 
ENDROOT
BRANCH   2   3
ATOM      3  C   UNL     1      19.274  -8.087  26.740  0.00  0.00    +0.000 A 
ATOM      4  C   UNL     1      18.268  -7.352  27.301  0.00  0.00    +0.000 A 
ATOM      5  C   UNL     1      18.132  -5.982  27.096  0.00  0.00    +0.000 A 
ATOM      6  C   UNL     1      19.043  -5.330  26.295  0.00  0.00    +0.000 A 
ATOM      7  C   UNL     1      20.068  -6.057  25.718  0.00  0.00    +0.000 A 
ATOM      8  C   UNL     1      20.184  -7.421  25.938  0.00  0.00    +0.000 A 
ATOM      9 CL   UNL     1      21.469  -8.358  25.214  0.00  0.00    +0.000 Cl
ENDBRANCH   2   3
BRANCH   2  10
ATOM     10  N   UNL     1      18.862 -10.499  26.127  0.00  0.00    +0.000 NA
BRANCH  10  11
ATOM     11  N   UNL     1      17.607 -10.678  25.635  0.00  0.00    +0.000 NA
ATOM     12  C   UNL     1      17.073 -10.122  24.449  0.00  0.00    +0.000 C 
ATOM     13  O   UNL     1      17.809  -9.385  23.761  0.00  0.00    +0.000 OA
BRANCH  12  14
ATOM     14  O   UNL     1      15.745 -10.393  24.053  0.00  0.00    +0.000 OA
BRANCH  14  15
ATOM     15  C   UNL     1      14.757  -9.425  24.351  0.00  0.00    +0.000 C 
ATOM     16  C   UNL     1      13.468 -10.136  24.617  0.00  0.00    +0.000 C 
ATOM     17  C   UNL     1      14.554  -8.605  23.071  0.00  0.00    +0.000 C 
ATOM     18  C   UNL     1      15.159  -8.501  25.461  0.00  0.00    +0.000 C 
ENDBRANCH  14  15
ENDBRANCH  12  14
ENDBRANCH  10  11
ENDBRANCH   2  10
TORSDOF 5
ENDMDL
MODEL 5
REMARK VINA RESULT:      -4.9      4.246      6.729
REMARK  Name = 
REMARK  5 active torsions:
REMARK  status: ('A' for Active; 'I' for Inactive)
REMARK    1  A    between atoms: C_2  and  N_3
REMARK    2  A    between atoms: C_2  and  C_12
REMARK    3  A    between atoms: N_3  and  N_4
REMARK    4  A    between atoms: C_5  and  O_7
REMARK    5  A    between atoms: O_7  and  C_8
REMARK                            x       y       z     vdW  Elec       q    Type
REMARK                         _______ _______ _______ _____ _____    ______ ____
ROOT
ATOM      1  C   UNL     1      20.705  -9.511  26.316  0.00  0.00    +0.000 C 
ATOM      2  C   UNL     1      20.103  -8.741  25.425  0.00  0.00    +0.000 C 
ENDROOT
BRANCH   2   3
ATOM      3  C   UNL     1      19.575  -7.469  25.888  0.00  0.00    +0.000 A 
ATOM      4  C   UNL     1      18.395  -7.408  26.575  0.00  0.00    +0.000 A 
ATOM      5  C   UNL     1      17.852  -6.210  27.032  0.00  0.00    +0.000 A 
ATOM      6  C   UNL     1      18.522  -5.033  26.786  0.00  0.00    +0.000 A 
ATOM      7  C   UNL     1      19.717  -5.075  26.092  0.00  0.00    +0.000 A 
ATOM      8  C   UNL     1      20.240  -6.280  25.648  0.00  0.00    +0.000 A 
ATOM      9 CL   UNL     1      21.746  -6.354  24.765  0.00  0.00    +0.000 Cl
ENDBRANCH   2   3
BRANCH   2  10
ATOM     10  N   UNL     1      20.018  -9.202  24.110  0.00  0.00    +0.000 NA
BRANCH  10  11
ATOM     11  N   UNL     1      20.992  -9.454  23.194  0.00  0.00    +0.000 NA
ATOM     12  C   UNL     1      20.826  -9.598  21.797  0.00  0.00    +0.000 C 
ATOM     13  O   UNL     1      19.674  -9.488  21.327  0.00  0.00    +0.000 OA
BRANCH  12  14
ATOM     14  O   UNL     1      21.929  -9.859  20.956  0.00  0.00    +0.000 OA
BRANCH  14  15
ATOM     15  C   UNL     1      22.789  -8.780  20.641  0.00  0.00    +0.000 C 
ATOM     16  C   UNL     1      23.668  -9.195  19.504  0.00  0.00    +0.000 C 
ATOM     17  C   UNL     1      23.702  -8.586  21.858  0.00  0.00    +0.000 C 
ATOM     18  C   UNL     1      22.052  -7.501  20.379  0.00  0.00    +0.000 C 
ENDBRANCH  14  15
ENDBRANCH  12  14
ENDBRANCH  10  11
ENDBRANCH   2  10
TORSDOF 5
ENDMDL
MODEL 6
REMARK VINA RESULT:      -4.9      1.599      2.285
REMARK  Name = 
REMARK  5 active torsions:
REMARK  status: ('A' for Active; 'I' for Inactive)
REMARK    1  A    between atoms: C_2  and  N_3
REMARK    2  A    between atoms: C_2  and  C_12
REMARK    3  A    between atoms: N_3  and  N_4
REMARK    4  A    between atoms: C_5  and  O_7
REMARK    5  A    between atoms: O_7  and  C_8
REMARK                            x       y       z     vdW  Elec       q    Type
REMARK                         _______ _______ _______ _____ _____    ______ ____
ROOT
ATOM      1  C   UNL     1      17.871  -8.847  27.768  0.00  0.00    +0.000 C 
ATOM      2  C   UNL     1      17.867  -8.329  26.550  0.00  0.00    +0.000 C 
ENDROOT
BRANCH   2   3
ATOM      3  C   UNL     1      19.129  -7.828  26.033  0.00  0.00    +0.000 A 
ATOM      4  C   UNL     1      20.060  -8.680  25.508  0.00  0.00    +0.000 A 
ATOM      5  C   UNL     1      21.282  -8.242  25.006  0.00  0.00    +0.000 A 
ATOM      6  C   UNL     1      21.576  -6.897  25.036  0.00  0.00    +0.000 A 
ATOM      7  C   UNL     1      20.647  -6.020  25.563  0.00  0.00    +0.000 A 
ATOM      8  C   UNL     1      19.435  -6.479  26.056  0.00  0.00    +0.000 A 
ATOM      9 CL   UNL     1      18.249  -5.387  26.731  0.00  0.00    +0.000 Cl
ENDBRANCH   2   3
BRANCH   2  10
ATOM     10  N   UNL     1      16.657  -8.299  25.855  0.00  0.00    +0.000 NA
BRANCH  10  11
ATOM     11  N   UNL     1      15.375  -8.264  26.307  0.00  0.00    +0.000 NA
ATOM     12  C   UNL     1      14.197  -8.306  25.524  0.00  0.00    +0.000 C 
ATOM     13  O   UNL     1      14.318  -8.382  24.284  0.00  0.00    +0.000 OA
BRANCH  12  14
ATOM     14  O   UNL     1      12.921  -8.263  26.127  0.00  0.00    +0.000 OA
BRANCH  14  15
ATOM     15  C   UNL     1      12.245  -9.489  26.329  0.00  0.00    +0.000 C 
ATOM     16  C   UNL     1      11.442  -9.791  25.104  0.00  0.00    +0.000 C 
ATOM     17  C   UNL     1      11.244  -9.248  27.466  0.00  0.00    +0.000 C 
ATOM     18  C   UNL     1      13.164 -10.607  26.721  0.00  0.00    +0.000 C 
ENDBRANCH  14  15
ENDBRANCH  12  14
ENDBRANCH  10  11
ENDBRANCH   2  10
TORSDOF 5
ENDMDL
MODEL 7
REMARK VINA RESULT:      -4.9      3.781      5.663
REMARK  Name = 
REMARK  5 active torsions:
REMARK  status: ('A' for Active; 'I' for Inactive)
REMARK    1  A    between atoms: C_2  and  N_3
REMARK    2  A    between atoms: C_2  and  C_12
REMARK    3  A    between atoms: N_3  and  N_4
REMARK    4  A    between atoms: C_5  and  O_7
REMARK    5  A    between atoms: O_7  and  C_8
REMARK                            x       y       z     vdW  Elec       q    Type
REMARK                         _______ _______ _______ _____ _____    ______ ____
ROOT
ATOM      1  C   UNL     1      16.769  -8.960  27.126  0.00  0.00    +0.000 C 
ATOM      2  C   UNL     1      17.847  -8.479  27.723  0.00  0.00    +0.000 C 
ENDROOT
BRANCH   2   3
ATOM      3  C   UNL     1      18.528  -7.369  27.080  0.00  0.00    +0.000 A 
ATOM      4  C   UNL     1      18.105  -6.082  27.265  0.00  0.00    +0.000 A 
ATOM      5  C   UNL     1      18.726  -4.992  26.663  0.00  0.00    +0.000 A 
ATOM      6  C   UNL     1      19.814  -5.206  25.845  0.00  0.00    +0.000 A 
ATOM      7  C   UNL     1      20.256  -6.501  25.646  0.00  0.00    +0.000 A 
ATOM      8  C   UNL     1      19.622  -7.572  26.257  0.00  0.00    +0.000 A 
ATOM      9 CL   UNL     1      20.163  -9.215  26.013  0.00  0.00    +0.000 Cl
ENDBRANCH   2   3
BRANCH   2  10
ATOM     10  N   UNL     1      18.251  -9.069  28.922  0.00  0.00    +0.000 NA
BRANCH  10  11
ATOM     11  N   UNL     1      17.533  -9.722  29.874  0.00  0.00    +0.000 NA
ATOM     12  C   UNL     1      17.950 -10.027  31.192  0.00  0.00    +0.000 C 
ATOM     13  O   UNL     1      19.094  -9.671  31.544  0.00  0.00    +0.000 OA
BRANCH  12  14
ATOM     14  O   UNL     1      17.098 -10.714  32.084  0.00  0.00    +0.000 OA
BRANCH  14  15
ATOM     15  C   UNL     1      17.357 -12.084  32.321  0.00  0.00    +0.000 C 
ATOM     16  C   UNL     1      16.061 -12.761  32.635  0.00  0.00    +0.000 C 
ATOM     17  C   UNL     1      18.210 -12.148  33.595  0.00  0.00    +0.000 C 
ATOM     18  C   UNL     1      18.108 -12.741  31.201  0.00  0.00    +0.000 C 
ENDBRANCH  14  15
ENDBRANCH  12  14
ENDBRANCH  10  11
ENDBRANCH   2  10
TORSDOF 5
ENDMDL
MODEL 8
REMARK VINA RESULT:      -4.8     24.362     26.915
REMARK  Name = 
REMARK  5 active torsions:
REMARK  status: ('A' for Active; 'I' for Inactive)
REMARK    1  A    between atoms: C_2  and  N_3
REMARK    2  A    between atoms: C_2  and  C_12
REMARK    3  A    between atoms: N_3  and  N_4
REMARK    4  A    between atoms: C_5  and  O_7
REMARK    5  A    between atoms: O_7  and  C_8
REMARK                            x       y       z     vdW  Elec       q    Type
REMARK                         _______ _______ _______ _____ _____    ______ ____
ROOT
ATOM      1  C   UNL     1      36.093   8.645  38.923  0.00  0.00    +0.000 C 
ATOM      2  C   UNL     1      36.382   8.466  37.644  0.00  0.00    +0.000 C 
ENDROOT
BRANCH   2   3
ATOM      3  C   UNL     1      36.060   9.546  36.728  0.00  0.00    +0.000 A 
ATOM      4  C   UNL     1      34.836   9.612  36.122  0.00  0.00    +0.000 A 
ATOM      5  C   UNL     1      34.490  10.627  35.235  0.00  0.00    +0.000 A 
ATOM      6  C   UNL     1      35.411  11.610  34.947  0.00  0.00    +0.000 A 
ATOM      7  C   UNL     1      36.654  11.559  35.550  0.00  0.00    +0.000 A 
ATOM      8  C   UNL     1      36.977  10.540  36.432  0.00  0.00    +0.000 A 
ATOM      9 CL   UNL     1      38.544  10.456  37.200  0.00  0.00    +0.000 Cl
ENDBRANCH   2   3
BRANCH   2  10
ATOM     10  N   UNL     1      36.971   7.258  37.269  0.00  0.00    +0.000 NA
BRANCH  10  11
ATOM     11  N   UNL     1      36.425   6.132  36.735  0.00  0.00    +0.000 NA
ATOM     12  C   UNL     1      36.138   5.892  35.371  0.00  0.00    +0.000 C 
ATOM     13  O   UNL     1      36.404   6.792  34.547  0.00  0.00    +0.000 OA
BRANCH  12  14
ATOM     14  O   UNL     1      35.567   4.672  34.951  0.00  0.00    +0.000 OA
BRANCH  14  15
ATOM     15  C   UNL     1      34.167   4.519  35.079  0.00  0.00    +0.000 C 
ATOM     16  C   UNL     1      33.886   3.805  36.363  0.00  0.00    +0.000 C 
ATOM     17  C   UNL     1      33.729   3.581  33.946  0.00  0.00    +0.000 C 
ATOM     18  C   UNL     1      33.423   5.814  34.951  0.00  0.00    +0.000 C 
ENDBRANCH  14  15
ENDBRANCH  12  14
ENDBRANCH  10  11
ENDBRANCH   2  10
TORSDOF 5
ENDMDL
MODEL 9
REMARK VINA RESULT:      -4.8     33.717     34.302
REMARK  Name = 
REMARK  5 active torsions:
REMARK  status: ('A' for Active; 'I' for Inactive)
REMARK    1  A    between atoms: C_2  and  N_3
REMARK    2  A    between atoms: C_2  and  C_12
REMARK    3  A    between atoms: N_3  and  N_4
REMARK    4  A    between atoms: C_5  and  O_7
REMARK    5  A    between atoms: O_7  and  C_8
REMARK                            x       y       z     vdW  Elec       q    Type
REMARK                         _______ _______ _______ _____ _____    ______ ____
ROOT
ATOM      1  C   UNL     1      31.514  24.027  27.475  0.00  0.00    +0.000 C 
ATOM      2  C   UNL     1      31.217  22.773  27.771  0.00  0.00    +0.000 C 
ENDROOT
BRANCH   2   3
ATOM      3  C   UNL     1      31.586  22.292  29.091  0.00  0.00    +0.000 A 
ATOM      4  C   UNL     1      32.821  21.756  29.324  0.00  0.00    +0.000 A 
ATOM      5  C   UNL     1      33.212  21.280  30.572  0.00  0.00    +0.000 A 
ATOM      6  C   UNL     1      32.324  21.346  31.623  0.00  0.00    +0.000 A 
ATOM      7  C   UNL     1      31.069  21.885  31.407  0.00  0.00    +0.000 A 
ATOM      8  C   UNL     1      30.702  22.354  30.155  0.00  0.00    +0.000 A 
ATOM      9 CL   UNL     1      29.120  23.033  29.861  0.00  0.00    +0.000 Cl
ENDBRANCH   2   3
BRANCH   2  10
ATOM     10  N   UNL     1      30.575  22.004  26.799  0.00  0.00    +0.000 NA
BRANCH  10  11
ATOM     11  N   UNL     1      29.717  22.365  25.807  0.00  0.00    +0.000 NA
ATOM     12  C   UNL     1      30.053  22.691  24.471  0.00  0.00    +0.000 C 
ATOM     13  O   UNL     1      31.256  22.652  24.141  0.00  0.00    +0.000 OA
BRANCH  12  14
ATOM     14  O   UNL     1      29.056  23.050  23.538  0.00  0.00    +0.000 OA
BRANCH  14  15
ATOM     15  C   UNL     1      28.870  24.427  23.268  0.00  0.00    +0.000 C 
ATOM     16  C   UNL     1      27.407  24.728  23.349  0.00  0.00    +0.000 C 
ATOM     17  C   UNL     1      29.286  24.640  21.807  0.00  0.00    +0.000 C 
ATOM     18  C   UNL     1      29.703  25.313  24.145  0.00  0.00    +0.000 C 
ENDBRANCH  14  15
ENDBRANCH  12  14
ENDBRANCH  10  11
ENDBRANCH   2  10
TORSDOF 5
ENDMDL
MODEL 10
REMARK VINA RESULT:      -4.8     33.485     34.253
REMARK  Name = 
REMARK  5 active torsions:
REMARK  status: ('A' for Active; 'I' for Inactive)
REMARK    1  A    between atoms: C_2  and  N_3
REMARK    2  A    between atoms: C_2  and  C_12
REMARK    3  A    between atoms: N_3  and  N_4
REMARK    4  A    between atoms: C_5  and  O_7
REMARK    5  A    between atoms: O_7  and  C_8
REMARK                            x       y       z     vdW  Elec       q    Type
REMARK                         _______ _______ _______ _____ _____    ______ ____
ROOT
ATOM      1  C   UNL     1      31.972  21.686  28.859  0.00  0.00    +0.000 C 
ATOM      2  C   UNL     1      31.055  22.520  28.396  0.00  0.00    +0.000 C 
ENDROOT
BRANCH   2   3
ATOM      3  C   UNL     1      31.116  22.863  26.985  0.00  0.00    +0.000 A 
ATOM      4  C   UNL     1      30.352  22.197  26.067  0.00  0.00    +0.000 A 
ATOM      5  C   UNL     1      30.385  22.492  24.707  0.00  0.00    +0.000 A 
ATOM      6  C   UNL     1      31.217  23.492  24.256  0.00  0.00    +0.000 A 
ATOM      7  C   UNL     1      31.998  24.176  25.171  0.00  0.00    +0.000 A 
ATOM      8  C   UNL     1      31.948  23.867  26.521  0.00  0.00    +0.000 A 
ATOM      9 CL   UNL     1      32.929  24.716  27.691  0.00  0.00    +0.000 Cl
ENDBRANCH   2   3
BRANCH   2  10
ATOM     10  N   UNL     1      30.101  23.008  29.289  0.00  0.00    +0.000 NA
BRANCH  10  11
ATOM     11  N   UNL     1      28.969  23.731  29.071  0.00  0.00    +0.000 NA
ATOM     12  C   UNL     1      27.641  23.244  29.054  0.00  0.00    +0.000 C 
ATOM     13  O   UNL     1      27.458  22.026  29.257  0.00  0.00    +0.000 OA
BRANCH  12  14
ATOM     14  O   UNL     1      26.552  24.110  28.814  0.00  0.00    +0.000 OA
BRANCH  14  15
ATOM     15  C   UNL     1      26.330  24.539  27.484  0.00  0.00    +0.000 C 
ATOM     16  C   UNL     1      27.087  25.811  27.267  0.00  0.00    +0.000 C 
ATOM     17  C   UNL     1      24.840  24.888  27.386  0.00  0.00    +0.000 C 
ATOM     18  C   UNL     1      26.650  23.484  26.468  0.00  0.00    +0.000 C 
ENDBRANCH  14  15
ENDBRANCH  12  14
ENDBRANCH  10  11
ENDBRANCH   2  10
TORSDOF 5
ENDMDL
