MODEL 1
REMARK VINA RESULT:      -8.3      0.000      0.000
REMARK  Name = 
REMARK  7 active torsions:
REMARK  status: ('A' for Active; 'I' for Inactive)
REMARK    1  A    between atoms: C_2  and  C_3
REMARK    2  A    between atoms: C_7  and  C_8
REMARK    3  A    between atoms: C_10  and  N_11
REMARK    4  A    between atoms: C_12  and  C_14
REMARK    5  A    between atoms: C_14  and  O_15
REMARK    6  A    between atoms: O_15  and  C_16
REMARK    7  A    between atoms: C_16  and  C_18
REMARK                            x       y       z     vdW  Elec       q    Type
REMARK                         _______ _______ _______ _____ _____    ______ ____
ROOT
ATOM      1  C   UNL     1      38.902   2.326  14.437  0.00  0.00    +0.000 C 
ATOM      2  O   UNL     1      39.237   2.712  13.288  0.00  0.00    +0.000 OA
ENDROOT
BRANCH   1   3
ATOM      3  C   UNL     1      38.181   1.040  14.524  0.00  0.00    +0.000 C 
ATOM      4  C   UNL     1      39.007  -0.137  14.764  0.00  0.00    +0.000 A 
ATOM      5  C   UNL     1      40.168  -0.271  14.008  0.00  0.00    +0.000 A 
ATOM      6  C   UNL     1      41.011  -1.344  14.165  0.00  0.00    +0.000 A 
ATOM      7  C   UNL     1      40.689  -2.310  15.097  0.00  0.00    +0.000 A 
ATOM      8  C   UNL     1      39.541  -2.174  15.841  0.00  0.00    +0.000 A 
ATOM      9  C   UNL     1      38.688  -1.082  15.679  0.00  0.00    +0.000 A 
ATOM     10  O   UNL     1      37.525  -0.995  16.464  0.00  0.00    +0.000 OA
ATOM     11  C   UNL     1      36.709   0.108  16.264  0.00  0.00    +0.000 A 
ATOM     12  C   UNL     1      35.568   0.158  17.061  0.00  0.00    +0.000 A 
ATOM     13  C   UNL     1      34.694   1.206  16.942  0.00  0.00    +0.000 A 
ATOM     14  C   UNL     1      34.939   2.222  16.029  0.00  0.00    +0.000 A 
ATOM     15  C   UNL     1      36.093   2.142  15.244  0.00  0.00    +0.000 A 
ATOM     16  C   UNL     1      36.985   1.093  15.351  0.00  0.00    +0.000 A 
ENDBRANCH   1   3
BRANCH   1  17
ATOM     17  O   UNL     1      39.236   3.133  15.496  0.00  0.00    +0.000 OA
BRANCH  17  18
ATOM     18  C   UNL     1      39.256   4.516  15.534  0.00  0.00    +0.000 C 
BRANCH  18  20
ATOM     19  N   UNL     1      39.246   6.445  17.084  0.00  0.00    +0.000 NA
ATOM     20  C   UNL     1      38.764   5.170  16.736  0.00  0.00    +0.000 C 
ATOM     21  O   UNL     1      37.920   4.611  17.463  0.00  0.00    +0.000 OA
BRANCH  19  27
ATOM     22  C   UNL     1      39.411   7.026  19.449  0.00  0.00    +0.000 A 
ATOM     23  C   UNL     1      38.998   7.771  20.545  0.00  0.00    +0.000 A 
ATOM     24  C   UNL     1      38.010   8.694  20.402  0.00  0.00    +0.000 A 
ATOM     25  C   UNL     1      37.428   8.883  19.177  0.00  0.00    +0.000 A 
ATOM     26  C   UNL     1      37.851   8.126  18.074  0.00  0.00    +0.000 A 
ATOM     27  C   UNL     1      38.860   7.183  18.214  0.00  0.00    +0.000 A 
BRANCH  22  29
ATOM     28  C   UNL     1      41.691   6.614  20.347  0.00  0.00    +0.000 C 
ATOM     29  C   UNL     1      40.482   6.037  19.668  0.00  0.00    +0.000 C 
ENDBRANCH  22  29
BRANCH  26  30
ATOM     30  C   UNL     1      37.191   8.352  16.777  0.00  0.00    +0.000 C 
ATOM     31  C   UNL     1      36.224   9.481  16.840  0.00  0.00    +0.000 C 
ENDBRANCH  26  30
ENDBRANCH  19  27
ENDBRANCH  18  20
ENDBRANCH  17  18
ENDBRANCH   1  17
TORSDOF 7
ENDMDL
MODEL 2
REMARK VINA RESULT:      -8.3      2.390      4.896
REMARK  Name = 
REMARK  7 active torsions:
REMARK  status: ('A' for Active; 'I' for Inactive)
REMARK    1  A    between atoms: C_2  and  C_3
REMARK    2  A    between atoms: C_7  and  C_8
REMARK    3  A    between atoms: C_10  and  N_11
REMARK    4  A    between atoms: C_12  and  C_14
REMARK    5  A    between atoms: C_14  and  O_15
REMARK    6  A    between atoms: O_15  and  C_16
REMARK    7  A    between atoms: C_16  and  C_18
REMARK                            x       y       z     vdW  Elec       q    Type
REMARK                         _______ _______ _______ _____ _____    ______ ____
ROOT
ATOM      1  C   UNL     1      35.822  -0.418  16.109  0.00  0.00    +0.000 C 
ATOM      2  O   UNL     1      35.010  -1.378  16.090  0.00  0.00    +0.000 OA
ENDROOT
BRANCH   1   3
ATOM      3  C   UNL     1      37.258  -0.761  16.160  0.00  0.00    +0.000 C 
ATOM      4  C   UNL     1      37.670  -1.604  17.276  0.00  0.00    +0.000 A 
ATOM      5  C   UNL     1      37.195  -1.273  18.541  0.00  0.00    +0.000 A 
ATOM      6  C   UNL     1      37.528  -2.009  19.652  0.00  0.00    +0.000 A 
ATOM      7  C   UNL     1      38.354  -3.104  19.500  0.00  0.00    +0.000 A 
ATOM      8  C   UNL     1      38.822  -3.427  18.248  0.00  0.00    +0.000 A 
ATOM      9  C   UNL     1      38.482  -2.676  17.122  0.00  0.00    +0.000 A 
ATOM     10  O   UNL     1      38.990  -3.051  15.866  0.00  0.00    +0.000 OA
ATOM     11  C   UNL     1      38.625  -2.272  14.779  0.00  0.00    +0.000 A 
ATOM     12  C   UNL     1      39.149  -2.676  13.553  0.00  0.00    +0.000 A 
ATOM     13  C   UNL     1      38.850  -1.973  12.415  0.00  0.00    +0.000 A 
ATOM     14  C   UNL     1      38.026  -0.858  12.477  0.00  0.00    +0.000 A 
ATOM     15  C   UNL     1      37.516  -0.480  13.722  0.00  0.00    +0.000 A 
ATOM     16  C   UNL     1      37.807  -1.176  14.879  0.00  0.00    +0.000 A 
ENDBRANCH   1   3
BRANCH   1  17
ATOM     17  O   UNL     1      35.299   0.850  16.081  0.00  0.00    +0.000 OA
BRANCH  17  18
ATOM     18  C   UNL     1      35.689   1.945  16.832  0.00  0.00    +0.000 C 
BRANCH  18  20
ATOM     19  N   UNL     1      37.874   3.058  16.497  0.00  0.00    +0.000 NA
ATOM     20  C   UNL     1      36.506   2.959  16.184  0.00  0.00    +0.000 C 
ATOM     21  O   UNL     1      36.006   3.742  15.354  0.00  0.00    +0.000 OA
BRANCH  19  27
ATOM     22  C   UNL     1      39.395   3.830  14.752  0.00  0.00    +0.000 A 
ATOM     23  C   UNL     1      40.283   4.770  14.248  0.00  0.00    +0.000 A 
ATOM     24  C   UNL     1      40.552   5.896  14.960  0.00  0.00    +0.000 A 
ATOM     25  C   UNL     1      39.945   6.097  16.171  0.00  0.00    +0.000 A 
ATOM     26  C   UNL     1      39.050   5.140  16.675  0.00  0.00    +0.000 A 
ATOM     27  C   UNL     1      38.771   3.989  15.951  0.00  0.00    +0.000 A 
BRANCH  22  29
ATOM     28  C   UNL     1      40.238   1.598  14.054  0.00  0.00    +0.000 C 
ATOM     29  C   UNL     1      39.149   2.626  13.937  0.00  0.00    +0.000 C 
ENDBRANCH  22  29
BRANCH  26  30
ATOM     30  C   UNL     1      38.429   5.389  17.986  0.00  0.00    +0.000 C 
ATOM     31  C   UNL     1      39.410   5.923  18.969  0.00  0.00    +0.000 C 
ENDBRANCH  26  30
ENDBRANCH  19  27
ENDBRANCH  18  20
ENDBRANCH  17  18
ENDBRANCH   1  17
TORSDOF 7
ENDMDL
MODEL 3
REMARK VINA RESULT:      -8.3      0.345      2.376
REMARK  Name = 
REMARK  7 active torsions:
REMARK  status: ('A' for Active; 'I' for Inactive)
REMARK    1  A    between atoms: C_2  and  C_3
REMARK    2  A    between atoms: C_7  and  C_8
REMARK    3  A    between atoms: C_10  and  N_11
REMARK    4  A    between atoms: C_12  and  C_14
REMARK    5  A    between atoms: C_14  and  O_15
REMARK    6  A    between atoms: O_15  and  C_16
REMARK    7  A    between atoms: C_16  and  C_18
REMARK                            x       y       z     vdW  Elec       q    Type
REMARK                         _______ _______ _______ _____ _____    ______ ____
ROOT
ATOM      1  C   UNL     1      38.728   2.697  14.391  0.00  0.00    +0.000 C 
ATOM      2  O   UNL     1      38.718   3.289  13.281  0.00  0.00    +0.000 OA
ENDROOT
BRANCH   1   3
ATOM      3  C   UNL     1      38.124   1.350  14.433  0.00  0.00    +0.000 C 
ATOM      4  C   UNL     1      39.057   0.239  14.574  0.00  0.00    +0.000 A 
ATOM      5  C   UNL     1      40.192   0.247  13.768  0.00  0.00    +0.000 A 
ATOM      6  C   UNL     1      41.129  -0.755  13.832  0.00  0.00    +0.000 A 
ATOM      7  C   UNL     1      40.932  -1.793  14.720  0.00  0.00    +0.000 A 
ATOM      8  C   UNL     1      39.809  -1.797  15.514  0.00  0.00    +0.000 A 
ATOM      9  C   UNL     1      38.860  -0.777  15.446  0.00  0.00    +0.000 A 
ATOM     10  O   UNL     1      37.729  -0.833  16.280  0.00  0.00    +0.000 OA
ATOM     11  C   UNL     1      36.814   0.203  16.174  0.00  0.00    +0.000 A 
ATOM     12  C   UNL     1      35.709   0.111  17.016  0.00  0.00    +0.000 A 
ATOM     13  C   UNL     1      34.744   1.084  16.990  0.00  0.00    +0.000 A 
ATOM     14  C   UNL     1      34.862   2.164  16.126  0.00  0.00    +0.000 A 
ATOM     15  C   UNL     1      35.983   2.226  15.295  0.00  0.00    +0.000 A 
ATOM     16  C   UNL     1      36.966   1.255  15.308  0.00  0.00    +0.000 A 
ENDBRANCH   1   3
BRANCH   1  17
ATOM     17  O   UNL     1      39.297   3.356  15.451  0.00  0.00    +0.000 OA
BRANCH  17  18
ATOM     18  C   UNL     1      39.484   4.719  15.601  0.00  0.00    +0.000 C 
BRANCH  18  20
ATOM     19  N   UNL     1      39.339   6.615  17.185  0.00  0.00    +0.000 NA
ATOM     20  C   UNL     1      38.858   5.370  16.741  0.00  0.00    +0.000 C 
ATOM     21  O   UNL     1      37.900   4.834  17.331  0.00  0.00    +0.000 OA
BRANCH  19  27
ATOM     22  C   UNL     1      37.842   8.274  18.165  0.00  0.00    +0.000 A 
ATOM     23  C   UNL     1      37.370   8.984  19.261  0.00  0.00    +0.000 A 
ATOM     24  C   UNL     1      37.904   8.760  20.491  0.00  0.00    +0.000 A 
ATOM     25  C   UNL     1      38.902   7.835  20.642  0.00  0.00    +0.000 A 
ATOM     26  C   UNL     1      39.374   7.123  19.528  0.00  0.00    +0.000 A 
ATOM     27  C   UNL     1      38.832   7.347  18.270  0.00  0.00    +0.000 A 
BRANCH  22  29
ATOM     28  C   UNL     1      36.100   9.554  16.938  0.00  0.00    +0.000 C 
ATOM     29  C   UNL     1      37.228   8.566  16.856  0.00  0.00    +0.000 C 
ENDBRANCH  22  29
BRANCH  26  30
ATOM     30  C   UNL     1      40.457   6.147  19.732  0.00  0.00    +0.000 C 
ATOM     31  C   UNL     1      41.707   6.800  20.206  0.00  0.00    +0.000 C 
ENDBRANCH  26  30
ENDBRANCH  19  27
ENDBRANCH  18  20
ENDBRANCH  17  18
ENDBRANCH   1  17
TORSDOF 7
ENDMDL
MODEL 4
REMARK VINA RESULT:      -8.2      2.159      4.203
REMARK  Name = 
REMARK  7 active torsions:
REMARK  status: ('A' for Active; 'I' for Inactive)
REMARK    1  A    between atoms: C_2  and  C_3
REMARK    2  A    between atoms: C_7  and  C_8
REMARK    3  A    between atoms: C_10  and  N_11
REMARK    4  A    between atoms: C_12  and  C_14
REMARK    5  A    between atoms: C_14  and  O_15
REMARK    6  A    between atoms: O_15  and  C_16
REMARK    7  A    between atoms: C_16  and  C_18
REMARK                            x       y       z     vdW  Elec       q    Type
REMARK                         _______ _______ _______ _____ _____    ______ ____
ROOT
ATOM      1  C   UNL     1      35.656   1.324  16.748  0.00  0.00    +0.000 C 
ATOM      2  O   UNL     1      34.424   1.535  16.889  0.00  0.00    +0.000 OA
ENDROOT
BRANCH   1   3
ATOM      3  C   UNL     1      36.051  -0.010  16.251  0.00  0.00    +0.000 C 
ATOM      4  C   UNL     1      36.684  -0.037  14.938  0.00  0.00    +0.000 A 
ATOM      5  C   UNL     1      36.093   0.713  13.926  0.00  0.00    +0.000 A 
ATOM      6  C   UNL     1      36.618   0.752  12.657  0.00  0.00    +0.000 A 
ATOM      7  C   UNL     1      37.760   0.024  12.388  0.00  0.00    +0.000 A 
ATOM      8  C   UNL     1      38.339  -0.716  13.391  0.00  0.00    +0.000 A 
ATOM      9  C   UNL     1      37.803  -0.752  14.679  0.00  0.00    +0.000 A 
ATOM     10  O   UNL     1      38.436  -1.528  15.666  0.00  0.00    +0.000 OA
ATOM     11  C   UNL     1      37.864  -1.532  16.929  0.00  0.00    +0.000 A 
ATOM     12  C   UNL     1      38.520  -2.312  17.878  0.00  0.00    +0.000 A 
ATOM     13  C   UNL     1      38.035  -2.386  19.158  0.00  0.00    +0.000 A 
ATOM     14  C   UNL     1      36.891  -1.687  19.515  0.00  0.00    +0.000 A 
ATOM     15  C   UNL     1      36.257  -0.913  18.539  0.00  0.00    +0.000 A 
ATOM     16  C   UNL     1      36.731  -0.827  17.245  0.00  0.00    +0.000 A 
ENDBRANCH   1   3
BRANCH   1  17
ATOM     17  O   UNL     1      36.511   2.348  17.068  0.00  0.00    +0.000 OA
BRANCH  17  18
ATOM     18  C   UNL     1      36.800   3.476  16.320  0.00  0.00    +0.000 C 
BRANCH  18  20
ATOM     19  N   UNL     1      38.536   5.213  16.623  0.00  0.00    +0.000 NA
ATOM     20  C   UNL     1      38.188   3.905  16.243  0.00  0.00    +0.000 C 
ATOM     21  O   UNL     1      39.072   3.123  15.842  0.00  0.00    +0.000 OA
BRANCH  19  27
ATOM     22  C   UNL     1      40.506   6.048  15.449  0.00  0.00    +0.000 A 
ATOM     23  C   UNL     1      41.789   6.577  15.460  0.00  0.00    +0.000 A 
ATOM     24  C   UNL     1      42.412   6.816  16.645  0.00  0.00    +0.000 A 
ATOM     25  C   UNL     1      41.769   6.535  17.821  0.00  0.00    +0.000 A 
ATOM     26  C   UNL     1      40.472   6.000  17.801  0.00  0.00    +0.000 A 
ATOM     27  C   UNL     1      39.831   5.754  16.594  0.00  0.00    +0.000 A 
BRANCH  22  29
ATOM     28  C   UNL     1      40.766   5.026  13.199  0.00  0.00    +0.000 C 
ATOM     29  C   UNL     1      39.886   5.805  14.134  0.00  0.00    +0.000 C 
ENDBRANCH  22  29
BRANCH  26  30
ATOM     30  C   UNL     1      39.821   5.700  19.087  0.00  0.00    +0.000 C 
ATOM     31  C   UNL     1      39.485   6.940  19.838  0.00  0.00    +0.000 C 
ENDBRANCH  26  30
ENDBRANCH  19  27
ENDBRANCH  18  20
ENDBRANCH  17  18
ENDBRANCH   1  17
TORSDOF 7
ENDMDL
MODEL 5
REMARK VINA RESULT:      -8.0      2.348      4.935
REMARK  Name = 
REMARK  7 active torsions:
REMARK  status: ('A' for Active; 'I' for Inactive)
REMARK    1  A    between atoms: C_2  and  C_3
REMARK    2  A    between atoms: C_7  and  C_8
REMARK    3  A    between atoms: C_10  and  N_11
REMARK    4  A    between atoms: C_12  and  C_14
REMARK    5  A    between atoms: C_14  and  O_15
REMARK    6  A    between atoms: O_15  and  C_16
REMARK    7  A    between atoms: C_16  and  C_18
REMARK                            x       y       z     vdW  Elec       q    Type
REMARK                         _______ _______ _______ _____ _____    ______ ____
ROOT
ATOM      1  C   UNL     1      36.741   0.217  15.593  0.00  0.00    +0.000 C 
ATOM      2  O   UNL     1      36.277   0.645  14.505  0.00  0.00    +0.000 OA
ENDROOT
BRANCH   1   3
ATOM      3  C   UNL     1      37.312  -1.146  15.583  0.00  0.00    +0.000 C 
ATOM      4  C   UNL     1      36.361  -2.232  15.386  0.00  0.00    +0.000 A 
ATOM      5  C   UNL     1      35.182  -2.195  16.124  0.00  0.00    +0.000 A 
ATOM      6  C   UNL     1      34.225  -3.173  16.005  0.00  0.00    +0.000 A 
ATOM      7  C   UNL     1      34.446  -4.215  15.127  0.00  0.00    +0.000 A 
ATOM      8  C   UNL     1      35.613  -4.248  14.400  0.00  0.00    +0.000 A 
ATOM      9  C   UNL     1      36.582  -3.253  14.525  0.00  0.00    +0.000 A 
ATOM     10  O   UNL     1      37.758  -3.337  13.758  0.00  0.00    +0.000 OA
ATOM     11  C   UNL     1      38.692  -2.325  13.919  0.00  0.00    +0.000 A 
ATOM     12  C   UNL     1      39.841  -2.445  13.142  0.00  0.00    +0.000 A 
ATOM     13  C   UNL     1      40.827  -1.497  13.226  0.00  0.00    +0.000 A 
ATOM     14  C   UNL     1      40.687  -0.415  14.084  0.00  0.00    +0.000 A 
ATOM     15  C   UNL     1      39.521  -0.324  14.849  0.00  0.00    +0.000 A 
ATOM     16  C   UNL     1      38.517  -1.270  14.777  0.00  0.00    +0.000 A 
ENDBRANCH   1   3
BRANCH   1  17
ATOM     17  O   UNL     1      36.673   1.052  16.679  0.00  0.00    +0.000 OA
BRANCH  17  18
ATOM     18  C   UNL     1      36.140   2.327  16.736  0.00  0.00    +0.000 C 
BRANCH  18  20
ATOM     19  N   UNL     1      38.314   3.496  16.562  0.00  0.00    +0.000 NA
ATOM     20  C   UNL     1      36.949   3.426  16.233  0.00  0.00    +0.000 C 
ATOM     21  O   UNL     1      36.443   4.308  15.513  0.00  0.00    +0.000 OA
BRANCH  19  27
ATOM     22  C   UNL     1      39.787   4.539  14.920  0.00  0.00    +0.000 A 
ATOM     23  C   UNL     1      40.668   5.546  14.549  0.00  0.00    +0.000 A 
ATOM     24  C   UNL     1      40.972   6.536  15.430  0.00  0.00    +0.000 A 
ATOM     25  C   UNL     1      40.407   6.535  16.677  0.00  0.00    +0.000 A 
ATOM     26  C   UNL     1      39.518   5.513  17.044  0.00  0.00    +0.000 A 
ATOM     27  C   UNL     1      39.204   4.500  16.149  0.00  0.00    +0.000 A 
BRANCH  22  29
ATOM     28  C   UNL     1      40.692   3.135  13.079  0.00  0.00    +0.000 C 
ATOM     29  C   UNL     1      39.502   3.490  13.924  0.00  0.00    +0.000 C 
ENDBRANCH  22  29
BRANCH  26  30
ATOM     30  C   UNL     1      38.943   5.542  18.399  0.00  0.00    +0.000 C 
ATOM     31  C   UNL     1      39.887   6.130  19.388  0.00  0.00    +0.000 C 
ENDBRANCH  26  30
ENDBRANCH  19  27
ENDBRANCH  18  20
ENDBRANCH  17  18
ENDBRANCH   1  17
TORSDOF 7
ENDMDL
MODEL 6
REMARK VINA RESULT:      -7.9      2.454      8.181
REMARK  Name = 
REMARK  7 active torsions:
REMARK  status: ('A' for Active; 'I' for Inactive)
REMARK    1  A    between atoms: C_2  and  C_3
REMARK    2  A    between atoms: C_7  and  C_8
REMARK    3  A    between atoms: C_10  and  N_11
REMARK    4  A    between atoms: C_12  and  C_14
REMARK    5  A    between atoms: C_14  and  O_15
REMARK    6  A    between atoms: O_15  and  C_16
REMARK    7  A    between atoms: C_16  and  C_18
REMARK                            x       y       z     vdW  Elec       q    Type
REMARK                         _______ _______ _______ _____ _____    ______ ____
ROOT
ATOM      1  C   UNL     1      38.485   4.152  16.259  0.00  0.00    +0.000 C 
ATOM      2  O   UNL     1      39.220   3.432  15.535  0.00  0.00    +0.000 OA
ENDROOT
BRANCH   1   3
ATOM      3  C   UNL     1      38.715   5.610  16.201  0.00  0.00    +0.000 C 
ATOM      4  C   UNL     1      37.807   6.363  15.345  0.00  0.00    +0.000 A 
ATOM      5  C   UNL     1      37.549   5.852  14.077  0.00  0.00    +0.000 A 
ATOM      6  C   UNL     1      36.705   6.489  13.200  0.00  0.00    +0.000 A 
ATOM      7  C   UNL     1      36.102   7.666  13.596  0.00  0.00    +0.000 A 
ATOM      8  C   UNL     1      36.361   8.168  14.849  0.00  0.00    +0.000 A 
ATOM      9  C   UNL     1      37.219   7.517  15.737  0.00  0.00    +0.000 A 
ATOM     10  O   UNL     1      37.450   8.076  17.006  0.00  0.00    +0.000 OA
ATOM     11  C   UNL     1      38.311   7.392  17.851  0.00  0.00    +0.000 A 
ATOM     12  C   UNL     1      38.513   7.978  19.098  0.00  0.00    +0.000 A 
ATOM     13  C   UNL     1      39.347   7.383  20.007  0.00  0.00    +0.000 A 
ATOM     14  C   UNL     1      39.994   6.197  19.692  0.00  0.00    +0.000 A 
ATOM     15  C   UNL     1      39.770   5.635  18.433  0.00  0.00    +0.000 A 
ATOM     16  C   UNL     1      38.932   6.220  17.504  0.00  0.00    +0.000 A 
ENDBRANCH   1   3
BRANCH   1  17
ATOM     17  O   UNL     1      37.545   3.517  17.030  0.00  0.00    +0.000 OA
BRANCH  17  18
ATOM     18  C   UNL     1      36.225   3.252  16.710  0.00  0.00    +0.000 C 
BRANCH  18  20
ATOM     19  N   UNL     1      36.784   0.853  16.471  0.00  0.00    +0.000 NA
ATOM     20  C   UNL     1      35.813   1.860  16.618  0.00  0.00    +0.000 C 
ATOM     21  O   UNL     1      34.607   1.551  16.666  0.00  0.00    +0.000 OA
BRANCH  19  27
ATOM     22  C   UNL     1      36.368  -1.350  17.435  0.00  0.00    +0.000 A 
ATOM     23  C   UNL     1      36.118  -2.707  17.292  0.00  0.00    +0.000 A 
ATOM     24  C   UNL     1      36.024  -3.250  16.049  0.00  0.00    +0.000 A 
ATOM     25  C   UNL     1      36.175  -2.453  14.946  0.00  0.00    +0.000 A 
ATOM     26  C   UNL     1      36.427  -1.081  15.099  0.00  0.00    +0.000 A 
ATOM     27  C   UNL     1      36.524  -0.522  16.366  0.00  0.00    +0.000 A 
BRANCH  22  29
ATOM     28  C   UNL     1      37.206  -1.734  19.743  0.00  0.00    +0.000 C 
ATOM     29  C   UNL     1      36.465  -0.822  18.809  0.00  0.00    +0.000 C 
ENDBRANCH  22  29
BRANCH  26  30
ATOM     30  C   UNL     1      36.596  -0.263  13.887  0.00  0.00    +0.000 C 
ATOM     31  C   UNL     1      37.746  -0.724  13.064  0.00  0.00    +0.000 C 
ENDBRANCH  26  30
ENDBRANCH  19  27
ENDBRANCH  18  20
ENDBRANCH  17  18
ENDBRANCH   1  17
TORSDOF 7
ENDMDL
MODEL 7
REMARK VINA RESULT:      -7.9      1.391      4.279
REMARK  Name = 
REMARK  7 active torsions:
REMARK  status: ('A' for Active; 'I' for Inactive)
REMARK    1  A    between atoms: C_2  and  C_3
REMARK    2  A    between atoms: C_7  and  C_8
REMARK    3  A    between atoms: C_10  and  N_11
REMARK    4  A    between atoms: C_12  and  C_14
REMARK    5  A    between atoms: C_14  and  O_15
REMARK    6  A    between atoms: O_15  and  C_16
REMARK    7  A    between atoms: C_16  and  C_18
REMARK                            x       y       z     vdW  Elec       q    Type
REMARK                         _______ _______ _______ _____ _____    ______ ____
ROOT
ATOM      1  C   UNL     1      37.757   1.142  14.201  0.00  0.00    +0.000 C 
ATOM      2  O   UNL     1      37.205   0.581  13.220  0.00  0.00    +0.000 OA
ENDROOT
BRANCH   1   3
ATOM      3  C   UNL     1      38.058   0.293  15.372  0.00  0.00    +0.000 C 
ATOM      4  C   UNL     1      36.904  -0.282  16.053  0.00  0.00    +0.000 A 
ATOM      5  C   UNL     1      35.829   0.561  16.316  0.00  0.00    +0.000 A 
ATOM      6  C   UNL     1      34.697   0.109  16.951  0.00  0.00    +0.000 A 
ATOM      7  C   UNL     1      34.635  -1.215  17.334  0.00  0.00    +0.000 A 
ATOM      8  C   UNL     1      35.700  -2.044  17.073  0.00  0.00    +0.000 A 
ATOM      9  C   UNL     1      36.847  -1.581  16.427  0.00  0.00    +0.000 A 
ATOM     10  O   UNL     1      37.909  -2.471  16.188  0.00  0.00    +0.000 OA
ATOM     11  C   UNL     1      39.028  -1.963  15.545  0.00  0.00    +0.000 A 
ATOM     12  C   UNL     1      40.056  -2.877  15.326  0.00  0.00    +0.000 A 
ATOM     13  C   UNL     1      41.206  -2.476  14.699  0.00  0.00    +0.000 A 
ATOM     14  C   UNL     1      41.354  -1.161  14.280  0.00  0.00    +0.000 A 
ATOM     15  C   UNL     1      40.303  -0.270  14.515  0.00  0.00    +0.000 A 
ATOM     16  C   UNL     1      39.136  -0.657  15.145  0.00  0.00    +0.000 A 
ENDBRANCH   1   3
BRANCH   1  17
ATOM     17  O   UNL     1      38.026   2.483  14.090  0.00  0.00    +0.000 OA
BRANCH  17  18
ATOM     18  C   UNL     1      38.791   3.267  14.936  0.00  0.00    +0.000 C 
BRANCH  18  20
ATOM     19  N   UNL     1      38.833   5.507  15.986  0.00  0.00    +0.000 NA
ATOM     20  C   UNL     1      38.124   4.337  15.660  0.00  0.00    +0.000 C 
ATOM     21  O   UNL     1      36.929   4.226  15.997  0.00  0.00    +0.000 OA
BRANCH  19  27
ATOM     22  C   UNL     1      37.660   7.645  16.088  0.00  0.00    +0.000 A 
ATOM     23  C   UNL     1      37.166   8.722  16.810  0.00  0.00    +0.000 A 
ATOM     24  C   UNL     1      37.329   8.764  18.159  0.00  0.00    +0.000 A 
ATOM     25  C   UNL     1      37.981   7.743  18.798  0.00  0.00    +0.000 A 
ATOM     26  C   UNL     1      38.478   6.658  18.060  0.00  0.00    +0.000 A 
ATOM     27  C   UNL     1      38.313   6.609  16.683  0.00  0.00    +0.000 A 
BRANCH  22  29
ATOM     28  C   UNL     1      36.075   7.238  14.217  0.00  0.00    +0.000 C 
ATOM     29  C   UNL     1      37.457   7.660  14.627  0.00  0.00    +0.000 C 
ENDBRANCH  22  29
BRANCH  26  30
ATOM     30  C   UNL     1      39.183   5.587  18.784  0.00  0.00    +0.000 C 
ATOM     31  C   UNL     1      40.302   6.121  19.607  0.00  0.00    +0.000 C 
ENDBRANCH  26  30
ENDBRANCH  19  27
ENDBRANCH  18  20
ENDBRANCH  17  18
ENDBRANCH   1  17
TORSDOF 7
ENDMDL
MODEL 8
REMARK VINA RESULT:      -7.9      1.962      4.583
REMARK  Name = 
REMARK  7 active torsions:
REMARK  status: ('A' for Active; 'I' for Inactive)
REMARK    1  A    between atoms: C_2  and  C_3
REMARK    2  A    between atoms: C_7  and  C_8
REMARK    3  A    between atoms: C_10  and  N_11
REMARK    4  A    between atoms: C_12  and  C_14
REMARK    5  A    between atoms: C_14  and  O_15
REMARK    6  A    between atoms: O_15  and  C_16
REMARK    7  A    between atoms: C_16  and  C_18
REMARK                            x       y       z     vdW  Elec       q    Type
REMARK                         _______ _______ _______ _____ _____    ______ ____
ROOT
ATOM      1  C   UNL     1      37.063   1.105  14.152  0.00  0.00    +0.000 C 
ATOM      2  O   UNL     1      36.571   0.427  13.213  0.00  0.00    +0.000 OA
ENDROOT
BRANCH   1   3
ATOM      3  C   UNL     1      37.540   0.358  15.334  0.00  0.00    +0.000 C 
ATOM      4  C   UNL     1      36.513  -0.322  16.112  0.00  0.00    +0.000 A 
ATOM      5  C   UNL     1      35.356   0.391  16.411  0.00  0.00    +0.000 A 
ATOM      6  C   UNL     1      34.332  -0.167  17.138  0.00  0.00    +0.000 A 
ATOM      7  C   UNL     1      34.463  -1.468  17.578  0.00  0.00    +0.000 A 
ATOM      8  C   UNL     1      35.608  -2.169  17.281  0.00  0.00    +0.000 A 
ATOM      9  C   UNL     1      36.645  -1.599  16.543  0.00  0.00    +0.000 A 
ATOM     10  O   UNL     1      37.795  -2.360  16.270  0.00  0.00    +0.000 OA
ATOM     11  C   UNL     1      38.799  -1.748  15.535  0.00  0.00    +0.000 A 
ATOM     12  C   UNL     1      39.920  -2.535  15.285  0.00  0.00    +0.000 A 
ATOM     13  C   UNL     1      40.970  -2.025  14.568  0.00  0.00    +0.000 A 
ATOM     14  C   UNL     1      40.923  -0.724  14.086  0.00  0.00    +0.000 A 
ATOM     15  C   UNL     1      39.783   0.039  14.354  0.00  0.00    +0.000 A 
ATOM     16  C   UNL     1      38.715  -0.459  15.075  0.00  0.00    +0.000 A 
ENDBRANCH   1   3
BRANCH   1  17
ATOM     17  O   UNL     1      37.109   2.467  13.989  0.00  0.00    +0.000 OA
BRANCH  17  18
ATOM     18  C   UNL     1      37.241   3.434  14.970  0.00  0.00    +0.000 C 
BRANCH  18  20
ATOM     19  N   UNL     1      38.846   5.187  15.657  0.00  0.00    +0.000 NA
ATOM     20  C   UNL     1      38.584   3.839  15.350  0.00  0.00    +0.000 C 
ATOM     21  O   UNL     1      39.507   3.004  15.406  0.00  0.00    +0.000 OA
BRANCH  19  27
ATOM     22  C   UNL     1      41.082   6.024  15.151  0.00  0.00    +0.000 A 
ATOM     23  C   UNL     1      42.306   6.535  15.561  0.00  0.00    +0.000 A 
ATOM     24  C   UNL     1      42.545   6.737  16.884  0.00  0.00    +0.000 A 
ATOM     25  C   UNL     1      41.577   6.436  17.804  0.00  0.00    +0.000 A 
ATOM     26  C   UNL     1      40.343   5.919  17.382  0.00  0.00    +0.000 A 
ATOM     27  C   UNL     1      40.093   5.711  16.032  0.00  0.00    +0.000 A 
BRANCH  22  29
ATOM     28  C   UNL     1      41.734   4.719  13.139  0.00  0.00    +0.000 C 
ATOM     29  C   UNL     1      40.885   5.821  13.704  0.00  0.00    +0.000 C 
ENDBRANCH  22  29
BRANCH  26  30
ATOM     30  C   UNL     1      39.334   5.597  18.404  0.00  0.00    +0.000 C 
ATOM     31  C   UNL     1      39.437   6.498  19.584  0.00  0.00    +0.000 C 
ENDBRANCH  26  30
ENDBRANCH  19  27
ENDBRANCH  18  20
ENDBRANCH  17  18
ENDBRANCH   1  17
TORSDOF 7
ENDMDL
MODEL 9
REMARK VINA RESULT:      -7.9      4.764      7.741
REMARK  Name = 
REMARK  7 active torsions:
REMARK  status: ('A' for Active; 'I' for Inactive)
REMARK    1  A    between atoms: C_2  and  C_3
REMARK    2  A    between atoms: C_7  and  C_8
REMARK    3  A    between atoms: C_10  and  N_11
REMARK    4  A    between atoms: C_12  and  C_14
REMARK    5  A    between atoms: C_14  and  O_15
REMARK    6  A    between atoms: O_15  and  C_16
REMARK    7  A    between atoms: C_16  and  C_18
REMARK                            x       y       z     vdW  Elec       q    Type
REMARK                         _______ _______ _______ _____ _____    ______ ____
ROOT
ATOM      1  C   UNL     1      38.157  -0.031  13.433  0.00  0.00    +0.000 C 
ATOM      2  O   UNL     1      38.116  -0.640  12.334  0.00  0.00    +0.000 OA
ENDROOT
BRANCH   1   3
ATOM      3  C   UNL     1      37.234  -0.497  14.488  0.00  0.00    +0.000 C 
ATOM      4  C   UNL     1      37.816  -1.365  15.504  0.00  0.00    +0.000 A 
ATOM      5  C   UNL     1      38.634  -2.403  15.069  0.00  0.00    +0.000 A 
ATOM      6  C   UNL     1      39.228  -3.272  15.953  0.00  0.00    +0.000 A 
ATOM      7  C   UNL     1      39.002  -3.102  17.304  0.00  0.00    +0.000 A 
ATOM      8  C   UNL     1      38.193  -2.076  17.729  0.00  0.00    +0.000 A 
ATOM      9  C   UNL     1      37.591  -1.196  16.828  0.00  0.00    +0.000 A 
ATOM     10  O   UNL     1      36.771  -0.164  17.318  0.00  0.00    +0.000 OA
ATOM     11  C   UNL     1      36.194   0.682  16.383  0.00  0.00    +0.000 A 
ATOM     12  C   UNL     1      35.389   1.691  16.908  0.00  0.00    +0.000 A 
ATOM     13  C   UNL     1      34.772   2.581  16.069  0.00  0.00    +0.000 A 
ATOM     14  C   UNL     1      34.944   2.484  14.696  0.00  0.00    +0.000 A 
ATOM     15  C   UNL     1      35.758   1.461  14.202  0.00  0.00    +0.000 A 
ATOM     16  C   UNL     1      36.389   0.555  15.032  0.00  0.00    +0.000 A 
ENDBRANCH   1   3
BRANCH   1  17
ATOM     17  O   UNL     1      39.052   1.003  13.547  0.00  0.00    +0.000 OA
BRANCH  17  18
ATOM     18  C   UNL     1      40.237   1.024  14.260  0.00  0.00    +0.000 C 
BRANCH  18  20
ATOM     19  N   UNL     1      41.872  -0.831  14.368  0.00  0.00    +0.000 NA
ATOM     20  C   UNL     1      41.376   0.307  13.708  0.00  0.00    +0.000 C 
ATOM     21  O   UNL     1      41.918   0.694  12.654  0.00  0.00    +0.000 OA
BRANCH  19  27
ATOM     22  C   UNL     1      44.255  -1.350  14.286  0.00  0.00    +0.000 A 
ATOM     23  C   UNL     1      45.308  -2.139  13.845  0.00  0.00    +0.000 A 
ATOM     24  C   UNL     1      45.062  -3.212  13.046  0.00  0.00    +0.000 A 
ATOM     25  C   UNL     1      43.775  -3.508  12.682  0.00  0.00    +0.000 A 
ATOM     26  C   UNL     1      42.716  -2.704  13.132  0.00  0.00    +0.000 A 
ATOM     27  C   UNL     1      42.962  -1.609  13.948  0.00  0.00    +0.000 A 
BRANCH  22  29
ATOM     28  C   UNL     1      45.388  -0.574  16.357  0.00  0.00    +0.000 C 
ATOM     29  C   UNL     1      44.587  -0.198  15.144  0.00  0.00    +0.000 C 
ENDBRANCH  22  29
BRANCH  26  30
ATOM     30  C   UNL     1      41.349  -3.050  12.707  0.00  0.00    +0.000 C 
ATOM     31  C   UNL     1      41.236  -3.134  11.226  0.00  0.00    +0.000 C 
ENDBRANCH  26  30
ENDBRANCH  19  27
ENDBRANCH  18  20
ENDBRANCH  17  18
ENDBRANCH   1  17
TORSDOF 7
ENDMDL
MODEL 10
REMARK VINA RESULT:      -7.9      0.815      3.265
REMARK  Name = 
REMARK  7 active torsions:
REMARK  status: ('A' for Active; 'I' for Inactive)
REMARK    1  A    between atoms: C_2  and  C_3
REMARK    2  A    between atoms: C_7  and  C_8
REMARK    3  A    between atoms: C_10  and  N_11
REMARK    4  A    between atoms: C_12  and  C_14
REMARK    5  A    between atoms: C_14  and  O_15
REMARK    6  A    between atoms: O_15  and  C_16
REMARK    7  A    between atoms: C_16  and  C_18
REMARK                            x       y       z     vdW  Elec       q    Type
REMARK                         _______ _______ _______ _____ _____    ______ ____
ROOT
ATOM      1  C   UNL     1      37.891   2.455  14.368  0.00  0.00    +0.000 C 
ATOM      2  O   UNL     1      37.341   2.139  13.282  0.00  0.00    +0.000 OA
ENDROOT
BRANCH   1   3
ATOM      3  C   UNL     1      38.135   1.364  15.333  0.00  0.00    +0.000 C 
ATOM      4  C   UNL     1      36.947   0.758  15.921  0.00  0.00    +0.000 A 
ATOM      5  C   UNL     1      35.951   1.613  16.383  0.00  0.00    +0.000 A 
ATOM      6  C   UNL     1      34.795   1.135  16.949  0.00  0.00    +0.000 A 
ATOM      7  C   UNL     1      34.625  -0.230  17.059  0.00  0.00    +0.000 A 
ATOM      8  C   UNL     1      35.611  -1.072  16.603  0.00  0.00    +0.000 A 
ATOM      9  C   UNL     1      36.784  -0.582  16.027  0.00  0.00    +0.000 A 
ATOM     10  O   UNL     1      37.761  -1.488  15.579  0.00  0.00    +0.000 OA
ATOM     11  C   UNL     1      38.910  -0.952  15.017  0.00  0.00    +0.000 A 
ATOM     12  C   UNL     1      39.852  -1.882  14.585  0.00  0.00    +0.000 A 
ATOM     13  C   UNL     1      41.023  -1.456  14.015  0.00  0.00    +0.000 A 
ATOM     14  C   UNL     1      41.277  -0.100  13.865  0.00  0.00    +0.000 A 
ATOM     15  C   UNL     1      40.311   0.807  14.309  0.00  0.00    +0.000 A 
ATOM     16  C   UNL     1      39.124   0.396  14.885  0.00  0.00    +0.000 A 
ENDBRANCH   1   3
BRANCH   1  17
ATOM     17  O   UNL     1      38.211   3.777  14.552  0.00  0.00    +0.000 OA
BRANCH  17  18
ATOM     18  C   UNL     1      39.148   4.310  15.419  0.00  0.00    +0.000 C 
BRANCH  18  20
ATOM     19  N   UNL     1      39.164   6.282  16.913  0.00  0.00    +0.000 NA
ATOM     20  C   UNL     1      38.663   5.006  16.600  0.00  0.00    +0.000 C 
ATOM     21  O   UNL     1      37.808   4.481  17.339  0.00  0.00    +0.000 OA
BRANCH  19  27
ATOM     22  C   UNL     1      39.321   6.919  19.264  0.00  0.00    +0.000 A 
ATOM     23  C   UNL     1      38.918   7.701  20.337  0.00  0.00    +0.000 A 
ATOM     24  C   UNL     1      37.955   8.645  20.161  0.00  0.00    +0.000 A 
ATOM     25  C   UNL     1      37.391   8.819  18.925  0.00  0.00    +0.000 A 
ATOM     26  C   UNL     1      37.804   8.024  17.846  0.00  0.00    +0.000 A 
ATOM     27  C   UNL     1      38.787   7.058  18.020  0.00  0.00    +0.000 A 
BRANCH  22  29
ATOM     28  C   UNL     1      41.578   6.468  20.201  0.00  0.00    +0.000 C 
ATOM     29  C   UNL     1      40.364   5.907  19.519  0.00  0.00    +0.000 C 
ENDBRANCH  22  29
BRANCH  26  30
ATOM     30  C   UNL     1      37.162   8.234  16.538  0.00  0.00    +0.000 C 
ATOM     31  C   UNL     1      36.782   9.658  16.332  0.00  0.00    +0.000 C 
ENDBRANCH  26  30
ENDBRANCH  19  27
ENDBRANCH  18  20
ENDBRANCH  17  18
ENDBRANCH   1  17
TORSDOF 7
ENDMDL
