MODEL 1
REMARK VINA RESULT:      -7.3      0.000      0.000
REMARK  Name = 
REMARK  8 active torsions:
REMARK  status: ('A' for Active; 'I' for Inactive)
REMARK    1  A    between atoms: C_2  and  O_3
REMARK    2  A    between atoms: O_3  and  C_4
REMARK    3  A    between atoms: C_4  and  C_6
REMARK    4  A    between atoms: C_10  and  C_11
REMARK    5  A    between atoms: C_11  and  C_12
REMARK    6  A    between atoms: C_19  and  N_20
REMARK    7  A    between atoms: N_20  and  C_21
REMARK    8  A    between atoms: C_21  and  C_22
REMARK                            x       y       z     vdW  Elec       q    Type
REMARK                         _______ _______ _______ _____ _____    ______ ____
ROOT
ATOM      1  C   UNL     1      39.171   0.331  13.660  0.00  0.00    +0.000 A 
ATOM      2  S   UNL     1      40.182   1.678  13.909  0.00  0.00    +0.000 S 
ATOM      3  C   UNL     1      39.052   2.754  14.599  0.00  0.00    +0.000 A 
ATOM      4  N   UNL     1      39.144   4.038  15.057  0.00  0.00    +0.000 NA
ATOM      5  C   UNL     1      38.048   4.659  15.568  0.00  0.00    +0.000 A 
ATOM      6  N   UNL     1      36.934   3.952  15.585  0.00  0.00    +0.000 NA
ATOM      7  C   UNL     1      36.777   2.692  15.153  0.00  0.00    +0.000 A 
ATOM      8  C   UNL     1      37.898   2.020  14.616  0.00  0.00    +0.000 A 
ATOM      9  C   UNL     1      37.960   0.769  14.131  0.00  0.00    +0.000 A 
ATOM     10  C   UNL     1      36.779  -0.194  14.070  0.00  0.00    +0.000 C 
ENDROOT
BRANCH   1  11
ATOM     11  C   UNL     1      39.536  -0.965  13.082  0.00  0.00    +0.000 C 
ATOM     12  O   UNL     1      39.607  -1.083  11.835  0.00  0.00    +0.000 OA
BRANCH  11  13
ATOM     13  O   UNL     1      39.808  -2.070  13.862  0.00  0.00    +0.000 OA
BRANCH  13  15
ATOM     14  C   UNL     1      39.542  -3.038  16.040  0.00  0.00    +0.000 C 
ATOM     15  C   UNL     1      40.293  -2.041  15.169  0.00  0.00    +0.000 C 
ENDBRANCH  13  15
ENDBRANCH  11  13
ENDBRANCH   1  11
BRANCH   5  16
ATOM     16  C   UNL     1      38.214   6.034  16.041  0.00  0.00    +0.000 C 
BRANCH  16  17
ATOM     17  C   UNL     1      39.284   6.129  17.058  0.00  0.00    +0.000 A 
ATOM     18  C   UNL     1      38.895   5.999  18.386  0.00  0.00    +0.000 A 
ATOM     19  C   UNL     1      39.815   6.073  19.382  0.00  0.00    +0.000 A 
ATOM     20  C   UNL     1      41.164   6.283  19.088  0.00  0.00    +0.000 A 
ATOM     21  C   UNL     1      41.568   6.414  17.786  0.00  0.00    +0.000 A 
ATOM     22  C   UNL     1      40.602   6.333  16.795  0.00  0.00    +0.000 A 
ENDBRANCH  16  17
ENDBRANCH   5  16
BRANCH   7  23
ATOM     23  N   UNL     1      35.508   2.065  15.239  0.00  0.00    +0.000 NA
BRANCH  23  24
ATOM     24  C   UNL     1      34.878   1.950  16.524  0.00  0.00    +0.000 C 
BRANCH  24  25
ATOM     25  C   UNL     1      35.232   0.689  17.218  0.00  0.00    +0.000 A 
ATOM     26  C   UNL     1      36.185   0.748  18.205  0.00  0.00    +0.000 A 
ATOM     27  C   UNL     1      36.556  -0.388  18.885  0.00  0.00    +0.000 A 
ATOM     28  C   UNL     1      35.989  -1.603  18.600  0.00  0.00    +0.000 A 
ATOM     29  C   UNL     1      35.033  -1.650  17.608  0.00  0.00    +0.000 A 
ATOM     30  C   UNL     1      34.657  -0.519  16.925  0.00  0.00    +0.000 A 
ENDBRANCH  24  25
ENDBRANCH  23  24
ENDBRANCH   7  23
TORSDOF 8
ENDMDL
MODEL 2
REMARK VINA RESULT:      -7.2      2.276      4.327
REMARK  Name = 
REMARK  8 active torsions:
REMARK  status: ('A' for Active; 'I' for Inactive)
REMARK    1  A    between atoms: C_2  and  O_3
REMARK    2  A    between atoms: O_3  and  C_4
REMARK    3  A    between atoms: C_4  and  C_6
REMARK    4  A    between atoms: C_10  and  C_11
REMARK    5  A    between atoms: C_11  and  C_12
REMARK    6  A    between atoms: C_19  and  N_20
REMARK    7  A    between atoms: N_20  and  C_21
REMARK    8  A    between atoms: C_21  and  C_22
REMARK                            x       y       z     vdW  Elec       q    Type
REMARK                         _______ _______ _______ _____ _____    ______ ____
ROOT
ATOM      1  C   UNL     1      35.835  -0.566  16.745  0.00  0.00    +0.000 A 
ATOM      2  S   UNL     1      35.699   0.856  17.672  0.00  0.00    +0.000 S 
ATOM      3  C   UNL     1      36.460   1.956  16.613  0.00  0.00    +0.000 A 
ATOM      4  N   UNL     1      36.721   3.295  16.686  0.00  0.00    +0.000 NA
ATOM      5  C   UNL     1      37.359   3.922  15.663  0.00  0.00    +0.000 A 
ATOM      6  N   UNL     1      37.692   3.165  14.635  0.00  0.00    +0.000 NA
ATOM      7  C   UNL     1      37.466   1.850  14.500  0.00  0.00    +0.000 A 
ATOM      8  C   UNL     1      36.805   1.170  15.548  0.00  0.00    +0.000 A 
ATOM      9  C   UNL     1      36.482  -0.131  15.617  0.00  0.00    +0.000 A 
ATOM     10  C   UNL     1      36.785  -1.156  14.528  0.00  0.00    +0.000 C 
ENDROOT
BRANCH   1  11
ATOM     11  C   UNL     1      35.366  -1.909  17.096  0.00  0.00    +0.000 C 
ATOM     12  O   UNL     1      34.150  -2.188  16.968  0.00  0.00    +0.000 OA
BRANCH  11  13
ATOM     13  O   UNL     1      36.217  -2.887  17.565  0.00  0.00    +0.000 OA
BRANCH  13  15
ATOM     14  C   UNL     1      38.596  -3.015  17.282  0.00  0.00    +0.000 C 
ATOM     15  C   UNL     1      37.436  -2.664  18.204  0.00  0.00    +0.000 C 
ENDBRANCH  13  15
ENDBRANCH  11  13
ENDBRANCH   1  11
BRANCH   5  16
ATOM     16  C   UNL     1      37.608   5.358  15.805  0.00  0.00    +0.000 C 
BRANCH  16  17
ATOM     17  C   UNL     1      38.700   5.623  16.767  0.00  0.00    +0.000 A 
ATOM     18  C   UNL     1      39.953   5.893  16.230  0.00  0.00    +0.000 A 
ATOM     19  C   UNL     1      41.009   6.148  17.042  0.00  0.00    +0.000 A 
ATOM     20  C   UNL     1      40.854   6.141  18.431  0.00  0.00    +0.000 A 
ATOM     21  C   UNL     1      39.629   5.877  18.981  0.00  0.00    +0.000 A 
ATOM     22  C   UNL     1      38.572   5.622  18.121  0.00  0.00    +0.000 A 
ENDBRANCH  16  17
ENDBRANCH   5  16
BRANCH   7  23
ATOM     23  N   UNL     1      37.888   1.174  13.328  0.00  0.00    +0.000 NA
BRANCH  23  24
ATOM     24  C   UNL     1      39.292   1.113  13.031  0.00  0.00    +0.000 C 
BRANCH  24  25
ATOM     25  C   UNL     1      39.859  -0.238  13.248  0.00  0.00    +0.000 A 
ATOM     26  C   UNL     1      40.498  -0.479  14.440  0.00  0.00    +0.000 A 
ATOM     27  C   UNL     1      41.045  -1.713  14.701  0.00  0.00    +0.000 A 
ATOM     28  C   UNL     1      40.970  -2.731  13.788  0.00  0.00    +0.000 A 
ATOM     29  C   UNL     1      40.325  -2.478  12.595  0.00  0.00    +0.000 A 
ATOM     30  C   UNL     1      39.776  -1.248  12.327  0.00  0.00    +0.000 A 
ENDBRANCH  24  25
ENDBRANCH  23  24
ENDBRANCH   7  23
TORSDOF 8
ENDMDL
MODEL 3
REMARK VINA RESULT:      -7.1      3.309      7.647
REMARK  Name = 
REMARK  8 active torsions:
REMARK  status: ('A' for Active; 'I' for Inactive)
REMARK    1  A    between atoms: C_2  and  O_3
REMARK    2  A    between atoms: O_3  and  C_4
REMARK    3  A    between atoms: C_4  and  C_6
REMARK    4  A    between atoms: C_10  and  C_11
REMARK    5  A    between atoms: C_11  and  C_12
REMARK    6  A    between atoms: C_19  and  N_20
REMARK    7  A    between atoms: N_20  and  C_21
REMARK    8  A    between atoms: C_21  and  C_22
REMARK                            x       y       z     vdW  Elec       q    Type
REMARK                         _______ _______ _______ _____ _____    ______ ____
ROOT
ATOM      1  C   UNL     1      36.989   6.229  13.517  0.00  0.00    +0.000 A 
ATOM      2  S   UNL     1      35.635   5.203  13.400  0.00  0.00    +0.000 S 
ATOM      3  C   UNL     1      35.923   4.203  14.753  0.00  0.00    +0.000 A 
ATOM      4  N   UNL     1      35.249   3.145  15.292  0.00  0.00    +0.000 NA
ATOM      5  C   UNL     1      35.728   2.527  16.404  0.00  0.00    +0.000 A 
ATOM      6  N   UNL     1      36.851   3.012  16.901  0.00  0.00    +0.000 NA
ATOM      7  C   UNL     1      37.559   4.045  16.421  0.00  0.00    +0.000 A 
ATOM      8  C   UNL     1      37.086   4.707  15.266  0.00  0.00    +0.000 A 
ATOM      9  C   UNL     1      37.636   5.753  14.627  0.00  0.00    +0.000 A 
ATOM     10  C   UNL     1      38.927   6.445  15.052  0.00  0.00    +0.000 C 
ENDROOT
BRANCH   1  11
ATOM     11  C   UNL     1      37.345   7.340  12.630  0.00  0.00    +0.000 C 
ATOM     12  O   UNL     1      38.328   7.221  11.859  0.00  0.00    +0.000 OA
BRANCH  11  13
ATOM     13  O   UNL     1      36.636   8.523  12.609  0.00  0.00    +0.000 OA
BRANCH  13  15
ATOM     14  C   UNL     1      34.984   9.863  13.718  0.00  0.00    +0.000 C 
ATOM     15  C   UNL     1      36.421   9.359  13.705  0.00  0.00    +0.000 C 
ENDBRANCH  13  15
ENDBRANCH  11  13
ENDBRANCH   1  11
BRANCH   5  16
ATOM     16  C   UNL     1      34.958   1.399  16.932  0.00  0.00    +0.000 C 
BRANCH  16  17
ATOM     17  C   UNL     1      35.846   0.328  17.433  0.00  0.00    +0.000 A 
ATOM     18  C   UNL     1      36.504  -0.435  16.475  0.00  0.00    +0.000 A 
ATOM     19  C   UNL     1      37.337  -1.439  16.850  0.00  0.00    +0.000 A 
ATOM     20  C   UNL     1      37.545  -1.722  18.202  0.00  0.00    +0.000 A 
ATOM     21  C   UNL     1      36.906  -0.982  19.161  0.00  0.00    +0.000 A 
ATOM     22  C   UNL     1      36.062   0.035  18.743  0.00  0.00    +0.000 A 
ENDBRANCH  16  17
ENDBRANCH   5  16
BRANCH   7  23
ATOM     23  N   UNL     1      38.753   4.449  17.071  0.00  0.00    +0.000 NA
BRANCH  23  24
ATOM     24  C   UNL     1      38.743   4.619  18.497  0.00  0.00    +0.000 C 
BRANCH  24  25
ATOM     25  C   UNL     1      39.068   6.005  18.904  0.00  0.00    +0.000 A 
ATOM     26  C   UNL     1      40.203   6.203  19.652  0.00  0.00    +0.000 A 
ATOM     27  C   UNL     1      40.559   7.467  20.061  0.00  0.00    +0.000 A 
ATOM     28  C   UNL     1      39.797   8.558  19.737  0.00  0.00    +0.000 A 
ATOM     29  C   UNL     1      38.660   8.349  18.985  0.00  0.00    +0.000 A 
ATOM     30  C   UNL     1      38.299   7.089  18.573  0.00  0.00    +0.000 A 
ENDBRANCH  24  25
ENDBRANCH  23  24
ENDBRANCH   7  23
TORSDOF 8
ENDMDL
MODEL 4
REMARK VINA RESULT:      -6.9      3.159      6.150
REMARK  Name = 
REMARK  8 active torsions:
REMARK  status: ('A' for Active; 'I' for Inactive)
REMARK    1  A    between atoms: C_2  and  O_3
REMARK    2  A    between atoms: O_3  and  C_4
REMARK    3  A    between atoms: C_4  and  C_6
REMARK    4  A    between atoms: C_10  and  C_11
REMARK    5  A    between atoms: C_11  and  C_12
REMARK    6  A    between atoms: C_19  and  N_20
REMARK    7  A    between atoms: N_20  and  C_21
REMARK    8  A    between atoms: C_21  and  C_22
REMARK                            x       y       z     vdW  Elec       q    Type
REMARK                         _______ _______ _______ _____ _____    ______ ____
ROOT
ATOM      1  C   UNL     1      41.899  -1.840  12.157  0.00  0.00    +0.000 A 
ATOM      2  S   UNL     1      41.555  -3.168  13.166  0.00  0.00    +0.000 S 
ATOM      3  C   UNL     1      40.568  -2.393  14.322  0.00  0.00    +0.000 A 
ATOM      4  N   UNL     1      39.919  -2.832  15.441  0.00  0.00    +0.000 NA
ATOM      5  C   UNL     1      39.186  -1.965  16.189  0.00  0.00    +0.000 A 
ATOM      6  N   UNL     1      39.153  -0.716  15.764  0.00  0.00    +0.000 NA
ATOM      7  C   UNL     1      39.764  -0.221  14.678  0.00  0.00    +0.000 A 
ATOM      8  C   UNL     1      40.534  -1.099  13.881  0.00  0.00    +0.000 A 
ATOM      9  C   UNL     1      41.222  -0.814  12.763  0.00  0.00    +0.000 A 
ATOM     10  C   UNL     1      41.300   0.569  12.125  0.00  0.00    +0.000 C 
ENDROOT
BRANCH   1  11
ATOM     11  C   UNL     1      42.723  -1.830  10.945  0.00  0.00    +0.000 C 
ATOM     12  O   UNL     1      43.914  -1.443  11.014  0.00  0.00    +0.000 OA
BRANCH  11  13
ATOM     13  O   UNL     1      42.234  -2.233   9.719  0.00  0.00    +0.000 OA
BRANCH  13  15
ATOM     14  C   UNL     1      40.411  -0.966   8.812  0.00  0.00    +0.000 C 
ATOM     15  C   UNL     1      40.887  -2.302   9.366  0.00  0.00    +0.000 C 
ENDBRANCH  13  15
ENDBRANCH  11  13
ENDBRANCH   1  11
BRANCH   5  16
ATOM     16  C   UNL     1      38.516  -2.501  17.375  0.00  0.00    +0.000 C 
BRANCH  16  17
ATOM     17  C   UNL     1      37.129  -1.998  17.484  0.00  0.00    +0.000 A 
ATOM     18  C   UNL     1      36.199  -2.539  16.605  0.00  0.00    +0.000 A 
ATOM     19  C   UNL     1      34.905  -2.133  16.638  0.00  0.00    +0.000 A 
ATOM     20  C   UNL     1      34.488  -1.164  17.554  0.00  0.00    +0.000 A 
ATOM     21  C   UNL     1      35.388  -0.618  18.429  0.00  0.00    +0.000 A 
ATOM     22  C   UNL     1      36.702  -1.056  18.367  0.00  0.00    +0.000 A 
ENDBRANCH  16  17
ENDBRANCH   5  16
BRANCH   7  23
ATOM     23  N   UNL     1      39.632   1.152  14.353  0.00  0.00    +0.000 NA
BRANCH  23  24
ATOM     24  C   UNL     1      38.444   1.593  13.678  0.00  0.00    +0.000 C 
BRANCH  24  25
ATOM     25  C   UNL     1      37.330   1.872  14.615  0.00  0.00    +0.000 A 
ATOM     26  C   UNL     1      37.549   2.788  15.615  0.00  0.00    +0.000 A 
ATOM     27  C   UNL     1      36.554   3.090  16.515  0.00  0.00    +0.000 A 
ATOM     28  C   UNL     1      35.325   2.490  16.442  0.00  0.00    +0.000 A 
ATOM     29  C   UNL     1      35.116   1.572  15.434  0.00  0.00    +0.000 A 
ATOM     30  C   UNL     1      36.105   1.266  14.531  0.00  0.00    +0.000 A 
ENDBRANCH  24  25
ENDBRANCH  23  24
ENDBRANCH   7  23
TORSDOF 8
ENDMDL
MODEL 5
REMARK VINA RESULT:      -6.8      3.313      5.511
REMARK  Name = 
REMARK  8 active torsions:
REMARK  status: ('A' for Active; 'I' for Inactive)
REMARK    1  A    between atoms: C_2  and  O_3
REMARK    2  A    between atoms: O_3  and  C_4
REMARK    3  A    between atoms: C_4  and  C_6
REMARK    4  A    between atoms: C_10  and  C_11
REMARK    5  A    between atoms: C_11  and  C_12
REMARK    6  A    between atoms: C_19  and  N_20
REMARK    7  A    between atoms: N_20  and  C_21
REMARK    8  A    between atoms: C_21  and  C_22
REMARK                            x       y       z     vdW  Elec       q    Type
REMARK                         _______ _______ _______ _____ _____    ______ ____
ROOT
ATOM      1  C   UNL     1      35.592  -0.417  16.526  0.00  0.00    +0.000 A 
ATOM      2  S   UNL     1      35.326   1.123  17.201  0.00  0.00    +0.000 S 
ATOM      3  C   UNL     1      35.967   2.093  15.952  0.00  0.00    +0.000 A 
ATOM      4  N   UNL     1      36.096   3.443  15.790  0.00  0.00    +0.000 NA
ATOM      5  C   UNL     1      36.661   3.943  14.659  0.00  0.00    +0.000 A 
ATOM      6  N   UNL     1      37.057   3.056  13.766  0.00  0.00    +0.000 NA
ATOM      7  C   UNL     1      36.959   1.722  13.862  0.00  0.00    +0.000 A 
ATOM      8  C   UNL     1      36.377   1.172  15.027  0.00  0.00    +0.000 A 
ATOM      9  C   UNL     1      36.183  -0.123  15.324  0.00  0.00    +0.000 A 
ATOM     10  C   UNL     1      36.575  -1.286  14.419  0.00  0.00    +0.000 C 
ENDROOT
BRANCH   1  11
ATOM     11  C   UNL     1      35.260  -1.718  17.112  0.00  0.00    +0.000 C 
ATOM     12  O   UNL     1      34.146  -2.239  16.860  0.00  0.00    +0.000 OA
BRANCH  11  13
ATOM     13  O   UNL     1      36.131  -2.399  17.937  0.00  0.00    +0.000 OA
BRANCH  13  15
ATOM     14  C   UNL     1      38.468  -2.516  17.409  0.00  0.00    +0.000 C 
ATOM     15  C   UNL     1      37.393  -1.953  18.329  0.00  0.00    +0.000 C 
ENDBRANCH  13  15
ENDBRANCH  11  13
ENDBRANCH   1  11
BRANCH   5  16
ATOM     16  C   UNL     1      36.770   5.399  14.549  0.00  0.00    +0.000 C 
BRANCH  16  17
ATOM     17  C   UNL     1      35.769   5.944  13.606  0.00  0.00    +0.000 A 
ATOM     18  C   UNL     1      34.554   6.343  14.150  0.00  0.00    +0.000 A 
ATOM     19  C   UNL     1      33.581   6.855  13.355  0.00  0.00    +0.000 A 
ATOM     20  C   UNL     1      33.784   6.987  11.979  0.00  0.00    +0.000 A 
ATOM     21  C   UNL     1      34.974   6.601  11.424  0.00  0.00    +0.000 A 
ATOM     22  C   UNL     1      35.946   6.082  12.265  0.00  0.00    +0.000 A 
ENDBRANCH  16  17
ENDBRANCH   5  16
BRANCH   7  23
ATOM     23  N   UNL     1      37.434   0.897  12.812  0.00  0.00    +0.000 NA
BRANCH  23  24
ATOM     24  C   UNL     1      38.836   0.915  12.497  0.00  0.00    +0.000 C 
BRANCH  24  25
ATOM     25  C   UNL     1      39.539  -0.298  12.975  0.00  0.00    +0.000 A 
ATOM     26  C   UNL     1      40.150  -0.241  14.204  0.00  0.00    +0.000 A 
ATOM     27  C   UNL     1      40.818  -1.334  14.702  0.00  0.00    +0.000 A 
ATOM     28  C   UNL     1      40.895  -2.503  13.993  0.00  0.00    +0.000 A 
ATOM     29  C   UNL     1      40.279  -2.550  12.760  0.00  0.00    +0.000 A 
ATOM     30  C   UNL     1      39.609  -1.462  12.256  0.00  0.00    +0.000 A 
ENDBRANCH  24  25
ENDBRANCH  23  24
ENDBRANCH   7  23
TORSDOF 8
ENDMDL
MODEL 6
REMARK VINA RESULT:      -6.8      4.375      8.356
REMARK  Name = 
REMARK  8 active torsions:
REMARK  status: ('A' for Active; 'I' for Inactive)
REMARK    1  A    between atoms: C_2  and  O_3
REMARK    2  A    between atoms: O_3  and  C_4
REMARK    3  A    between atoms: C_4  and  C_6
REMARK    4  A    between atoms: C_10  and  C_11
REMARK    5  A    between atoms: C_11  and  C_12
REMARK    6  A    between atoms: C_19  and  N_20
REMARK    7  A    between atoms: N_20  and  C_21
REMARK    8  A    between atoms: C_21  and  C_22
REMARK                            x       y       z     vdW  Elec       q    Type
REMARK                         _______ _______ _______ _____ _____    ______ ____
ROOT
ATOM      1  C   UNL     1      35.116   8.160  14.056  0.00  0.00    +0.000 A 
ATOM      2  S   UNL     1      34.385   6.826  13.290  0.00  0.00    +0.000 S 
ATOM      3  C   UNL     1      35.457   5.595  13.787  0.00  0.00    +0.000 A 
ATOM      4  N   UNL     1      35.506   4.250  13.557  0.00  0.00    +0.000 NA
ATOM      5  C   UNL     1      36.503   3.501  14.098  0.00  0.00    +0.000 A 
ATOM      6  N   UNL     1      37.385   4.152  14.834  0.00  0.00    +0.000 NA
ATOM      7  C   UNL     1      37.394   5.467  15.099  0.00  0.00    +0.000 A 
ATOM      8  C   UNL     1      36.370   6.271  14.550  0.00  0.00    +0.000 A 
ATOM      9  C   UNL     1      36.193   7.595  14.688  0.00  0.00    +0.000 A 
ATOM     10  C   UNL     1      37.106   8.510  15.497  0.00  0.00    +0.000 C 
ENDROOT
BRANCH   1  11
ATOM     11  C   UNL     1      34.675   9.558  14.026  0.00  0.00    +0.000 C 
ATOM     12  O   UNL     1      35.122  10.324  13.139  0.00  0.00    +0.000 OA
BRANCH  11  13
ATOM     13  O   UNL     1      33.781  10.068  14.944  0.00  0.00    +0.000 OA
BRANCH  13  15
ATOM     14  C   UNL     1      33.256   9.496  17.214  0.00  0.00    +0.000 C 
ATOM     15  C   UNL     1      34.069  10.376  16.273  0.00  0.00    +0.000 C 
ENDBRANCH  13  15
ENDBRANCH  11  13
ENDBRANCH   1  11
BRANCH   5  16
ATOM     16  C   UNL     1      36.497   2.065  13.812  0.00  0.00    +0.000 C 
BRANCH  16  17
ATOM     17  C   UNL     1      36.065   1.283  14.990  0.00  0.00    +0.000 A 
ATOM     18  C   UNL     1      36.658   0.038  15.164  0.00  0.00    +0.000 A 
ATOM     19  C   UNL     1      36.318  -0.744  16.219  0.00  0.00    +0.000 A 
ATOM     20  C   UNL     1      35.366  -0.312  17.146  0.00  0.00    +0.000 A 
ATOM     21  C   UNL     1      34.770   0.911  16.994  0.00  0.00    +0.000 A 
ATOM     22  C   UNL     1      35.141   1.684  15.904  0.00  0.00    +0.000 A 
ENDBRANCH  16  17
ENDBRANCH   5  16
BRANCH   7  23
ATOM     23  N   UNL     1      38.416   6.019  15.912  0.00  0.00    +0.000 NA
BRANCH  23  24
ATOM     24  C   UNL     1      38.888   5.265  17.039  0.00  0.00    +0.000 C 
BRANCH  24  25
ATOM     25  C   UNL     1      39.108   6.112  18.235  0.00  0.00    +0.000 A 
ATOM     26  C   UNL     1      38.211   7.123  18.477  0.00  0.00    +0.000 A 
ATOM     27  C   UNL     1      38.361   7.942  19.571  0.00  0.00    +0.000 A 
ATOM     28  C   UNL     1      39.402   7.775  20.445  0.00  0.00    +0.000 A 
ATOM     29  C   UNL     1      40.298   6.757  20.193  0.00  0.00    +0.000 A 
ATOM     30  C   UNL     1      40.153   5.934  19.102  0.00  0.00    +0.000 A 
ENDBRANCH  24  25
ENDBRANCH  23  24
ENDBRANCH   7  23
TORSDOF 8
ENDMDL
MODEL 7
REMARK VINA RESULT:      -6.8      3.085      6.470
REMARK  Name = 
REMARK  8 active torsions:
REMARK  status: ('A' for Active; 'I' for Inactive)
REMARK    1  A    between atoms: C_2  and  O_3
REMARK    2  A    between atoms: O_3  and  C_4
REMARK    3  A    between atoms: C_4  and  C_6
REMARK    4  A    between atoms: C_10  and  C_11
REMARK    5  A    between atoms: C_11  and  C_12
REMARK    6  A    between atoms: C_19  and  N_20
REMARK    7  A    between atoms: N_20  and  C_21
REMARK    8  A    between atoms: C_21  and  C_22
REMARK                            x       y       z     vdW  Elec       q    Type
REMARK                         _______ _______ _______ _____ _____    ______ ____
ROOT
ATOM      1  C   UNL     1      40.008   6.192  16.117  0.00  0.00    +0.000 A 
ATOM      2  S   UNL     1      40.696   5.468  14.739  0.00  0.00    +0.000 S 
ATOM      3  C   UNL     1      39.772   4.035  14.683  0.00  0.00    +0.000 A 
ATOM      4  N   UNL     1      39.764   2.961  13.840  0.00  0.00    +0.000 NA
ATOM      5  C   UNL     1      38.894   1.938  14.047  0.00  0.00    +0.000 A 
ATOM      6  N   UNL     1      38.088   2.061  15.085  0.00  0.00    +0.000 NA
ATOM      7  C   UNL     1      38.044   3.086  15.949  0.00  0.00    +0.000 A 
ATOM      8  C   UNL     1      38.938   4.164  15.760  0.00  0.00    +0.000 A 
ATOM      9  C   UNL     1      39.061   5.278  16.500  0.00  0.00    +0.000 A 
ATOM     10  C   UNL     1      38.220   5.594  17.733  0.00  0.00    +0.000 C 
ENDROOT
BRANCH   1  11
ATOM     11  C   UNL     1      40.364   7.479  16.722  0.00  0.00    +0.000 C 
ATOM     12  O   UNL     1      39.820   8.528  16.300  0.00  0.00    +0.000 OA
BRANCH  11  13
ATOM     13  O   UNL     1      41.282   7.584  17.746  0.00  0.00    +0.000 OA
BRANCH  13  15
ATOM     14  C   UNL     1      41.044   6.485  19.865  0.00  0.00    +0.000 C 
ATOM     15  C   UNL     1      40.978   7.795  19.090  0.00  0.00    +0.000 C 
ENDBRANCH  13  15
ENDBRANCH  11  13
ENDBRANCH   1  11
BRANCH   5  16
ATOM     16  C   UNL     1      38.937   0.816  13.106  0.00  0.00    +0.000 C 
BRANCH  16  17
ATOM     17  C   UNL     1      38.736  -0.475  13.798  0.00  0.00    +0.000 A 
ATOM     18  C   UNL     1      37.824  -1.354  13.224  0.00  0.00    +0.000 A 
ATOM     19  C   UNL     1      37.580  -2.561  13.794  0.00  0.00    +0.000 A 
ATOM     20  C   UNL     1      38.239  -2.938  14.967  0.00  0.00    +0.000 A 
ATOM     21  C   UNL     1      39.141  -2.087  15.549  0.00  0.00    +0.000 A 
ATOM     22  C   UNL     1      39.366  -0.862  14.939  0.00  0.00    +0.000 A 
ENDBRANCH  16  17
ENDBRANCH   5  16
BRANCH   7  23
ATOM     23  N   UNL     1      37.117   3.071  17.021  0.00  0.00    +0.000 NA
BRANCH  23  24
ATOM     24  C   UNL     1      35.818   2.499  16.806  0.00  0.00    +0.000 C 
BRANCH  24  25
ATOM     25  C   UNL     1      35.771   1.056  17.139  0.00  0.00    +0.000 A 
ATOM     26  C   UNL     1      35.392   0.183  16.148  0.00  0.00    +0.000 A 
ATOM     27  C   UNL     1      35.330  -1.168  16.395  0.00  0.00    +0.000 A 
ATOM     28  C   UNL     1      35.642  -1.680  17.627  0.00  0.00    +0.000 A 
ATOM     29  C   UNL     1      36.022  -0.794  18.614  0.00  0.00    +0.000 A 
ATOM     30  C   UNL     1      36.086   0.557  18.374  0.00  0.00    +0.000 A 
ENDBRANCH  24  25
ENDBRANCH  23  24
ENDBRANCH   7  23
TORSDOF 8
ENDMDL
MODEL 8
REMARK VINA RESULT:      -6.8      2.979      6.772
REMARK  Name = 
REMARK  8 active torsions:
REMARK  status: ('A' for Active; 'I' for Inactive)
REMARK    1  A    between atoms: C_2  and  O_3
REMARK    2  A    between atoms: O_3  and  C_4
REMARK    3  A    between atoms: C_4  and  C_6
REMARK    4  A    between atoms: C_10  and  C_11
REMARK    5  A    between atoms: C_11  and  C_12
REMARK    6  A    between atoms: C_19  and  N_20
REMARK    7  A    between atoms: N_20  and  C_21
REMARK    8  A    between atoms: C_21  and  C_22
REMARK                            x       y       z     vdW  Elec       q    Type
REMARK                         _______ _______ _______ _____ _____    ______ ____
ROOT
ATOM      1  C   UNL     1      39.861   5.587  16.623  0.00  0.00    +0.000 A 
ATOM      2  S   UNL     1      38.749   5.141  17.833  0.00  0.00    +0.000 S 
ATOM      3  C   UNL     1      37.879   3.942  16.986  0.00  0.00    +0.000 A 
ATOM      4  N   UNL     1      36.827   3.138  17.322  0.00  0.00    +0.000 NA
ATOM      5  C   UNL     1      36.329   2.254  16.419  0.00  0.00    +0.000 A 
ATOM      6  N   UNL     1      36.919   2.234  15.238  0.00  0.00    +0.000 NA
ATOM      7  C   UNL     1      37.951   2.993  14.845  0.00  0.00    +0.000 A 
ATOM      8  C   UNL     1      38.491   3.923  15.763  0.00  0.00    +0.000 A 
ATOM      9  C   UNL     1      39.514   4.772  15.576  0.00  0.00    +0.000 A 
ATOM     10  C   UNL     1      40.314   4.892  14.283  0.00  0.00    +0.000 C 
ENDROOT
BRANCH   1  11
ATOM     11  C   UNL     1      40.919   6.598  16.712  0.00  0.00    +0.000 C 
ATOM     12  O   UNL     1      40.653   7.792  16.433  0.00  0.00    +0.000 OA
BRANCH  11  13
ATOM     13  O   UNL     1      42.207   6.285  17.093  0.00  0.00    +0.000 OA
BRANCH  13  15
ATOM     14  C   UNL     1      41.968   6.504  19.470  0.00  0.00    +0.000 C 
ATOM     15  C   UNL     1      42.844   6.740  18.247  0.00  0.00    +0.000 C 
ENDBRANCH  13  15
ENDBRANCH  11  13
ENDBRANCH   1  11
BRANCH   5  16
ATOM     16  C   UNL     1      35.202   1.421  16.843  0.00  0.00    +0.000 C 
BRANCH  16  17
ATOM     17  C   UNL     1      35.636   0.042  17.155  0.00  0.00    +0.000 A 
ATOM     18  C   UNL     1      35.454  -0.909  16.158  0.00  0.00    +0.000 A 
ATOM     19  C   UNL     1      35.826  -2.198  16.362  0.00  0.00    +0.000 A 
ATOM     20  C   UNL     1      36.395  -2.589  17.577  0.00  0.00    +0.000 A 
ATOM     21  C   UNL     1      36.584  -1.667  18.571  0.00  0.00    +0.000 A 
ATOM     22  C   UNL     1      36.193  -0.360  18.329  0.00  0.00    +0.000 A 
ENDBRANCH  16  17
ENDBRANCH   5  16
BRANCH   7  23
ATOM     23  N   UNL     1      38.476   2.855  13.535  0.00  0.00    +0.000 NA
BRANCH  23  24
ATOM     24  C   UNL     1      38.395   1.575  12.889  0.00  0.00    +0.000 C 
BRANCH  24  25
ATOM     25  C   UNL     1      39.248   0.555  13.542  0.00  0.00    +0.000 A 
ATOM     26  C   UNL     1      40.610   0.724  13.480  0.00  0.00    +0.000 A 
ATOM     27  C   UNL     1      41.454  -0.188  14.067  0.00  0.00    +0.000 A 
ATOM     28  C   UNL     1      40.966  -1.285  14.726  0.00  0.00    +0.000 A 
ATOM     29  C   UNL     1      39.598  -1.446  14.783  0.00  0.00    +0.000 A 
ATOM     30  C   UNL     1      38.748  -0.538  14.199  0.00  0.00    +0.000 A 
ENDBRANCH  24  25
ENDBRANCH  23  24
ENDBRANCH   7  23
TORSDOF 8
ENDMDL
MODEL 9
REMARK VINA RESULT:      -6.6      1.616      2.137
REMARK  Name = 
REMARK  8 active torsions:
REMARK  status: ('A' for Active; 'I' for Inactive)
REMARK    1  A    between atoms: C_2  and  O_3
REMARK    2  A    between atoms: O_3  and  C_4
REMARK    3  A    between atoms: C_4  and  C_6
REMARK    4  A    between atoms: C_10  and  C_11
REMARK    5  A    between atoms: C_11  and  C_12
REMARK    6  A    between atoms: C_19  and  N_20
REMARK    7  A    between atoms: N_20  and  C_21
REMARK    8  A    between atoms: C_21  and  C_22
REMARK                            x       y       z     vdW  Elec       q    Type
REMARK                         _______ _______ _______ _____ _____    ______ ____
ROOT
ATOM      1  C   UNL     1      40.431  -0.348  13.028  0.00  0.00    +0.000 A 
ATOM      2  S   UNL     1      41.072   1.221  13.188  0.00  0.00    +0.000 S 
ATOM      3  C   UNL     1      39.715   2.013  13.854  0.00  0.00    +0.000 A 
ATOM      4  N   UNL     1      39.486   3.301  14.248  0.00  0.00    +0.000 NA
ATOM      5  C   UNL     1      38.275   3.652  14.756  0.00  0.00    +0.000 A 
ATOM      6  N   UNL     1      37.376   2.689  14.835  0.00  0.00    +0.000 NA
ATOM      7  C   UNL     1      37.537   1.410  14.467  0.00  0.00    +0.000 A 
ATOM      8  C   UNL     1      38.785   1.014  13.935  0.00  0.00    +0.000 A 
ATOM      9  C   UNL     1      39.155  -0.204  13.508  0.00  0.00    +0.000 A 
ATOM     10  C   UNL     1      38.255  -1.436  13.522  0.00  0.00    +0.000 C 
ENDROOT
BRANCH   1  11
ATOM     11  C   UNL     1      41.104  -1.538  12.503  0.00  0.00    +0.000 C 
ATOM     12  O   UNL     1      41.683  -2.318  13.297  0.00  0.00    +0.000 OA
BRANCH  11  13
ATOM     13  O   UNL     1      41.127  -1.838  11.156  0.00  0.00    +0.000 OA
BRANCH  13  15
ATOM     14  C   UNL     1      41.417  -3.904   9.971  0.00  0.00    +0.000 C 
ATOM     15  C   UNL     1      40.440  -2.887  10.547  0.00  0.00    +0.000 C 
ENDBRANCH  13  15
ENDBRANCH  11  13
ENDBRANCH   1  11
BRANCH   5  16
ATOM     16  C   UNL     1      38.094   5.048  15.160  0.00  0.00    +0.000 C 
BRANCH  16  17
ATOM     17  C   UNL     1      38.917   5.377  16.344  0.00  0.00    +0.000 A 
ATOM     18  C   UNL     1      38.415   4.985  17.580  0.00  0.00    +0.000 A 
ATOM     19  C   UNL     1      39.108   5.249  18.717  0.00  0.00    +0.000 A 
ATOM     20  C   UNL     1      40.333   5.919  18.664  0.00  0.00    +0.000 A 
ATOM     21  C   UNL     1      40.844   6.313  17.456  0.00  0.00    +0.000 A 
ATOM     22  C   UNL     1      40.110   6.028  16.315  0.00  0.00    +0.000 A 
ENDBRANCH  16  17
ENDBRANCH   5  16
BRANCH   7  23
ATOM     23  N   UNL     1      36.468   0.489  14.614  0.00  0.00    +0.000 NA
BRANCH  23  24
ATOM     24  C   UNL     1      35.593   0.620  15.745  0.00  0.00    +0.000 C 
BRANCH  24  25
ATOM     25  C   UNL     1      36.094  -0.104  16.937  0.00  0.00    +0.000 A 
ATOM     26  C   UNL     1      35.627   0.289  18.168  0.00  0.00    +0.000 A 
ATOM     27  C   UNL     1      36.054  -0.344  19.311  0.00  0.00    +0.000 A 
ATOM     28  C   UNL     1      36.953  -1.376  19.257  0.00  0.00    +0.000 A 
ATOM     29  C   UNL     1      37.416  -1.763  18.017  0.00  0.00    +0.000 A 
ATOM     30  C   UNL     1      36.992  -1.136  16.870  0.00  0.00    +0.000 A 
ENDBRANCH  24  25
ENDBRANCH  23  24
ENDBRANCH   7  23
TORSDOF 8
ENDMDL
MODEL 10
REMARK VINA RESULT:      -6.6      2.618      3.525
REMARK  Name = 
REMARK  8 active torsions:
REMARK  status: ('A' for Active; 'I' for Inactive)
REMARK    1  A    between atoms: C_2  and  O_3
REMARK    2  A    between atoms: O_3  and  C_4
REMARK    3  A    between atoms: C_4  and  C_6
REMARK    4  A    between atoms: C_10  and  C_11
REMARK    5  A    between atoms: C_11  and  C_12
REMARK    6  A    between atoms: C_19  and  N_20
REMARK    7  A    between atoms: N_20  and  C_21
REMARK    8  A    between atoms: C_21  and  C_22
REMARK                            x       y       z     vdW  Elec       q    Type
REMARK                         _______ _______ _______ _____ _____    ______ ____
ROOT
ATOM      1  C   UNL     1      42.262  -0.952  13.456  0.00  0.00    +0.000 A 
ATOM      2  S   UNL     1      42.314   0.732  13.206  0.00  0.00    +0.000 S 
ATOM      3  C   UNL     1      40.808   1.163  13.883  0.00  0.00    +0.000 A 
ATOM      4  N   UNL     1      40.162   2.355  14.040  0.00  0.00    +0.000 NA
ATOM      5  C   UNL     1      38.939   2.395  14.632  0.00  0.00    +0.000 A 
ATOM      6  N   UNL     1      38.446   1.236  15.027  0.00  0.00    +0.000 NA
ATOM      7  C   UNL     1      39.027   0.034  14.904  0.00  0.00    +0.000 A 
ATOM      8  C   UNL     1      40.299  -0.039  14.292  0.00  0.00    +0.000 A 
ATOM      9  C   UNL     1      41.051  -1.130  14.071  0.00  0.00    +0.000 A 
ATOM     10  C   UNL     1      40.648  -2.550  14.457  0.00  0.00    +0.000 C 
ENDROOT
BRANCH   1  11
ATOM     11  C   UNL     1      43.281  -1.940  13.090  0.00  0.00    +0.000 C 
ATOM     12  O   UNL     1      43.033  -2.772  12.184  0.00  0.00    +0.000 OA
BRANCH  11  13
ATOM     13  O   UNL     1      44.512  -1.993  13.709  0.00  0.00    +0.000 OA
BRANCH  13  15
ATOM     14  C   UNL     1      46.074  -1.430  15.442  0.00  0.00    +0.000 C 
ATOM     15  C   UNL     1      44.727  -2.046  15.086  0.00  0.00    +0.000 C 
ENDBRANCH  13  15
ENDBRANCH  11  13
ENDBRANCH   1  11
BRANCH   5  16
ATOM     16  C   UNL     1      38.300   3.706  14.769  0.00  0.00    +0.000 C 
BRANCH  16  17
ATOM     17  C   UNL     1      38.828   4.443  15.938  0.00  0.00    +0.000 A 
ATOM     18  C   UNL     1      39.857   5.345  15.693  0.00  0.00    +0.000 A 
ATOM     19  C   UNL     1      40.397   6.063  16.710  0.00  0.00    +0.000 A 
ATOM     20  C   UNL     1      39.931   5.905  18.017  0.00  0.00    +0.000 A 
ATOM     21  C   UNL     1      38.918   5.021  18.279  0.00  0.00    +0.000 A 
ATOM     22  C   UNL     1      38.389   4.305  17.217  0.00  0.00    +0.000 A 
ENDBRANCH  16  17
ENDBRANCH   5  16
BRANCH   7  23
ATOM     23  N   UNL     1      38.366  -1.126  15.381  0.00  0.00    +0.000 NA
BRANCH  23  24
ATOM     24  C   UNL     1      37.379  -0.985  16.415  0.00  0.00    +0.000 C 
BRANCH  24  25
ATOM     25  C   UNL     1      37.709  -1.774  17.624  0.00  0.00    +0.000 A 
ATOM     26  C   UNL     1      37.139  -1.390  18.814  0.00  0.00    +0.000 A 
ATOM     27  C   UNL     1      37.405  -2.083  19.971  0.00  0.00    +0.000 A 
ATOM     28  C   UNL     1      38.242  -3.168  19.972  0.00  0.00    +0.000 A 
ATOM     29  C   UNL     1      38.809  -3.545  18.773  0.00  0.00    +0.000 A 
ATOM     30  C   UNL     1      38.546  -2.858  17.613  0.00  0.00    +0.000 A 
ENDBRANCH  24  25
ENDBRANCH  23  24
ENDBRANCH   7  23
TORSDOF 8
ENDMDL
