MODEL 1
REMARK VINA RESULT:      -7.9      0.000      0.000
REMARK  Name = 
REMARK  6 active torsions:
REMARK  status: ('A' for Active; 'I' for Inactive)
REMARK    1  A    between atoms: C_2  and  O_3
REMARK    2  A    between atoms: O_3  and  C_4
REMARK    3  A    between atoms: C_7  and  N_8
REMARK    4  A    between atoms: C_9  and  C_11
REMARK    5  A    between atoms: C_12  and  N_13
REMARK    6  A    between atoms: C_14  and  C_16
REMARK                            x       y       z     vdW  Elec       q    Type
REMARK                         _______ _______ _______ _____ _____    ______ ____
ROOT
ATOM      1  C   UNL     1      37.304   4.665  15.330  0.00  0.00    +0.000 A 
ATOM      2  C   UNL     1      36.451   3.636  15.563  0.00  0.00    +0.000 A 
ATOM      3  S   UNL     1      35.126   4.048  14.462  0.00  0.00    +0.000 S 
ATOM      4  C   UNL     1      35.744   5.464  13.795  0.00  0.00    +0.000 A 
ATOM      5  C   UNL     1      36.940   5.601  14.418  0.00  0.00    +0.000 A 
ATOM      6  C   UNL     1      37.849   6.787  14.091  0.00  0.00    +0.000 C 
ATOM      7  C   UNL     1      37.192   8.059  14.543  0.00  0.00    +0.000 C 
ATOM      8  C   UNL     1      35.702   7.834  14.668  0.00  0.00    +0.000 C 
ATOM      9  C   UNL     1      35.038   7.766  13.311  0.00  0.00    +0.000 C 
ATOM     10  C   UNL     1      35.082   6.344  12.747  0.00  0.00    +0.000 C 
ENDROOT
BRANCH   1  12
ATOM     11  N   UNL     1      38.577   5.916  17.099  0.00  0.00    +0.000 NA
ATOM     12  C   UNL     1      38.520   4.838  16.171  0.00  0.00    +0.000 C 
ATOM     13  O   UNL     1      39.506   4.107  16.130  0.00  0.00    +0.000 OA
BRANCH  11  17
ATOM     14  C   UNL     1      41.941   6.580  19.553  0.00  0.00    +0.000 A 
ATOM     15  C   UNL     1      42.068   6.588  18.179  0.00  0.00    +0.000 A 
ATOM     16  C   UNL     1      40.938   6.364  17.378  0.00  0.00    +0.000 A 
ATOM     17  C   UNL     1      39.708   6.138  17.928  0.00  0.00    +0.000 A 
ATOM     18  C   UNL     1      39.592   6.132  19.295  0.00  0.00    +0.000 A 
ATOM     19  C   UNL     1      40.703   6.352  20.100  0.00  0.00    +0.000 A 
BRANCH  14  20
ATOM     20  O   UNL     1      43.076   6.804  20.324  0.00  0.00    +0.000 OA
BRANCH  20  22
ATOM     21  C   UNL     1      44.412   5.271  21.659  0.00  0.00    +0.000 C 
ATOM     22  C   UNL     1      43.231   6.210  21.599  0.00  0.00    +0.000 C 
ENDBRANCH  20  22
ENDBRANCH  14  20
ENDBRANCH  11  17
ENDBRANCH   1  12
BRANCH   2  23
ATOM     23  N   UNL     1      36.370   2.431  16.203  0.00  0.00    +0.000 NA
ATOM     24  C   UNL     1      35.508   1.572  16.770  0.00  0.00    +0.000 C 
ATOM     25  O   UNL     1      34.286   1.850  16.826  0.00  0.00    +0.000 OA
BRANCH  24  26
ATOM     26  C   UNL     1      35.922   0.259  17.356  0.00  0.00    +0.000 A 
ATOM     27  C   UNL     1      36.187   0.141  18.699  0.00  0.00    +0.000 A 
ATOM     28  C   UNL     1      36.571  -1.109  19.198  0.00  0.00    +0.000 A 
ATOM     29  C   UNL     1      36.686  -2.211  18.375  0.00  0.00    +0.000 A 
ATOM     30  C   UNL     1      36.417  -2.087  17.020  0.00  0.00    +0.000 A 
ATOM     31  C   UNL     1      36.045  -0.857  16.562  0.00  0.00    +0.000 A 
ENDBRANCH  24  26
ENDBRANCH   2  23
TORSDOF 6
ENDMDL
MODEL 2
REMARK VINA RESULT:      -7.7     24.565     27.276
REMARK  Name = 
REMARK  6 active torsions:
REMARK  status: ('A' for Active; 'I' for Inactive)
REMARK    1  A    between atoms: C_2  and  O_3
REMARK    2  A    between atoms: O_3  and  C_4
REMARK    3  A    between atoms: C_7  and  N_8
REMARK    4  A    between atoms: C_9  and  C_11
REMARK    5  A    between atoms: C_12  and  N_13
REMARK    6  A    between atoms: C_14  and  C_16
REMARK                            x       y       z     vdW  Elec       q    Type
REMARK                         _______ _______ _______ _____ _____    ______ ____
ROOT
ATOM      1  C   UNL     1      12.595   0.615  28.969  0.00  0.00    +0.000 A 
ATOM      2  C   UNL     1      12.649   0.557  30.323  0.00  0.00    +0.000 A 
ATOM      3  S   UNL     1      11.235   1.534  30.753  0.00  0.00    +0.000 S 
ATOM      4  C   UNL     1      10.685   1.928  29.212  0.00  0.00    +0.000 A 
ATOM      5  C   UNL     1      11.583   1.317  28.400  0.00  0.00    +0.000 A 
ATOM      6  C   UNL     1      11.445   1.423  26.881  0.00  0.00    +0.000 C 
ATOM      7  C   UNL     1      11.665   2.847  26.457  0.00  0.00    +0.000 C 
ATOM      8  C   UNL     1      11.421   3.760  27.637  0.00  0.00    +0.000 C 
ATOM      9  C   UNL     1       9.945   3.893  27.938  0.00  0.00    +0.000 C 
ATOM     10  C   UNL     1       9.469   2.772  28.864  0.00  0.00    +0.000 C 
ENDROOT
BRANCH   1  12
ATOM     11  N   UNL     1      14.876   0.844  27.939  0.00  0.00    +0.000 NA
ATOM     12  C   UNL     1      13.706   0.060  28.148  0.00  0.00    +0.000 C 
ATOM     13  O   UNL     1      13.698  -1.049  27.623  0.00  0.00    +0.000 OA
BRANCH  11  17
ATOM     14  C   UNL     1      18.120  -0.544  25.632  0.00  0.00    +0.000 A 
ATOM     15  C   UNL     1      16.939  -0.176  25.023  0.00  0.00    +0.000 A 
ATOM     16  C   UNL     1      15.869   0.283  25.806  0.00  0.00    +0.000 A 
ATOM     17  C   UNL     1      15.970   0.376  27.166  0.00  0.00    +0.000 A 
ATOM     18  C   UNL     1      17.149   0.007  27.763  0.00  0.00    +0.000 A 
ATOM     19  C   UNL     1      18.216  -0.449  26.998  0.00  0.00    +0.000 A 
BRANCH  14  20
ATOM     20  O   UNL     1      19.165  -0.996  24.834  0.00  0.00    +0.000 OA
BRANCH  20  22
ATOM     21  C   UNL     1      20.074   0.358  23.029  0.00  0.00    +0.000 C 
ATOM     22  C   UNL     1      20.222  -0.139  24.447  0.00  0.00    +0.000 C 
ENDBRANCH  20  22
ENDBRANCH  14  20
ENDBRANCH  11  17
ENDBRANCH   1  12
BRANCH   2  23
ATOM     23  N   UNL     1      13.298  -0.073  31.347  0.00  0.00    +0.000 NA
ATOM     24  C   UNL     1      14.294   0.067  32.236  0.00  0.00    +0.000 C 
ATOM     25  O   UNL     1      14.997   1.106  32.236  0.00  0.00    +0.000 OA
BRANCH  24  26
ATOM     26  C   UNL     1      14.632  -0.968  33.263  0.00  0.00    +0.000 A 
ATOM     27  C   UNL     1      14.225  -2.271  33.108  0.00  0.00    +0.000 A 
ATOM     28  C   UNL     1      14.566  -3.201  34.096  0.00  0.00    +0.000 A 
ATOM     29  C   UNL     1      15.295  -2.836  35.209  0.00  0.00    +0.000 A 
ATOM     30  C   UNL     1      15.704  -1.520  35.362  0.00  0.00    +0.000 A 
ATOM     31  C   UNL     1      15.357  -0.636  34.383  0.00  0.00    +0.000 A 
ENDBRANCH  24  26
ENDBRANCH   2  23
TORSDOF 6
ENDMDL
MODEL 3
REMARK VINA RESULT:      -7.7      2.579      7.110
REMARK  Name = 
REMARK  6 active torsions:
REMARK  status: ('A' for Active; 'I' for Inactive)
REMARK    1  A    between atoms: C_2  and  O_3
REMARK    2  A    between atoms: O_3  and  C_4
REMARK    3  A    between atoms: C_7  and  N_8
REMARK    4  A    between atoms: C_9  and  C_11
REMARK    5  A    between atoms: C_12  and  N_13
REMARK    6  A    between atoms: C_14  and  C_16
REMARK                            x       y       z     vdW  Elec       q    Type
REMARK                         _______ _______ _______ _____ _____    ______ ____
ROOT
ATOM      1  C   UNL     1      37.701   5.625  15.495  0.00  0.00    +0.000 A 
ATOM      2  C   UNL     1      38.603   6.460  16.071  0.00  0.00    +0.000 A 
ATOM      3  S   UNL     1      38.046   8.025  15.454  0.00  0.00    +0.000 S 
ATOM      4  C   UNL     1      36.731   7.514  14.537  0.00  0.00    +0.000 A 
ATOM      5  C   UNL     1      36.738   6.169  14.710  0.00  0.00    +0.000 A 
ATOM      6  C   UNL     1      35.679   5.299  14.033  0.00  0.00    +0.000 C 
ATOM      7  C   UNL     1      35.867   5.352  12.544  0.00  0.00    +0.000 C 
ATOM      8  C   UNL     1      36.640   6.600  12.184  0.00  0.00    +0.000 C 
ATOM      9  C   UNL     1      35.777   7.837  12.297  0.00  0.00    +0.000 C 
ATOM     10  C   UNL     1      35.790   8.389  13.724  0.00  0.00    +0.000 C 
ENDROOT
BRANCH   1  12
ATOM     11  N   UNL     1      38.268   3.414  14.445  0.00  0.00    +0.000 NA
ATOM     12  C   UNL     1      37.872   4.150  15.597  0.00  0.00    +0.000 C 
ATOM     13  O   UNL     1      37.697   3.497  16.622  0.00  0.00    +0.000 OA
BRANCH  11  17
ATOM     14  C   UNL     1      38.809  -0.767  14.533  0.00  0.00    +0.000 A 
ATOM     15  C   UNL     1      39.898   0.078  14.571  0.00  0.00    +0.000 A 
ATOM     16  C   UNL     1      39.700   1.466  14.540  0.00  0.00    +0.000 A 
ATOM     17  C   UNL     1      38.446   2.006  14.473  0.00  0.00    +0.000 A 
ATOM     18  C   UNL     1      37.368   1.157  14.436  0.00  0.00    +0.000 A 
ATOM     19  C   UNL     1      37.551  -0.220  14.466  0.00  0.00    +0.000 A 
BRANCH  14  20
ATOM     20  O   UNL     1      39.033  -2.139  14.565  0.00  0.00    +0.000 OA
BRANCH  20  22
ATOM     21  C   UNL     1      39.177  -3.601  16.503  0.00  0.00    +0.000 C 
ATOM     22  C   UNL     1      39.905  -2.723  15.514  0.00  0.00    +0.000 C 
ENDBRANCH  20  22
ENDBRANCH  14  20
ENDBRANCH  11  17
ENDBRANCH   1  12
BRANCH   2  23
ATOM     23  N   UNL     1      39.608   6.483  16.997  0.00  0.00    +0.000 NA
ATOM     24  C   UNL     1      39.925   6.112  18.248  0.00  0.00    +0.000 C 
ATOM     25  O   UNL     1      39.077   5.534  18.968  0.00  0.00    +0.000 OA
BRANCH  24  26
ATOM     26  C   UNL     1      41.271   6.349  18.859  0.00  0.00    +0.000 A 
ATOM     27  C   UNL     1      42.354   6.662  18.074  0.00  0.00    +0.000 A 
ATOM     28  C   UNL     1      43.590   6.874  18.694  0.00  0.00    +0.000 A 
ATOM     29  C   UNL     1      43.738   6.775  20.062  0.00  0.00    +0.000 A 
ATOM     30  C   UNL     1      42.643   6.458  20.851  0.00  0.00    +0.000 A 
ATOM     31  C   UNL     1      41.450   6.257  20.219  0.00  0.00    +0.000 A 
ENDBRANCH  24  26
ENDBRANCH   2  23
TORSDOF 6
ENDMDL
MODEL 4
REMARK VINA RESULT:      -7.7      2.865      7.121
REMARK  Name = 
REMARK  6 active torsions:
REMARK  status: ('A' for Active; 'I' for Inactive)
REMARK    1  A    between atoms: C_2  and  O_3
REMARK    2  A    between atoms: O_3  and  C_4
REMARK    3  A    between atoms: C_7  and  N_8
REMARK    4  A    between atoms: C_9  and  C_11
REMARK    5  A    between atoms: C_12  and  N_13
REMARK    6  A    between atoms: C_14  and  C_16
REMARK                            x       y       z     vdW  Elec       q    Type
REMARK                         _______ _______ _______ _____ _____    ______ ____
ROOT
ATOM      1  C   UNL     1      36.820   6.254  14.546  0.00  0.00    +0.000 A 
ATOM      2  C   UNL     1      37.532   6.930  15.483  0.00  0.00    +0.000 A 
ATOM      3  S   UNL     1      36.664   8.474  15.506  0.00  0.00    +0.000 S 
ATOM      4  C   UNL     1      35.480   8.150  14.355  0.00  0.00    +0.000 A 
ATOM      5  C   UNL     1      35.764   6.881  13.971  0.00  0.00    +0.000 A 
ATOM      6  C   UNL     1      34.906   6.185  12.915  0.00  0.00    +0.000 C 
ATOM      7  C   UNL     1      35.075   6.882  11.595  0.00  0.00    +0.000 C 
ATOM      8  C   UNL     1      35.574   8.288  11.835  0.00  0.00    +0.000 C 
ATOM      9  C   UNL     1      34.476   9.182  12.366  0.00  0.00    +0.000 C 
ATOM     10  C   UNL     1      34.378   9.088  13.890  0.00  0.00    +0.000 C 
ENDROOT
BRANCH   1  12
ATOM     11  N   UNL     1      36.908   3.751  14.760  0.00  0.00    +0.000 NA
ATOM     12  C   UNL     1      37.291   4.929  14.058  0.00  0.00    +0.000 C 
ATOM     13  O   UNL     1      38.003   4.762  13.071  0.00  0.00    +0.000 OA
BRANCH  11  17
ATOM     14  C   UNL     1      38.154  -0.089  13.546  0.00  0.00    +0.000 A 
ATOM     15  C   UNL     1      38.973   0.692  14.334  0.00  0.00    +0.000 A 
ATOM     16  C   UNL     1      38.542   1.968  14.728  0.00  0.00    +0.000 A 
ATOM     17  C   UNL     1      37.325   2.458  14.348  0.00  0.00    +0.000 A 
ATOM     18  C   UNL     1      36.518   1.673  13.564  0.00  0.00    +0.000 A 
ATOM     19  C   UNL     1      36.932   0.408  13.167  0.00  0.00    +0.000 A 
BRANCH  14  20
ATOM     20  O   UNL     1      38.604  -1.350  13.169  0.00  0.00    +0.000 OA
BRANCH  20  22
ATOM     21  C   UNL     1      37.312  -3.285  13.876  0.00  0.00    +0.000 C 
ATOM     22  C   UNL     1      38.555  -2.448  14.060  0.00  0.00    +0.000 C 
ENDBRANCH  20  22
ENDBRANCH  14  20
ENDBRANCH  11  17
ENDBRANCH   1  12
BRANCH   2  23
ATOM     23  N   UNL     1      38.513   6.759  16.419  0.00  0.00    +0.000 NA
ATOM     24  C   UNL     1      38.947   5.928  17.381  0.00  0.00    +0.000 C 
ATOM     25  O   UNL     1      38.303   4.886  17.651  0.00  0.00    +0.000 OA
BRANCH  24  26
ATOM     26  C   UNL     1      40.190   6.172  18.177  0.00  0.00    +0.000 A 
ATOM     27  C   UNL     1      41.394   6.389  17.552  0.00  0.00    +0.000 A 
ATOM     28  C   UNL     1      42.527   6.611  18.343  0.00  0.00    +0.000 A 
ATOM     29  C   UNL     1      42.457   6.616  19.720  0.00  0.00    +0.000 A 
ATOM     30  C   UNL     1      41.240   6.396  20.347  0.00  0.00    +0.000 A 
ATOM     31  C   UNL     1      40.152   6.182  19.551  0.00  0.00    +0.000 A 
ENDBRANCH  24  26
ENDBRANCH   2  23
TORSDOF 6
ENDMDL
MODEL 5
REMARK VINA RESULT:      -7.6     27.216     29.026
REMARK  Name = 
REMARK  6 active torsions:
REMARK  status: ('A' for Active; 'I' for Inactive)
REMARK    1  A    between atoms: C_2  and  O_3
REMARK    2  A    between atoms: O_3  and  C_4
REMARK    3  A    between atoms: C_7  and  N_8
REMARK    4  A    between atoms: C_9  and  C_11
REMARK    5  A    between atoms: C_12  and  N_13
REMARK    6  A    between atoms: C_14  and  C_16
REMARK                            x       y       z     vdW  Elec       q    Type
REMARK                         _______ _______ _______ _____ _____    ______ ____
ROOT
ATOM      1  C   UNL     1      23.964  17.096  39.777  0.00  0.00    +0.000 A 
ATOM      2  C   UNL     1      23.996  17.443  38.466  0.00  0.00    +0.000 A 
ATOM      3  S   UNL     1      23.458  19.129  38.558  0.00  0.00    +0.000 S 
ATOM      4  C   UNL     1      23.246  19.267  40.221  0.00  0.00    +0.000 A 
ATOM      5  C   UNL     1      23.582  18.036  40.678  0.00  0.00    +0.000 A 
ATOM      6  C   UNL     1      23.530  17.727  42.174  0.00  0.00    +0.000 C 
ATOM      7  C   UNL     1      22.105  17.780  42.645  0.00  0.00    +0.000 C 
ATOM      8  C   UNL     1      21.290  18.607  41.677  0.00  0.00    +0.000 C 
ATOM      9  C   UNL     1      21.581  20.084  41.831  0.00  0.00    +0.000 C 
ATOM     10  C   UNL     1      22.784  20.499  40.983  0.00  0.00    +0.000 C 
ENDROOT
BRANCH   1  12
ATOM     11  N   UNL     1      25.391  15.332  40.859  0.00  0.00    +0.000 NA
ATOM     12  C   UNL     1      24.187  15.681  40.185  0.00  0.00    +0.000 C 
ATOM     13  O   UNL     1      23.395  14.765  39.983  0.00  0.00    +0.000 OA
BRANCH  11  17
ATOM     14  C   UNL     1      26.215  11.381  42.077  0.00  0.00    +0.000 A 
ATOM     15  C   UNL     1      26.682  11.848  40.866  0.00  0.00    +0.000 A 
ATOM     16  C   UNL     1      26.397  13.166  40.477  0.00  0.00    +0.000 A 
ATOM     17  C   UNL     1      25.665  14.002  41.272  0.00  0.00    +0.000 A 
ATOM     18  C   UNL     1      25.205  13.527  42.474  0.00  0.00    +0.000 A 
ATOM     19  C   UNL     1      25.480  12.225  42.872  0.00  0.00    +0.000 A 
BRANCH  14  20
ATOM     20  O   UNL     1      26.510  10.071  42.440  0.00  0.00    +0.000 OA
BRANCH  20  22
ATOM     21  C   UNL     1      26.134   7.811  41.625  0.00  0.00    +0.000 C 
ATOM     22  C   UNL     1      26.895   9.107  41.478  0.00  0.00    +0.000 C 
ENDBRANCH  20  22
ENDBRANCH  14  20
ENDBRANCH  11  17
ENDBRANCH   1  12
BRANCH   2  23
ATOM     23  N   UNL     1      24.410  16.993  37.244  0.00  0.00    +0.000 NA
ATOM     24  C   UNL     1      25.500  16.790  36.487  0.00  0.00    +0.000 C 
ATOM     25  O   UNL     1      26.635  17.102  36.920  0.00  0.00    +0.000 OA
BRANCH  24  26
ATOM     26  C   UNL     1      25.448  16.196  35.114  0.00  0.00    +0.000 A 
ATOM     27  C   UNL     1      25.830  14.894  34.897  0.00  0.00    +0.000 A 
ATOM     28  C   UNL     1      25.763  14.386  33.595  0.00  0.00    +0.000 A 
ATOM     29  C   UNL     1      25.325  15.159  32.540  0.00  0.00    +0.000 A 
ATOM     30  C   UNL     1      24.941  16.472  32.763  0.00  0.00    +0.000 A 
ATOM     31  C   UNL     1      25.016  16.941  34.043  0.00  0.00    +0.000 A 
ENDBRANCH  24  26
ENDBRANCH   2  23
TORSDOF 6
ENDMDL
MODEL 6
REMARK VINA RESULT:      -7.5      4.912      8.893
REMARK  Name = 
REMARK  6 active torsions:
REMARK  status: ('A' for Active; 'I' for Inactive)
REMARK    1  A    between atoms: C_2  and  O_3
REMARK    2  A    between atoms: O_3  and  C_4
REMARK    3  A    between atoms: C_7  and  N_8
REMARK    4  A    between atoms: C_9  and  C_11
REMARK    5  A    between atoms: C_12  and  N_13
REMARK    6  A    between atoms: C_14  and  C_16
REMARK                            x       y       z     vdW  Elec       q    Type
REMARK                         _______ _______ _______ _____ _____    ______ ____
ROOT
ATOM      1  C   UNL     1      37.458  -1.463  15.968  0.00  0.00    +0.000 A 
ATOM      2  C   UNL     1      37.043  -0.171  15.981  0.00  0.00    +0.000 A 
ATOM      3  S   UNL     1      35.308  -0.385  16.270  0.00  0.00    +0.000 S 
ATOM      4  C   UNL     1      35.242  -2.064  16.359  0.00  0.00    +0.000 A 
ATOM      5  C   UNL     1      36.532  -2.434  16.166  0.00  0.00    +0.000 A 
ATOM      6  C   UNL     1      36.920  -3.912  16.175  0.00  0.00    +0.000 C 
ATOM      7  C   UNL     1      36.291  -4.601  14.998  0.00  0.00    +0.000 C 
ATOM      8  C   UNL     1      35.107  -3.791  14.521  0.00  0.00    +0.000 C 
ATOM      9  C   UNL     1      33.927  -3.932  15.458  0.00  0.00    +0.000 C 
ATOM     10  C   UNL     1      34.006  -2.917  16.600  0.00  0.00    +0.000 C 
ENDROOT
BRANCH   1  12
ATOM     11  N   UNL     1      39.327  -1.447  14.288  0.00  0.00    +0.000 NA
ATOM     12  C   UNL     1      38.858  -1.798  15.585  0.00  0.00    +0.000 C 
ATOM     13  O   UNL     1      39.663  -2.367  16.316  0.00  0.00    +0.000 OA
BRANCH  11  17
ATOM     14  C   UNL     1      43.256  -2.307  13.023  0.00  0.00    +0.000 A 
ATOM     15  C   UNL     1      42.995  -1.172  13.761  0.00  0.00    +0.000 A 
ATOM     16  C   UNL     1      41.681  -0.901  14.173  0.00  0.00    +0.000 A 
ATOM     17  C   UNL     1      40.648  -1.739  13.859  0.00  0.00    +0.000 A 
ATOM     18  C   UNL     1      40.919  -2.865  13.124  0.00  0.00    +0.000 A 
ATOM     19  C   UNL     1      42.215  -3.145  12.710  0.00  0.00    +0.000 A 
BRANCH  14  20
ATOM     20  O   UNL     1      44.566  -2.552  12.627  0.00  0.00    +0.000 OA
BRANCH  20  22
ATOM     21  C   UNL     1      45.673  -4.598  11.917  0.00  0.00    +0.000 C 
ATOM     22  C   UNL     1      45.266  -3.703  13.062  0.00  0.00    +0.000 C 
ENDBRANCH  20  22
ENDBRANCH  14  20
ENDBRANCH  11  17
ENDBRANCH   1  12
BRANCH   2  23
ATOM     23  N   UNL     1      37.517   1.110  15.989  0.00  0.00    +0.000 NA
ATOM     24  C   UNL     1      37.307   2.337  15.484  0.00  0.00    +0.000 C 
ATOM     25  O   UNL     1      36.374   2.531  14.669  0.00  0.00    +0.000 OA
BRANCH  24  26
ATOM     26  C   UNL     1      38.140   3.527  15.843  0.00  0.00    +0.000 A 
ATOM     27  C   UNL     1      39.116   3.984  14.991  0.00  0.00    +0.000 A 
ATOM     28  C   UNL     1      39.868   5.101  15.374  0.00  0.00    +0.000 A 
ATOM     29  C   UNL     1      39.648   5.743  16.575  0.00  0.00    +0.000 A 
ATOM     30  C   UNL     1      38.661   5.278  17.432  0.00  0.00    +0.000 A 
ATOM     31  C   UNL     1      37.945   4.187  17.033  0.00  0.00    +0.000 A 
ENDBRANCH  24  26
ENDBRANCH   2  23
TORSDOF 6
ENDMDL
MODEL 7
REMARK VINA RESULT:      -7.5     26.870     28.706
REMARK  Name = 
REMARK  6 active torsions:
REMARK  status: ('A' for Active; 'I' for Inactive)
REMARK    1  A    between atoms: C_2  and  O_3
REMARK    2  A    between atoms: O_3  and  C_4
REMARK    3  A    between atoms: C_7  and  N_8
REMARK    4  A    between atoms: C_9  and  C_11
REMARK    5  A    between atoms: C_12  and  N_13
REMARK    6  A    between atoms: C_14  and  C_16
REMARK                            x       y       z     vdW  Elec       q    Type
REMARK                         _______ _______ _______ _____ _____    ______ ____
ROOT
ATOM      1  C   UNL     1      24.523  15.025  41.238  0.00  0.00    +0.000 A 
ATOM      2  C   UNL     1      25.303  14.158  41.931  0.00  0.00    +0.000 A 
ATOM      3  S   UNL     1      24.941  14.646  43.595  0.00  0.00    +0.000 S 
ATOM      4  C   UNL     1      23.841  15.883  43.294  0.00  0.00    +0.000 A 
ATOM      5  C   UNL     1      23.770  15.908  41.940  0.00  0.00    +0.000 A 
ATOM      6  C   UNL     1      22.856  16.910  41.234  0.00  0.00    +0.000 C 
ATOM      7  C   UNL     1      23.363  18.303  41.475  0.00  0.00    +0.000 C 
ATOM      8  C   UNL     1      24.233  18.309  42.711  0.00  0.00    +0.000 C 
ATOM      9  C   UNL     1      23.405  18.203  43.972  0.00  0.00    +0.000 C 
ATOM     10  C   UNL     1      23.126  16.741  44.325  0.00  0.00    +0.000 C 
ENDROOT
BRANCH   1  12
ATOM     11  N   UNL     1      25.582  15.974  39.166  0.00  0.00    +0.000 NA
ATOM     12  C   UNL     1      24.622  15.103  39.754  0.00  0.00    +0.000 C 
ATOM     13  O   UNL     1      23.926  14.459  38.974  0.00  0.00    +0.000 OA
BRANCH  11  17
ATOM     14  C   UNL     1      26.006  16.351  34.988  0.00  0.00    +0.000 A 
ATOM     15  C   UNL     1      25.153  17.185  35.680  0.00  0.00    +0.000 A 
ATOM     16  C   UNL     1      25.024  17.045  37.070  0.00  0.00    +0.000 A 
ATOM     17  C   UNL     1      25.726  16.097  37.759  0.00  0.00    +0.000 A 
ATOM     18  C   UNL     1      26.572  15.273  37.062  0.00  0.00    +0.000 A 
ATOM     19  C   UNL     1      26.710  15.401  35.685  0.00  0.00    +0.000 A 
BRANCH  14  20
ATOM     20  O   UNL     1      26.116  16.510  33.611  0.00  0.00    +0.000 OA
BRANCH  20  22
ATOM     21  C   UNL     1      25.053  14.647  32.466  0.00  0.00    +0.000 C 
ATOM     22  C   UNL     1      25.069  16.132  32.738  0.00  0.00    +0.000 C 
ENDBRANCH  20  22
ENDBRANCH  14  20
ENDBRANCH  11  17
ENDBRANCH   1  12
BRANCH   2  23
ATOM     23  N   UNL     1      26.084  13.049  41.769  0.00  0.00    +0.000 NA
ATOM     24  C   UNL     1      26.104  11.716  41.931  0.00  0.00    +0.000 C 
ATOM     25  O   UNL     1      25.114  11.127  42.425  0.00  0.00    +0.000 OA
BRANCH  24  26
ATOM     26  C   UNL     1      27.269  10.859  41.547  0.00  0.00    +0.000 A 
ATOM     27  C   UNL     1      27.366   9.563  41.992  0.00  0.00    +0.000 A 
ATOM     28  C   UNL     1      28.475   8.803  41.604  0.00  0.00    +0.000 A 
ATOM     29  C   UNL     1      29.460   9.326  40.792  0.00  0.00    +0.000 A 
ATOM     30  C   UNL     1      29.359  10.635  40.345  0.00  0.00    +0.000 A 
ATOM     31  C   UNL     1      28.267  11.352  40.739  0.00  0.00    +0.000 A 
ENDBRANCH  24  26
ENDBRANCH   2  23
TORSDOF 6
ENDMDL
MODEL 8
REMARK VINA RESULT:      -7.4      5.027      9.055
REMARK  Name = 
REMARK  6 active torsions:
REMARK  status: ('A' for Active; 'I' for Inactive)
REMARK    1  A    between atoms: C_2  and  O_3
REMARK    2  A    between atoms: O_3  and  C_4
REMARK    3  A    between atoms: C_7  and  N_8
REMARK    4  A    between atoms: C_9  and  C_11
REMARK    5  A    between atoms: C_12  and  N_13
REMARK    6  A    between atoms: C_14  and  C_16
REMARK                            x       y       z     vdW  Elec       q    Type
REMARK                         _______ _______ _______ _____ _____    ______ ____
ROOT
ATOM      1  C   UNL     1      38.002  -1.697  15.519  0.00  0.00    +0.000 A 
ATOM      2  C   UNL     1      39.116  -2.045  14.827  0.00  0.00    +0.000 A 
ATOM      3  S   UNL     1      39.781  -3.303  15.883  0.00  0.00    +0.000 S 
ATOM      4  C   UNL     1      38.615  -3.298  17.096  0.00  0.00    +0.000 A 
ATOM      5  C   UNL     1      37.745  -2.344  16.683  0.00  0.00    +0.000 A 
ATOM      6  C   UNL     1      36.505  -2.017  17.517  0.00  0.00    +0.000 C 
ATOM      7  C   UNL     1      36.930  -1.409  18.823  0.00  0.00    +0.000 C 
ATOM      8  C   UNL     1      38.362  -1.796  19.111  0.00  0.00    +0.000 C 
ATOM      9  C   UNL     1      38.468  -3.241  19.547  0.00  0.00    +0.000 C 
ATOM     10  C   UNL     1      38.587  -4.173  18.339  0.00  0.00    +0.000 C 
ENDROOT
BRANCH   1  12
ATOM     11  N   UNL     1      37.336   0.714  15.766  0.00  0.00    +0.000 NA
ATOM     12  C   UNL     1      37.186  -0.528  15.088  0.00  0.00    +0.000 C 
ATOM     13  O   UNL     1      36.370  -0.548  14.170  0.00  0.00    +0.000 OA
BRANCH  11  17
ATOM     14  C   UNL     1      35.103   4.130  14.709  0.00  0.00    +0.000 A 
ATOM     15  C   UNL     1      34.528   3.128  15.463  0.00  0.00    +0.000 A 
ATOM     16  C   UNL     1      35.286   1.998  15.805  0.00  0.00    +0.000 A 
ATOM     17  C   UNL     1      36.587   1.865  15.408  0.00  0.00    +0.000 A 
ATOM     18  C   UNL     1      37.149   2.867  14.658  0.00  0.00    +0.000 A 
ATOM     19  C   UNL     1      36.410   3.992  14.312  0.00  0.00    +0.000 A 
BRANCH  14  20
ATOM     20  O   UNL     1      34.331   5.239  14.383  0.00  0.00    +0.000 OA
BRANCH  20  22
ATOM     21  C   UNL     1      33.699   7.024  12.856  0.00  0.00    +0.000 C 
ATOM     22  C   UNL     1      34.813   6.245  13.513  0.00  0.00    +0.000 C 
ENDBRANCH  20  22
ENDBRANCH  14  20
ENDBRANCH  11  17
ENDBRANCH   1  12
BRANCH   2  23
ATOM     23  N   UNL     1      39.739  -1.855  13.626  0.00  0.00    +0.000 NA
ATOM     24  C   UNL     1      40.934  -1.621  13.060  0.00  0.00    +0.000 C 
ATOM     25  O   UNL     1      41.953  -1.482  13.778  0.00  0.00    +0.000 OA
BRANCH  24  26
ATOM     26  C   UNL     1      41.137  -1.515  11.581  0.00  0.00    +0.000 A 
ATOM     27  C   UNL     1      41.996  -0.581  11.056  0.00  0.00    +0.000 A 
ATOM     28  C   UNL     1      42.151  -0.522   9.666  0.00  0.00    +0.000 A 
ATOM     29  C   UNL     1      41.465  -1.375   8.826  0.00  0.00    +0.000 A 
ATOM     30  C   UNL     1      40.598  -2.316   9.361  0.00  0.00    +0.000 A 
ATOM     31  C   UNL     1      40.467  -2.350  10.719  0.00  0.00    +0.000 A 
ENDBRANCH  24  26
ENDBRANCH   2  23
TORSDOF 6
ENDMDL
MODEL 9
REMARK VINA RESULT:      -7.4      1.636      2.269
REMARK  Name = 
REMARK  6 active torsions:
REMARK  status: ('A' for Active; 'I' for Inactive)
REMARK    1  A    between atoms: C_2  and  O_3
REMARK    2  A    between atoms: O_3  and  C_4
REMARK    3  A    between atoms: C_7  and  N_8
REMARK    4  A    between atoms: C_9  and  C_11
REMARK    5  A    between atoms: C_12  and  N_13
REMARK    6  A    between atoms: C_14  and  C_16
REMARK                            x       y       z     vdW  Elec       q    Type
REMARK                         _______ _______ _______ _____ _____    ______ ____
ROOT
ATOM      1  C   UNL     1      37.013   6.544  14.333  0.00  0.00    +0.000 A 
ATOM      2  C   UNL     1      36.257   5.429  14.168  0.00  0.00    +0.000 A 
ATOM      3  S   UNL     1      35.448   5.803  12.637  0.00  0.00    +0.000 S 
ATOM      4  C   UNL     1      36.122   7.312  12.323  0.00  0.00    +0.000 A 
ATOM      5  C   UNL     1      36.944   7.509  13.382  0.00  0.00    +0.000 A 
ATOM      6  C   UNL     1      37.772   8.790  13.489  0.00  0.00    +0.000 C 
ATOM      7  C   UNL     1      36.852   9.963  13.676  0.00  0.00    +0.000 C 
ATOM      8  C   UNL     1      35.473   9.599  13.177  0.00  0.00    +0.000 C 
ATOM      9  C   UNL     1      35.420   9.572  11.666  0.00  0.00    +0.000 C 
ATOM     10  C   UNL     1      35.843   8.205  11.124  0.00  0.00    +0.000 C 
ENDROOT
BRANCH   1  12
ATOM     11  N   UNL     1      38.856   5.906  15.918  0.00  0.00    +0.000 NA
ATOM     12  C   UNL     1      37.763   6.761  15.601  0.00  0.00    +0.000 C 
ATOM     13  O   UNL     1      37.510   7.642  16.418  0.00  0.00    +0.000 OA
BRANCH  11  17
ATOM     14  C   UNL     1      41.106   6.361  19.455  0.00  0.00    +0.000 A 
ATOM     15  C   UNL     1      41.707   6.513  18.223  0.00  0.00    +0.000 A 
ATOM     16  C   UNL     1      40.943   6.357  17.056  0.00  0.00    +0.000 A 
ATOM     17  C   UNL     1      39.610   6.057  17.111  0.00  0.00    +0.000 A 
ATOM     18  C   UNL     1      39.023   5.908  18.342  0.00  0.00    +0.000 A 
ATOM     19  C   UNL     1      39.768   6.060  19.505  0.00  0.00    +0.000 A 
BRANCH  14  20
ATOM     20  O   UNL     1      41.885   6.520  20.595  0.00  0.00    +0.000 OA
BRANCH  20  22
ATOM     21  C   UNL     1      43.933   5.667  21.591  0.00  0.00    +0.000 C 
ATOM     22  C   UNL     1      43.299   6.532  20.529  0.00  0.00    +0.000 C 
ENDBRANCH  20  22
ENDBRANCH  14  20
ENDBRANCH  11  17
ENDBRANCH   1  12
BRANCH   2  23
ATOM     23  N   UNL     1      36.059   4.179  14.682  0.00  0.00    +0.000 NA
ATOM     24  C   UNL     1      35.127   3.369  15.210  0.00  0.00    +0.000 C 
ATOM     25  O   UNL     1      33.954   3.783  15.375  0.00  0.00    +0.000 OA
BRANCH  24  26
ATOM     26  C   UNL     1      35.403   1.959  15.627  0.00  0.00    +0.000 A 
ATOM     27  C   UNL     1      36.216   1.149  14.871  0.00  0.00    +0.000 A 
ATOM     28  C   UNL     1      36.443  -0.162  15.304  0.00  0.00    +0.000 A 
ATOM     29  C   UNL     1      35.872  -0.649  16.462  0.00  0.00    +0.000 A 
ATOM     30  C   UNL     1      35.052   0.172  17.221  0.00  0.00    +0.000 A 
ATOM     31  C   UNL     1      34.849   1.445  16.775  0.00  0.00    +0.000 A 
ENDBRANCH  24  26
ENDBRANCH   2  23
TORSDOF 6
ENDMDL
MODEL 10
REMARK VINA RESULT:      -7.4      2.822      7.510
REMARK  Name = 
REMARK  6 active torsions:
REMARK  status: ('A' for Active; 'I' for Inactive)
REMARK    1  A    between atoms: C_2  and  O_3
REMARK    2  A    between atoms: O_3  and  C_4
REMARK    3  A    between atoms: C_7  and  N_8
REMARK    4  A    between atoms: C_9  and  C_11
REMARK    5  A    between atoms: C_12  and  N_13
REMARK    6  A    between atoms: C_14  and  C_16
REMARK                            x       y       z     vdW  Elec       q    Type
REMARK                         _______ _______ _______ _____ _____    ______ ____
ROOT
ATOM      1  C   UNL     1      38.557   6.176  16.310  0.00  0.00    +0.000 A 
ATOM      2  C   UNL     1      37.715   6.935  15.565  0.00  0.00    +0.000 A 
ATOM      3  S   UNL     1      38.094   8.552  16.183  0.00  0.00    +0.000 S 
ATOM      4  C   UNL     1      39.275   8.153  17.312  0.00  0.00    +0.000 A 
ATOM      5  C   UNL     1      39.360   6.804  17.205  0.00  0.00    +0.000 A 
ATOM      6  C   UNL     1      40.344   6.021  18.075  0.00  0.00    +0.000 C 
ATOM      7  C   UNL     1      39.928   6.125  19.515  0.00  0.00    +0.000 C 
ATOM      8  C   UNL     1      39.049   7.341  19.693  0.00  0.00    +0.000 C 
ATOM      9  C   UNL     1      39.857   8.619  19.652  0.00  0.00    +0.000 C 
ATOM     10  C   UNL     1      40.037   9.111  18.214  0.00  0.00    +0.000 C 
ENDROOT
BRANCH   1  12
ATOM     11  N   UNL     1      38.720   4.025  15.021  0.00  0.00    +0.000 NA
ATOM     12  C   UNL     1      38.475   4.690  16.255  0.00  0.00    +0.000 C 
ATOM     13  O   UNL     1      38.208   3.971  17.214  0.00  0.00    +0.000 OA
BRANCH  11  17
ATOM     14  C   UNL     1      38.517  -0.171  14.661  0.00  0.00    +0.000 A 
ATOM     15  C   UNL     1      37.387   0.557  14.970  0.00  0.00    +0.000 A 
ATOM     16  C   UNL     1      37.473   1.952  15.086  0.00  0.00    +0.000 A 
ATOM     17  C   UNL     1      38.656   2.612  14.900  0.00  0.00    +0.000 A 
ATOM     18  C   UNL     1      39.774   1.879  14.594  0.00  0.00    +0.000 A 
ATOM     19  C   UNL     1      39.703   0.496  14.475  0.00  0.00    +0.000 A 
BRANCH  14  20
ATOM     20  O   UNL     1      38.406  -1.553  14.552  0.00  0.00    +0.000 OA
BRANCH  20  22
ATOM     21  C   UNL     1      39.169  -2.793  16.500  0.00  0.00    +0.000 C 
ATOM     22  C   UNL     1      38.003  -2.350  15.649  0.00  0.00    +0.000 C 
ENDBRANCH  20  22
ENDBRANCH  14  20
ENDBRANCH  11  17
ENDBRANCH   1  12
BRANCH   2  23
ATOM     23  N   UNL     1      36.864   6.865  14.498  0.00  0.00    +0.000 NA
ATOM     24  C   UNL     1      35.871   6.138  13.961  0.00  0.00    +0.000 C 
ATOM     25  O   UNL     1      35.483   5.088  14.526  0.00  0.00    +0.000 OA
BRANCH  24  26
ATOM     26  C   UNL     1      35.173   6.511  12.691  0.00  0.00    +0.000 A 
ATOM     27  C   UNL     1      33.878   6.968  12.709  0.00  0.00    +0.000 A 
ATOM     28  C   UNL     1      33.271   7.304  11.493  0.00  0.00    +0.000 A 
ATOM     29  C   UNL     1      33.941   7.185  10.293  0.00  0.00    +0.000 A 
ATOM     30  C   UNL     1      35.248   6.722  10.280  0.00  0.00    +0.000 A 
ATOM     31  C   UNL     1      35.815   6.403  11.480  0.00  0.00    +0.000 A 
ENDBRANCH  24  26
ENDBRANCH   2  23
TORSDOF 6
ENDMDL
