MODEL 1
REMARK VINA RESULT:      -6.7      0.000      0.000
REMARK  Name = 
REMARK  3 active torsions:
REMARK  status: ('A' for Active; 'I' for Inactive)
REMARK    1  A    between atoms: C_2  and  C_12
REMARK    2  A    between atoms: N_3  and  N_4
REMARK    3  A    between atoms: N_4  and  C_5
REMARK                            x       y       z     vdW  Elec       q    Type
REMARK                         _______ _______ _______ _____ _____    ______ ____
ROOT
ATOM      1  O   UNL     1      17.191  10.081  37.449  0.00  0.00    +0.000 OA
ATOM      2  C   UNL     1      17.732  10.255  36.331  0.00  0.00    +0.000 C 
ATOM      3  N   UNL     1      19.130  10.067  36.222  0.00  0.00    +0.000 NA
ENDROOT
BRANCH   2   4
ATOM      4  C   UNL     1      16.990  10.642  35.142  0.00  0.00    +0.000 A 
ATOM      5  C   UNL     1      17.353  10.184  33.895  0.00  0.00    +0.000 A 
ATOM      6  C   UNL     1      16.681  10.524  32.740  0.00  0.00    +0.000 A 
ATOM      7  C   UNL     1      15.579  11.365  32.805  0.00  0.00    +0.000 A 
ATOM      8 BR   UNL     1      14.609  11.867  31.237  0.00  0.00    +0.000 Br
ATOM      9  C   UNL     1      15.215  11.824  34.053  0.00  0.00    +0.000 A 
ATOM     10  C   UNL     1      15.887  11.485  35.204  0.00  0.00    +0.000 A 
ENDBRANCH   2   4
BRANCH   3  11
ATOM     11  N   UNL     1      19.873   9.699  37.325  0.00  0.00    +0.000 NA
BRANCH  11  12
ATOM     12  C   UNL     1      20.816  10.625  37.847  0.00  0.00    +0.000 C 
ATOM     13  C   UNL     1      22.047  10.566  37.416  0.00  0.00    +0.000 C 
ATOM     14  C   UNL     1      22.489   9.584  36.418  0.00  0.00    +0.000 C 
ATOM     15  C   UNL     1      23.812   9.926  35.819  0.00  0.00    +0.000 C 
ATOM     16  C   UNL     1      24.860  10.382  36.772  0.00  0.00    +0.000 C 
ATOM     17  C   UNL     1      24.352  10.751  38.145  0.00  0.00    +0.000 C 
ATOM     18  C   UNL     1      23.047  11.522  37.945  0.00  0.00    +0.000 C 
ENDBRANCH  11  12
ENDBRANCH   3  11
TORSDOF 3
ENDMDL
MODEL 2
REMARK VINA RESULT:      -6.4     17.934     20.744
REMARK  Name = 
REMARK  3 active torsions:
REMARK  status: ('A' for Active; 'I' for Inactive)
REMARK    1  A    between atoms: C_2  and  C_12
REMARK    2  A    between atoms: N_3  and  N_4
REMARK    3  A    between atoms: N_4  and  C_5
REMARK                            x       y       z     vdW  Elec       q    Type
REMARK                         _______ _______ _______ _____ _____    ______ ____
ROOT
ATOM      1  O   UNL     1      34.018  -2.950  35.463  0.00  0.00    +0.000 OA
ATOM      2  C   UNL     1      33.705  -2.406  34.376  0.00  0.00    +0.000 C 
ATOM      3  N   UNL     1      33.350  -3.235  33.286  0.00  0.00    +0.000 NA
ENDROOT
BRANCH   2   4
ATOM      4  C   UNL     1      33.691  -0.965  34.186  0.00  0.00    +0.000 A 
ATOM      5  C   UNL     1      33.370  -0.113  35.220  0.00  0.00    +0.000 A 
ATOM      6  C   UNL     1      33.342   1.259  35.087  0.00  0.00    +0.000 A 
ATOM      7  C   UNL     1      33.648   1.840  33.864  0.00  0.00    +0.000 A 
ATOM      8 BR   UNL     1      33.626   3.736  33.624  0.00  0.00    +0.000 Br
ATOM      9  C   UNL     1      33.968   0.988  32.829  0.00  0.00    +0.000 A 
ATOM     10  C   UNL     1      33.995  -0.381  32.963  0.00  0.00    +0.000 A 
ENDBRANCH   2   4
BRANCH   3  11
ATOM     11  N   UNL     1      33.349  -4.608  33.424  0.00  0.00    +0.000 NA
BRANCH  11  12
ATOM     12  C   UNL     1      34.432  -5.345  32.874  0.00  0.00    +0.000 C 
ATOM     13  C   UNL     1      34.381  -5.675  31.611  0.00  0.00    +0.000 C 
ATOM     14  C   UNL     1      33.251  -5.314  30.746  0.00  0.00    +0.000 C 
ATOM     15  C   UNL     1      33.562  -5.472  29.296  0.00  0.00    +0.000 C 
ATOM     16  C   UNL     1      34.284  -6.717  28.916  0.00  0.00    +0.000 C 
ATOM     17  C   UNL     1      34.888  -7.478  30.072  0.00  0.00    +0.000 C 
ATOM     18  C   UNL     1      35.499  -6.442  31.016  0.00  0.00    +0.000 C 
ENDBRANCH  11  12
ENDBRANCH   3  11
TORSDOF 3
ENDMDL
MODEL 3
REMARK VINA RESULT:      -6.3     16.027     18.653
REMARK  Name = 
REMARK  3 active torsions:
REMARK  status: ('A' for Active; 'I' for Inactive)
REMARK    1  A    between atoms: C_2  and  C_12
REMARK    2  A    between atoms: N_3  and  N_4
REMARK    3  A    between atoms: N_4  and  C_5
REMARK                            x       y       z     vdW  Elec       q    Type
REMARK                         _______ _______ _______ _____ _____    ______ ____
ROOT
ATOM      1  O   UNL     1      33.302  -1.416  36.011  0.00  0.00    +0.000 OA
ATOM      2  C   UNL     1      33.235  -1.631  34.776  0.00  0.00    +0.000 C 
ATOM      3  N   UNL     1      33.390  -0.536  33.893  0.00  0.00    +0.000 NA
ENDROOT
BRANCH   2   4
ATOM      4  C   UNL     1      33.004  -2.950  34.212  0.00  0.00    +0.000 A 
ATOM      5  C   UNL     1      33.640  -3.353  33.059  0.00  0.00    +0.000 A 
ATOM      6  C   UNL     1      33.453  -4.593  32.486  0.00  0.00    +0.000 A 
ATOM      7  C   UNL     1      32.588  -5.503  33.078  0.00  0.00    +0.000 A 
ATOM      8 BR   UNL     1      32.292  -7.236  32.329  0.00  0.00    +0.000 Br
ATOM      9  C   UNL     1      31.951  -5.100  34.232  0.00  0.00    +0.000 A 
ATOM     10  C   UNL     1      32.139  -3.862  34.802  0.00  0.00    +0.000 A 
ENDBRANCH   2   4
BRANCH   3  11
ATOM     11  N   UNL     1      33.612   0.733  34.386  0.00  0.00    +0.000 NA
BRANCH  11  12
ATOM     12  C   UNL     1      33.343   1.845  33.543  0.00  0.00    +0.000 C 
ATOM     13  C   UNL     1      33.539   3.046  34.018  0.00  0.00    +0.000 C 
ATOM     14  C   UNL     1      34.021   3.286  35.383  0.00  0.00    +0.000 C 
ATOM     15  C   UNL     1      34.506   4.682  35.586  0.00  0.00    +0.000 C 
ATOM     16  C   UNL     1      33.652   5.758  35.013  0.00  0.00    +0.000 C 
ATOM     17  C   UNL     1      32.606   5.283  34.034  0.00  0.00    +0.000 C 
ATOM     18  C   UNL     1      33.266   4.220  33.157  0.00  0.00    +0.000 C 
ENDBRANCH  11  12
ENDBRANCH   3  11
TORSDOF 3
ENDMDL
MODEL 4
REMARK VINA RESULT:      -5.9     22.806     23.638
REMARK  Name = 
REMARK  3 active torsions:
REMARK  status: ('A' for Active; 'I' for Inactive)
REMARK    1  A    between atoms: C_2  and  C_12
REMARK    2  A    between atoms: N_3  and  N_4
REMARK    3  A    between atoms: N_4  and  C_5
REMARK                            x       y       z     vdW  Elec       q    Type
REMARK                         _______ _______ _______ _____ _____    ______ ____
ROOT
ATOM      1  O   UNL     1      27.852  26.361  21.172  0.00  0.00    +0.000 OA
ATOM      2  C   UNL     1      28.990  26.205  20.665  0.00  0.00    +0.000 C 
ATOM      3  N   UNL     1      29.610  24.938  20.778  0.00  0.00    +0.000 NA
ENDROOT
BRANCH   2   4
ATOM      4  C   UNL     1      29.699  27.264  19.967  0.00  0.00    +0.000 A 
ATOM      5  C   UNL     1      30.485  26.992  18.869  0.00  0.00    +0.000 A 
ATOM      6  C   UNL     1      31.177  27.963  18.176  0.00  0.00    +0.000 A 
ATOM      7  C   UNL     1      31.096  29.288  18.579  0.00  0.00    +0.000 A 
ATOM      8 BR   UNL     1      32.032  30.675  17.654  0.00  0.00    +0.000 Br
ATOM      9  C   UNL     1      30.310  29.561  19.678  0.00  0.00    +0.000 A 
ATOM     10  C   UNL     1      29.621  28.592  20.368  0.00  0.00    +0.000 A 
ENDBRANCH   2   4
BRANCH   3  11
ATOM     11  N   UNL     1      28.971  23.904  21.431  0.00  0.00    +0.000 NA
BRANCH  11  12
ATOM     12  C   UNL     1      29.215  23.726  22.820  0.00  0.00    +0.000 C 
ATOM     13  C   UNL     1      28.190  23.581  23.617  0.00  0.00    +0.000 C 
ATOM     14  C   UNL     1      26.805  23.597  23.132  0.00  0.00    +0.000 C 
ATOM     15  C   UNL     1      25.837  23.065  24.135  0.00  0.00    +0.000 C 
ATOM     16  C   UNL     1      26.028  23.530  25.535  0.00  0.00    +0.000 C 
ATOM     17  C   UNL     1      27.353  24.201  25.805  0.00  0.00    +0.000 C 
ATOM     18  C   UNL     1      28.420  23.394  25.068  0.00  0.00    +0.000 C 
ENDBRANCH  11  12
ENDBRANCH   3  11
TORSDOF 3
ENDMDL
MODEL 5
REMARK VINA RESULT:      -5.8     23.322     24.357
REMARK  Name = 
REMARK  3 active torsions:
REMARK  status: ('A' for Active; 'I' for Inactive)
REMARK    1  A    between atoms: C_2  and  C_12
REMARK    2  A    between atoms: N_3  and  N_4
REMARK    3  A    between atoms: N_4  and  C_5
REMARK                            x       y       z     vdW  Elec       q    Type
REMARK                         _______ _______ _______ _____ _____    ______ ____
ROOT
ATOM      1  O   UNL     1      27.716  25.457  21.294  0.00  0.00    +0.000 OA
ATOM      2  C   UNL     1      28.823  24.962  21.617  0.00  0.00    +0.000 C 
ATOM      3  N   UNL     1      29.905  25.082  20.713  0.00  0.00    +0.000 NA
ENDROOT
BRANCH   2   4
ATOM      4  C   UNL     1      29.045  24.270  22.877  0.00  0.00    +0.000 A 
ATOM      5  C   UNL     1      30.314  24.107  23.385  0.00  0.00    +0.000 A 
ATOM      6  C   UNL     1      30.573  23.458  24.574  0.00  0.00    +0.000 A 
ATOM      7  C   UNL     1      29.526  22.934  25.317  0.00  0.00    +0.000 A 
ATOM      8 BR   UNL     1      29.827  22.026  26.972  0.00  0.00    +0.000 Br
ATOM      9  C   UNL     1      28.255  23.096  24.808  0.00  0.00    +0.000 A 
ATOM     10  C   UNL     1      27.998  23.743  23.622  0.00  0.00    +0.000 A 
ENDBRANCH   2   4
BRANCH   3  11
ATOM     11  N   UNL     1      29.738  25.732  19.508  0.00  0.00    +0.000 NA
BRANCH  11  12
ATOM     12  C   UNL     1      30.098  27.105  19.422  0.00  0.00    +0.000 C 
ATOM     13  C   UNL     1      30.147  27.660  18.241  0.00  0.00    +0.000 C 
ATOM     14  C   UNL     1      29.846  26.923  17.008  0.00  0.00    +0.000 C 
ATOM     15  C   UNL     1      29.615  27.822  15.840  0.00  0.00    +0.000 C 
ATOM     16  C   UNL     1      30.571  28.953  15.690  0.00  0.00    +0.000 C 
ATOM     17  C   UNL     1      31.425  29.227  16.904  0.00  0.00    +0.000 C 
ATOM     18  C   UNL     1      30.518  29.090  18.127  0.00  0.00    +0.000 C 
ENDBRANCH  11  12
ENDBRANCH   3  11
TORSDOF 3
ENDMDL
MODEL 6
REMARK VINA RESULT:      -5.8      4.870      7.528
REMARK  Name = 
REMARK  3 active torsions:
REMARK  status: ('A' for Active; 'I' for Inactive)
REMARK    1  A    between atoms: C_2  and  C_12
REMARK    2  A    between atoms: N_3  and  N_4
REMARK    3  A    between atoms: N_4  and  C_5
REMARK                            x       y       z     vdW  Elec       q    Type
REMARK                         _______ _______ _______ _____ _____    ______ ____
ROOT
ATOM      1  O   UNL     1      18.222  10.772  39.186  0.00  0.00    +0.000 OA
ATOM      2  C   UNL     1      17.984   9.600  38.804  0.00  0.00    +0.000 C 
ATOM      3  N   UNL     1      17.823   9.363  37.419  0.00  0.00    +0.000 NA
ENDROOT
BRANCH   2   4
ATOM      4  C   UNL     1      17.866   8.477  39.719  0.00  0.00    +0.000 A 
ATOM      5  C   UNL     1      18.721   7.401  39.639  0.00  0.00    +0.000 A 
ATOM      6  C   UNL     1      18.647   6.313  40.483  0.00  0.00    +0.000 A 
ATOM      7  C   UNL     1      17.675   6.271  41.472  0.00  0.00    +0.000 A 
ATOM      8 BR   UNL     1      17.528   4.789  42.670  0.00  0.00    +0.000 Br
ATOM      9  C   UNL     1      16.818   7.348  41.552  0.00  0.00    +0.000 A 
ATOM     10  C   UNL     1      16.892   8.432  40.709  0.00  0.00    +0.000 A 
ENDBRANCH   2   4
BRANCH   3  11
ATOM     11  N   UNL     1      17.929  10.401  36.516  0.00  0.00    +0.000 NA
BRANCH  11  12
ATOM     12  C   UNL     1      16.735  10.990  36.018  0.00  0.00    +0.000 C 
ATOM     13  C   UNL     1      16.501  10.926  34.735  0.00  0.00    +0.000 C 
ATOM     14  C   UNL     1      17.420  10.273  33.795  0.00  0.00    +0.000 C 
ATOM     15  C   UNL     1      16.794  10.006  32.468  0.00  0.00    +0.000 C 
ATOM     16  C   UNL     1      15.979  11.113  31.897  0.00  0.00    +0.000 C 
ATOM     17  C   UNL     1      15.629  12.210  32.873  0.00  0.00    +0.000 C 
ATOM     18  C   UNL     1      15.263  11.533  34.193  0.00  0.00    +0.000 C 
ENDBRANCH  11  12
ENDBRANCH   3  11
TORSDOF 3
ENDMDL
MODEL 7
REMARK VINA RESULT:      -5.7     23.494     24.260
REMARK  Name = 
REMARK  3 active torsions:
REMARK  status: ('A' for Active; 'I' for Inactive)
REMARK    1  A    between atoms: C_2  and  C_12
REMARK    2  A    between atoms: N_3  and  N_4
REMARK    3  A    between atoms: N_4  and  C_5
REMARK                            x       y       z     vdW  Elec       q    Type
REMARK                         _______ _______ _______ _____ _____    ______ ____
ROOT
ATOM      1  O   UNL     1      29.437  27.346  21.483  0.00  0.00    +0.000 OA
ATOM      2  C   UNL     1      29.576  26.746  20.390  0.00  0.00    +0.000 C 
ATOM      3  N   UNL     1      29.594  25.330  20.395  0.00  0.00    +0.000 NA
ENDROOT
BRANCH   2   4
ATOM      4  C   UNL     1      29.719  27.436  19.119  0.00  0.00    +0.000 A 
ATOM      5  C   UNL     1      28.756  28.315  18.674  0.00  0.00    +0.000 A 
ATOM      6  C   UNL     1      28.848  28.992  17.476  0.00  0.00    +0.000 A 
ATOM      7  C   UNL     1      29.951  28.800  16.657  0.00  0.00    +0.000 A 
ATOM      8 BR   UNL     1      30.130  29.713  14.987  0.00  0.00    +0.000 Br
ATOM      9  C   UNL     1      30.915  27.920  17.102  0.00  0.00    +0.000 A 
ATOM     10  C   UNL     1      30.822  27.245  18.297  0.00  0.00    +0.000 A 
ENDBRANCH   2   4
BRANCH   3  11
ATOM     11  N   UNL     1      29.460  24.635  21.579  0.00  0.00    +0.000 NA
BRANCH  11  12
ATOM     12  C   UNL     1      28.310  23.820  21.761  0.00  0.00    +0.000 C 
ATOM     13  C   UNL     1      27.462  24.145  22.699  0.00  0.00    +0.000 C 
ATOM     14  C   UNL     1      27.652  25.312  23.567  0.00  0.00    +0.000 C 
ATOM     15  C   UNL     1      26.412  25.691  24.305  0.00  0.00    +0.000 C 
ATOM     16  C   UNL     1      25.644  24.568  24.907  0.00  0.00    +0.000 C 
ATOM     17  C   UNL     1      26.035  23.196  24.414  0.00  0.00    +0.000 C 
ATOM     18  C   UNL     1      26.255  23.310  22.906  0.00  0.00    +0.000 C 
ENDBRANCH  11  12
ENDBRANCH   3  11
TORSDOF 3
ENDMDL
MODEL 8
REMARK VINA RESULT:      -5.7     25.503     26.373
REMARK  Name = 
REMARK  3 active torsions:
REMARK  status: ('A' for Active; 'I' for Inactive)
REMARK    1  A    between atoms: C_2  and  C_12
REMARK    2  A    between atoms: N_3  and  N_4
REMARK    3  A    between atoms: N_4  and  C_5
REMARK                            x       y       z     vdW  Elec       q    Type
REMARK                         _______ _______ _______ _____ _____    ______ ____
ROOT
ATOM      1  O   UNL     1      29.752  28.380  20.269  0.00  0.00    +0.000 OA
ATOM      2  C   UNL     1      29.671  27.137  20.117  0.00  0.00    +0.000 C 
ATOM      3  N   UNL     1      30.316  26.552  19.002  0.00  0.00    +0.000 NA
ENDROOT
BRANCH   2   4
ATOM      4  C   UNL     1      28.946  26.272  21.033  0.00  0.00    +0.000 A 
ATOM      5  C   UNL     1      27.961  26.771  21.855  0.00  0.00    +0.000 A 
ATOM      6  C   UNL     1      27.248  25.990  22.740  0.00  0.00    +0.000 A 
ATOM      7  C   UNL     1      27.511  24.631  22.828  0.00  0.00    +0.000 A 
ATOM      8 BR   UNL     1      26.552  23.500  24.035  0.00  0.00    +0.000 Br
ATOM      9  C   UNL     1      28.498  24.130  22.005  0.00  0.00    +0.000 A 
ATOM     10  C   UNL     1      29.209  24.911  21.124  0.00  0.00    +0.000 A 
ENDBRANCH   2   4
BRANCH   3  11
ATOM     11  N   UNL     1      31.016  27.336  18.109  0.00  0.00    +0.000 NA
BRANCH  11  12
ATOM     12  C   UNL     1      30.582  27.376  16.756  0.00  0.00    +0.000 C 
ATOM     13  C   UNL     1      30.583  28.526  16.138  0.00  0.00    +0.000 C 
ATOM     14  C   UNL     1      31.012  29.771  16.786  0.00  0.00    +0.000 C 
ATOM     15  C   UNL     1      31.270  30.870  15.811  0.00  0.00    +0.000 C 
ATOM     16  C   UNL     1      30.262  31.030  14.728  0.00  0.00    +0.000 C 
ATOM     17  C   UNL     1      29.310  29.869  14.571  0.00  0.00    +0.000 C 
ATOM     18  C   UNL     1      30.136  28.592  14.727  0.00  0.00    +0.000 C 
ENDBRANCH  11  12
ENDBRANCH   3  11
TORSDOF 3
ENDMDL
MODEL 9
REMARK VINA RESULT:      -5.6     16.883     18.674
REMARK  Name = 
REMARK  3 active torsions:
REMARK  status: ('A' for Active; 'I' for Inactive)
REMARK    1  A    between atoms: C_2  and  C_12
REMARK    2  A    between atoms: N_3  and  N_4
REMARK    3  A    between atoms: N_4  and  C_5
REMARK                            x       y       z     vdW  Elec       q    Type
REMARK                         _______ _______ _______ _____ _____    ______ ____
ROOT
ATOM      1  O   UNL     1      33.530   1.368  34.528  0.00  0.00    +0.000 OA
ATOM      2  C   UNL     1      33.821   0.496  35.382  0.00  0.00    +0.000 C 
ATOM      3  N   UNL     1      34.039   0.908  36.718  0.00  0.00    +0.000 NA
ENDROOT
BRANCH   2   4
ATOM      4  C   UNL     1      33.944  -0.916  35.062  0.00  0.00    +0.000 A 
ATOM      5  C   UNL     1      33.432  -1.429  33.892  0.00  0.00    +0.000 A 
ATOM      6  C   UNL     1      33.523  -2.761  33.546  0.00  0.00    +0.000 A 
ATOM      7  C   UNL     1      34.158  -3.653  34.399  0.00  0.00    +0.000 A 
ATOM      8 BR   UNL     1      34.315  -5.509  33.970  0.00  0.00    +0.000 Br
ATOM      9  C   UNL     1      34.670  -3.140  35.572  0.00  0.00    +0.000 A 
ATOM     10  C   UNL     1      34.578  -1.811  35.915  0.00  0.00    +0.000 A 
ENDBRANCH   2   4
BRANCH   3  11
ATOM     11  N   UNL     1      33.931   2.239  37.065  0.00  0.00    +0.000 NA
BRANCH  11  12
ATOM     12  C   UNL     1      35.123   2.984  37.274  0.00  0.00    +0.000 C 
ATOM     13  C   UNL     1      35.275   4.107  36.623  0.00  0.00    +0.000 C 
ATOM     14  C   UNL     1      34.266   4.622  35.690  0.00  0.00    +0.000 C 
ATOM     15  C   UNL     1      34.478   6.058  35.347  0.00  0.00    +0.000 C 
ATOM     16  C   UNL     1      35.882   6.457  35.052  0.00  0.00    +0.000 C 
ATOM     17  C   UNL     1      36.927   5.447  35.461  0.00  0.00    +0.000 C 
ATOM     18  C   UNL     1      36.509   4.901  36.825  0.00  0.00    +0.000 C 
ENDBRANCH  11  12
ENDBRANCH   3  11
TORSDOF 3
ENDMDL
MODEL 10
REMARK VINA RESULT:      -5.5     21.841     22.795
REMARK  Name = 
REMARK  3 active torsions:
REMARK  status: ('A' for Active; 'I' for Inactive)
REMARK    1  A    between atoms: C_2  and  C_12
REMARK    2  A    between atoms: N_3  and  N_4
REMARK    3  A    between atoms: N_4  and  C_5
REMARK                            x       y       z     vdW  Elec       q    Type
REMARK                         _______ _______ _______ _____ _____    ______ ____
ROOT
ATOM      1  O   UNL     1      23.377  -9.856  24.611  0.00  0.00    +0.000 OA
ATOM      2  C   UNL     1      23.140  -8.624  24.623  0.00  0.00    +0.000 C 
ATOM      3  N   UNL     1      24.104  -7.747  24.072  0.00  0.00    +0.000 NA
ENDROOT
BRANCH   2   4
ATOM      4  C   UNL     1      21.922  -8.057  25.177  0.00  0.00    +0.000 A 
ATOM      5  C   UNL     1      21.035  -8.833  25.890  0.00  0.00    +0.000 A 
ATOM      6  C   UNL     1      19.867  -8.340  26.433  0.00  0.00    +0.000 A 
ATOM      7  C   UNL     1      19.542  -7.000  26.271  0.00  0.00    +0.000 A 
ATOM      8 BR   UNL     1      17.938  -6.263  27.004  0.00  0.00    +0.000 Br
ATOM      9  C   UNL     1      20.429  -6.223  25.557  0.00  0.00    +0.000 A 
ATOM     10  C   UNL     1      21.593  -6.717  25.015  0.00  0.00    +0.000 A 
ENDBRANCH   2   4
BRANCH   3  11
ATOM     11  N   UNL     1      25.273  -8.243  23.534  0.00  0.00    +0.000 NA
BRANCH  11  12
ATOM     12  C   UNL     1      26.235  -7.323  23.037  0.00  0.00    +0.000 C 
ATOM     13  C   UNL     1      27.262  -7.793  22.380  0.00  0.00    +0.000 C 
ATOM     14  C   UNL     1      27.456  -9.228  22.140  0.00  0.00    +0.000 C 
ATOM     15  C   UNL     1      28.475  -9.503  21.086  0.00  0.00    +0.000 C 
ATOM     16  C   UNL     1      29.722  -8.694  21.157  0.00  0.00    +0.000 C 
ATOM     17  C   UNL     1      29.647  -7.493  22.069  0.00  0.00    +0.000 C 
ATOM     18  C   UNL     1      28.277  -6.852  21.851  0.00  0.00    +0.000 C 
ENDBRANCH  11  12
ENDBRANCH   3  11
TORSDOF 3
ENDMDL
