MODEL 1
REMARK VINA RESULT:      -9.1      0.000      0.000
REMARK  Name = 
REMARK  7 active torsions:
REMARK  status: ('A' for Active; 'I' for Inactive)
REMARK    1  A    between atoms: C_2  and  C_5
REMARK    2  A    between atoms: C_8  and  C_9
REMARK    3  A    between atoms: C_9  and  O_11
REMARK    4  A    between atoms: O_11  and  C_12
REMARK    5  A    between atoms: C_12  and  C_13
REMARK    6  A    between atoms: C_13  and  N_14
REMARK    7  A    between atoms: C_17  and  C_18
REMARK                            x       y       z     vdW  Elec       q    Type
REMARK                         _______ _______ _______ _____ _____    ______ ____
ROOT
ATOM      1  N   UNL     1      39.262   2.355  14.019  0.00  0.00    +0.000 NA
ATOM      2  C   UNL     1      39.039   1.036  14.499  0.00  0.00    +0.000 A 
ATOM      3  N   UNL     1      37.861   0.678  15.010  0.00  0.00    +0.000 NA
ATOM      4  C   UNL     1      37.650  -0.548  15.508  0.00  0.00    +0.000 A 
ATOM      5  N   UNL     1      38.672  -1.436  15.475  0.00  0.00    +0.000 NA
ATOM      6  C   UNL     1      39.857  -1.143  14.986  0.00  0.00    +0.000 A 
ATOM      7  C   UNL     1      40.875  -2.128  14.965  0.00  0.00    +0.000 A 
ATOM      8  C   UNL     1      42.086  -1.807  14.423  0.00  0.00    +0.000 A 
ATOM      9  C   UNL     1      42.311  -0.528  13.902  0.00  0.00    +0.000 A 
ATOM     10  C   UNL     1      41.296   0.450  13.931  0.00  0.00    +0.000 A 
ATOM     11  C   UNL     1      40.090   0.126  14.468  0.00  0.00    +0.000 A 
ENDROOT
BRANCH   4  12
ATOM     12  C   UNL     1      36.402  -0.908  16.126  0.00  0.00    +0.000 A 
ATOM     13  C   UNL     1      35.984  -2.224  15.999  0.00  0.00    +0.000 A 
ATOM     14  C   UNL     1      34.785  -2.574  16.581  0.00  0.00    +0.000 A 
ATOM     15  C   UNL     1      34.007  -1.659  17.274  0.00  0.00    +0.000 A 
ATOM     16  C   UNL     1      34.454  -0.374  17.371  0.00  0.00    +0.000 A 
ATOM     17  C   UNL     1      35.640  -0.007  16.800  0.00  0.00    +0.000 A 
ENDBRANCH   4  12
BRANCH   1  18
ATOM     18  C   UNL     1      38.012   3.205  13.912  0.00  0.00    +0.000 C 
BRANCH  18  19
ATOM     19  C   UNL     1      38.181   4.230  14.810  0.00  0.00    +0.000 C 
BRANCH  19  20
ATOM     20  O   UNL     1      38.309   5.152  15.654  0.00  0.00    +0.000 OA
BRANCH  20  21
ATOM     21  C   UNL     1      38.661   4.962  17.018  0.00  0.00    +0.000 C 
ATOM     22  O   UNL     1      37.936   4.074  17.610  0.00  0.00    +0.000 OA
BRANCH  21  26
ATOM     23  C   UNL     1      41.833   6.664  19.276  0.00  0.00    +0.000 A 
ATOM     24  C   UNL     1      41.927   6.517  17.875  0.00  0.00    +0.000 A 
ATOM     25  C   UNL     1      40.852   6.005  17.211  0.00  0.00    +0.000 A 
ATOM     26  C   UNL     1      39.671   5.623  17.781  0.00  0.00    +0.000 A 
ATOM     27  C   UNL     1      39.572   5.780  19.183  0.00  0.00    +0.000 A 
ATOM     28  C   UNL     1      40.669   6.294  19.866  0.00  0.00    +0.000 A 
BRANCH  23  30
ATOM     29  C   UNL     1      43.073   6.185  21.322  0.00  0.00    +0.000 C 
ATOM     30  C   UNL     1      43.029   7.112  20.080  0.00  0.00    +0.000 C 
ATOM     31  C   UNL     1      44.312   6.967  19.334  0.00  0.00    +0.000 C 
ATOM     32  C   UNL     1      42.780   8.485  20.622  0.00  0.00    +0.000 C 
ENDBRANCH  23  30
ENDBRANCH  21  26
ENDBRANCH  20  21
ENDBRANCH  19  20
ENDBRANCH  18  19
ENDBRANCH   1  18
TORSDOF 7
ENDMDL
MODEL 2
REMARK VINA RESULT:      -9.0      2.443      7.660
REMARK  Name = 
REMARK  7 active torsions:
REMARK  status: ('A' for Active; 'I' for Inactive)
REMARK    1  A    between atoms: C_2  and  C_5
REMARK    2  A    between atoms: C_8  and  C_9
REMARK    3  A    between atoms: C_9  and  O_11
REMARK    4  A    between atoms: O_11  and  C_12
REMARK    5  A    between atoms: C_12  and  C_13
REMARK    6  A    between atoms: C_13  and  N_14
REMARK    7  A    between atoms: C_17  and  C_18
REMARK                            x       y       z     vdW  Elec       q    Type
REMARK                         _______ _______ _______ _____ _____    ______ ____
ROOT
ATOM      1  N   UNL     1      35.638   2.170  14.995  0.00  0.00    +0.000 NA
ATOM      2  C   UNL     1      36.953   2.697  14.885  0.00  0.00    +0.000 A 
ATOM      3  N   UNL     1      37.474   3.457  15.847  0.00  0.00    +0.000 NA
ATOM      4  C   UNL     1      38.695   3.998  15.737  0.00  0.00    +0.000 A 
ATOM      5  N   UNL     1      39.406   3.747  14.613  0.00  0.00    +0.000 NA
ATOM      6  C   UNL     1      38.947   3.006  13.628  0.00  0.00    +0.000 A 
ATOM      7  C   UNL     1      39.755   2.767  12.489  0.00  0.00    +0.000 A 
ATOM      8  C   UNL     1      39.266   1.969  11.495  0.00  0.00    +0.000 A 
ATOM      9  C   UNL     1      37.992   1.403  11.606  0.00  0.00    +0.000 A 
ATOM     10  C   UNL     1      37.190   1.649  12.739  0.00  0.00    +0.000 A 
ATOM     11  C   UNL     1      37.681   2.441  13.729  0.00  0.00    +0.000 A 
ENDROOT
BRANCH   4  12
ATOM     12  C   UNL     1      39.225   4.880  16.744  0.00  0.00    +0.000 A 
ATOM     13  C   UNL     1      40.225   5.760  16.358  0.00  0.00    +0.000 A 
ATOM     14  C   UNL     1      40.744   6.600  17.319  0.00  0.00    +0.000 A 
ATOM     15  C   UNL     1      40.296   6.585  18.631  0.00  0.00    +0.000 A 
ATOM     16  C   UNL     1      39.313   5.701  18.968  0.00  0.00    +0.000 A 
ATOM     17  C   UNL     1      38.787   4.858  18.029  0.00  0.00    +0.000 A 
ENDBRANCH   4  12
BRANCH   1  18
ATOM     18  C   UNL     1      35.006   2.336  16.363  0.00  0.00    +0.000 C 
BRANCH  18  19
ATOM     19  C   UNL     1      34.876   1.067  16.869  0.00  0.00    +0.000 C 
BRANCH  19  20
ATOM     20  O   UNL     1      34.723  -0.099  17.315  0.00  0.00    +0.000 OA
BRANCH  20  21
ATOM     21  C   UNL     1      35.218  -1.278  16.695  0.00  0.00    +0.000 C 
ATOM     22  O   UNL     1      34.420  -2.285  16.811  0.00  0.00    +0.000 OA
BRANCH  21  26
ATOM     23  C   UNL     1      38.948  -1.558  14.679  0.00  0.00    +0.000 A 
ATOM     24  C   UNL     1      38.876  -1.540  16.089  0.00  0.00    +0.000 A 
ATOM     25  C   UNL     1      37.642  -1.494  16.667  0.00  0.00    +0.000 A 
ATOM     26  C   UNL     1      36.450  -1.473  16.000  0.00  0.00    +0.000 A 
ATOM     27  C   UNL     1      36.521  -1.503  14.588  0.00  0.00    +0.000 A 
ATOM     28  C   UNL     1      37.778  -1.540  13.994  0.00  0.00    +0.000 A 
BRANCH  23  30
ATOM     29  C   UNL     1      39.983  -1.689  12.474  0.00  0.00    +0.000 C 
ATOM     30  C   UNL     1      40.284  -1.488  13.981  0.00  0.00    +0.000 C 
ATOM     31  C   UNL     1      40.959  -0.171  14.158  0.00  0.00    +0.000 C 
ATOM     32  C   UNL     1      41.117  -2.668  14.377  0.00  0.00    +0.000 C 
ENDBRANCH  23  30
ENDBRANCH  21  26
ENDBRANCH  20  21
ENDBRANCH  19  20
ENDBRANCH  18  19
ENDBRANCH   1  18
TORSDOF 7
ENDMDL
MODEL 3
REMARK VINA RESULT:      -8.9      1.938      4.401
REMARK  Name = 
REMARK  7 active torsions:
REMARK  status: ('A' for Active; 'I' for Inactive)
REMARK    1  A    between atoms: C_2  and  C_5
REMARK    2  A    between atoms: C_8  and  C_9
REMARK    3  A    between atoms: C_9  and  O_11
REMARK    4  A    between atoms: O_11  and  C_12
REMARK    5  A    between atoms: C_12  and  C_13
REMARK    6  A    between atoms: C_13  and  N_14
REMARK    7  A    between atoms: C_17  and  C_18
REMARK                            x       y       z     vdW  Elec       q    Type
REMARK                         _______ _______ _______ _____ _____    ______ ____
ROOT
ATOM      1  N   UNL     1      35.991   0.474  15.669  0.00  0.00    +0.000 NA
ATOM      2  C   UNL     1      37.047  -0.445  15.916  0.00  0.00    +0.000 A 
ATOM      3  N   UNL     1      37.893  -0.799  14.949  0.00  0.00    +0.000 NA
ATOM      4  C   UNL     1      38.865  -1.698  15.155  0.00  0.00    +0.000 A 
ATOM      5  N   UNL     1      38.978  -2.246  16.388  0.00  0.00    +0.000 NA
ATOM      6  C   UNL     1      38.173  -1.940  17.382  0.00  0.00    +0.000 A 
ATOM      7  C   UNL     1      38.363  -2.537  18.652  0.00  0.00    +0.000 A 
ATOM      8  C   UNL     1      37.533  -2.178  19.675  0.00  0.00    +0.000 A 
ATOM      9  C   UNL     1      36.517  -1.240  19.465  0.00  0.00    +0.000 A 
ATOM     10  C   UNL     1      36.329  -0.653  18.197  0.00  0.00    +0.000 A 
ATOM     11  C   UNL     1      37.160  -1.010  17.181  0.00  0.00    +0.000 A 
ENDROOT
BRANCH   4  12
ATOM     12  C   UNL     1      39.730  -2.133  14.090  0.00  0.00    +0.000 A 
ATOM     13  C   UNL     1      41.066  -2.340  14.399  0.00  0.00    +0.000 A 
ATOM     14  C   UNL     1      41.902  -2.747  13.382  0.00  0.00    +0.000 A 
ATOM     15  C   UNL     1      41.446  -2.951  12.089  0.00  0.00    +0.000 A 
ATOM     16  C   UNL     1      40.125  -2.733  11.829  0.00  0.00    +0.000 A 
ATOM     17  C   UNL     1      39.279  -2.327  12.824  0.00  0.00    +0.000 A 
ENDBRANCH   4  12
BRANCH   1  18
ATOM     18  C   UNL     1      36.071   1.178  14.329  0.00  0.00    +0.000 C 
BRANCH  18  19
ATOM     19  C   UNL     1      36.620   2.410  14.588  0.00  0.00    +0.000 C 
BRANCH  19  20
ATOM     20  O   UNL     1      37.128   3.527  14.862  0.00  0.00    +0.000 OA
BRANCH  20  21
ATOM     21  C   UNL     1      38.442   3.721  15.365  0.00  0.00    +0.000 C 
ATOM     22  O   UNL     1      39.315   2.943  14.820  0.00  0.00    +0.000 OA
BRANCH  21  26
ATOM     23  C   UNL     1      40.025   6.246  18.396  0.00  0.00    +0.000 A 
ATOM     24  C   UNL     1      40.515   6.292  17.072  0.00  0.00    +0.000 A 
ATOM     25  C   UNL     1      39.928   5.485  16.143  0.00  0.00    +0.000 A 
ATOM     26  C   UNL     1      38.888   4.630  16.373  0.00  0.00    +0.000 A 
ATOM     27  C   UNL     1      38.389   4.591  17.696  0.00  0.00    +0.000 A 
ATOM     28  C   UNL     1      38.990   5.405  18.649  0.00  0.00    +0.000 A 
BRANCH  23  30
ATOM     29  C   UNL     1      39.575   7.527  20.422  0.00  0.00    +0.000 C 
ATOM     30  C   UNL     1      40.709   7.024  19.492  0.00  0.00    +0.000 C 
ATOM     31  C   UNL     1      41.645   6.187  20.296  0.00  0.00    +0.000 C 
ATOM     32  C   UNL     1      41.324   8.262  18.916  0.00  0.00    +0.000 C 
ENDBRANCH  23  30
ENDBRANCH  21  26
ENDBRANCH  20  21
ENDBRANCH  19  20
ENDBRANCH  18  19
ENDBRANCH   1  18
TORSDOF 7
ENDMDL
MODEL 4
REMARK VINA RESULT:      -8.8      0.828      4.174
REMARK  Name = 
REMARK  7 active torsions:
REMARK  status: ('A' for Active; 'I' for Inactive)
REMARK    1  A    between atoms: C_2  and  C_5
REMARK    2  A    between atoms: C_8  and  C_9
REMARK    3  A    between atoms: C_9  and  O_11
REMARK    4  A    between atoms: O_11  and  C_12
REMARK    5  A    between atoms: C_12  and  C_13
REMARK    6  A    between atoms: C_13  and  N_14
REMARK    7  A    between atoms: C_17  and  C_18
REMARK                            x       y       z     vdW  Elec       q    Type
REMARK                         _______ _______ _______ _____ _____    ______ ____
ROOT
ATOM      1  N   UNL     1      36.804   2.714  14.555  0.00  0.00    +0.000 NA
ATOM      2  C   UNL     1      37.353   1.490  15.025  0.00  0.00    +0.000 A 
ATOM      3  N   UNL     1      38.576   1.101  14.668  0.00  0.00    +0.000 NA
ATOM      4  C   UNL     1      39.089  -0.071  15.066  0.00  0.00    +0.000 A 
ATOM      5  N   UNL     1      38.331  -0.865  15.859  0.00  0.00    +0.000 NA
ATOM      6  C   UNL     1      37.116  -0.538  16.243  0.00  0.00    +0.000 A 
ATOM      7  C   UNL     1      36.387  -1.407  17.091  0.00  0.00    +0.000 A 
ATOM      8  C   UNL     1      35.141  -1.029  17.501  0.00  0.00    +0.000 A 
ATOM      9  C   UNL     1      34.601   0.194  17.088  0.00  0.00    +0.000 A 
ATOM     10  C   UNL     1      35.330   1.052  16.240  0.00  0.00    +0.000 A 
ATOM     11  C   UNL     1      36.572   0.675  15.836  0.00  0.00    +0.000 A 
ENDROOT
BRANCH   4  12
ATOM     12  C   UNL     1      40.380  -0.522  14.618  0.00  0.00    +0.000 A 
ATOM     13  C   UNL     1      40.656  -1.877  14.731  0.00  0.00    +0.000 A 
ATOM     14  C   UNL     1      41.894  -2.315  14.313  0.00  0.00    +0.000 A 
ATOM     15  C   UNL     1      42.846  -1.450  13.794  0.00  0.00    +0.000 A 
ATOM     16  C   UNL     1      42.533  -0.125  13.705  0.00  0.00    +0.000 A 
ATOM     17  C   UNL     1      41.311   0.329  14.115  0.00  0.00    +0.000 A 
ENDBRANCH   4  12
BRANCH   1  18
ATOM     18  C   UNL     1      37.795   3.617  13.847  0.00  0.00    +0.000 C 
BRANCH  18  19
ATOM     19  C   UNL     1      38.105   4.607  14.747  0.00  0.00    +0.000 C 
BRANCH  19  20
ATOM     20  O   UNL     1      38.410   5.487  15.590  0.00  0.00    +0.000 OA
BRANCH  20  21
ATOM     21  C   UNL     1      38.690   5.239  16.961  0.00  0.00    +0.000 C 
ATOM     22  O   UNL     1      37.863   4.412  17.506  0.00  0.00    +0.000 OA
BRANCH  21  26
ATOM     23  C   UNL     1      41.923   6.593  19.364  0.00  0.00    +0.000 A 
ATOM     24  C   UNL     1      42.041   6.501  17.960  0.00  0.00    +0.000 A 
ATOM     25  C   UNL     1      40.948   6.101  17.250  0.00  0.00    +0.000 A 
ATOM     26  C   UNL     1      39.727   5.787  17.776  0.00  0.00    +0.000 A 
ATOM     27  C   UNL     1      39.605   5.889  19.181  0.00  0.00    +0.000 A 
ATOM     28  C   UNL     1      40.720   6.287  19.910  0.00  0.00    +0.000 A 
BRANCH  23  30
ATOM     29  C   UNL     1      42.935   8.377  20.686  0.00  0.00    +0.000 C 
ATOM     30  C   UNL     1      43.129   6.913  20.213  0.00  0.00    +0.000 C 
ATOM     31  C   UNL     1      43.237   6.037  21.414  0.00  0.00    +0.000 C 
ATOM     32  C   UNL     1      44.353   6.936  19.351  0.00  0.00    +0.000 C 
ENDBRANCH  23  30
ENDBRANCH  21  26
ENDBRANCH  20  21
ENDBRANCH  19  20
ENDBRANCH  18  19
ENDBRANCH   1  18
TORSDOF 7
ENDMDL
MODEL 5
REMARK VINA RESULT:      -8.7      3.956      6.108
REMARK  Name = 
REMARK  7 active torsions:
REMARK  status: ('A' for Active; 'I' for Inactive)
REMARK    1  A    between atoms: C_2  and  C_5
REMARK    2  A    between atoms: C_8  and  C_9
REMARK    3  A    between atoms: C_9  and  O_11
REMARK    4  A    between atoms: O_11  and  C_12
REMARK    5  A    between atoms: C_12  and  C_13
REMARK    6  A    between atoms: C_13  and  N_14
REMARK    7  A    between atoms: C_17  and  C_18
REMARK                            x       y       z     vdW  Elec       q    Type
REMARK                         _______ _______ _______ _____ _____    ______ ____
ROOT
ATOM      1  N   UNL     1      38.330  -3.331  14.936  0.00  0.00    +0.000 NA
ATOM      2  C   UNL     1      37.778  -2.401  15.859  0.00  0.00    +0.000 A 
ATOM      3  N   UNL     1      37.120  -1.321  15.439  0.00  0.00    +0.000 NA
ATOM      4  C   UNL     1      36.634  -0.413  16.296  0.00  0.00    +0.000 A 
ATOM      5  N   UNL     1      36.821  -0.620  17.621  0.00  0.00    +0.000 NA
ATOM      6  C   UNL     1      37.463  -1.664  18.097  0.00  0.00    +0.000 A 
ATOM      7  C   UNL     1      37.603  -1.828  19.497  0.00  0.00    +0.000 A 
ATOM      8  C   UNL     1      38.247  -2.937  19.965  0.00  0.00    +0.000 A 
ATOM      9  C   UNL     1      38.757  -3.888  19.074  0.00  0.00    +0.000 A 
ATOM     10  C   UNL     1      38.619  -3.716  17.682  0.00  0.00    +0.000 A 
ATOM     11  C   UNL     1      37.974  -2.613  17.219  0.00  0.00    +0.000 A 
ENDROOT
BRANCH   4  12
ATOM     12  C   UNL     1      35.989   0.789  15.837  0.00  0.00    +0.000 A 
ATOM     13  C   UNL     1      36.086   1.088  14.486  0.00  0.00    +0.000 A 
ATOM     14  C   UNL     1      35.479   2.243  14.042  0.00  0.00    +0.000 A 
ATOM     15  C   UNL     1      34.790   3.090  14.896  0.00  0.00    +0.000 A 
ATOM     16  C   UNL     1      34.723   2.759  16.218  0.00  0.00    +0.000 A 
ATOM     17  C   UNL     1      35.319   1.619  16.679  0.00  0.00    +0.000 A 
ENDBRANCH   4  12
BRANCH   1  18
ATOM     18  C   UNL     1      37.898  -3.121  13.498  0.00  0.00    +0.000 C 
BRANCH  18  19
ATOM     19  C   UNL     1      38.926  -2.440  12.895  0.00  0.00    +0.000 C 
BRANCH  19  20
ATOM     20  O   UNL     1      39.844  -1.788  12.336  0.00  0.00    +0.000 OA
BRANCH  20  21
ATOM     21  C   UNL     1      39.697  -0.488  11.783  0.00  0.00    +0.000 C 
ATOM     22  O   UNL     1      39.691  -0.484  10.493  0.00  0.00    +0.000 OA
BRANCH  21  26
ATOM     23  C   UNL     1      39.075   3.125  13.932  0.00  0.00    +0.000 A 
ATOM     24  C   UNL     1      39.607   1.979  14.562  0.00  0.00    +0.000 A 
ATOM     25  C   UNL     1      39.822   0.870  13.800  0.00  0.00    +0.000 A 
ATOM     26  C   UNL     1      39.575   0.763  12.460  0.00  0.00    +0.000 A 
ATOM     27  C   UNL     1      39.052   1.914  11.826  0.00  0.00    +0.000 A 
ATOM     28  C   UNL     1      38.823   3.045  12.602  0.00  0.00    +0.000 A 
BRANCH  23  30
ATOM     29  C   UNL     1      40.021   5.138  14.935  0.00  0.00    +0.000 C 
ATOM     30  C   UNL     1      38.704   4.341  14.744  0.00  0.00    +0.000 C 
ATOM     31  C   UNL     1      37.716   5.217  14.052  0.00  0.00    +0.000 C 
ATOM     32  C   UNL     1      38.297   3.917  16.121  0.00  0.00    +0.000 C 
ENDBRANCH  23  30
ENDBRANCH  21  26
ENDBRANCH  20  21
ENDBRANCH  19  20
ENDBRANCH  18  19
ENDBRANCH   1  18
TORSDOF 7
ENDMDL
MODEL 6
REMARK VINA RESULT:      -8.5      4.783      6.156
REMARK  Name = 
REMARK  7 active torsions:
REMARK  status: ('A' for Active; 'I' for Inactive)
REMARK    1  A    between atoms: C_2  and  C_5
REMARK    2  A    between atoms: C_8  and  C_9
REMARK    3  A    between atoms: C_9  and  O_11
REMARK    4  A    between atoms: O_11  and  C_12
REMARK    5  A    between atoms: C_12  and  C_13
REMARK    6  A    between atoms: C_13  and  N_14
REMARK    7  A    between atoms: C_17  and  C_18
REMARK                            x       y       z     vdW  Elec       q    Type
REMARK                         _______ _______ _______ _____ _____    ______ ____
ROOT
ATOM      1  N   UNL     1      37.250  -0.207  17.143  0.00  0.00    +0.000 NA
ATOM      2  C   UNL     1      37.261  -1.260  16.189  0.00  0.00    +0.000 A 
ATOM      3  N   UNL     1      36.304  -2.188  16.175  0.00  0.00    +0.000 NA
ATOM      4  C   UNL     1      36.325  -3.212  15.310  0.00  0.00    +0.000 A 
ATOM      5  N   UNL     1      37.352  -3.284  14.431  0.00  0.00    +0.000 NA
ATOM      6  C   UNL     1      38.326  -2.402  14.396  0.00  0.00    +0.000 A 
ATOM      7  C   UNL     1      39.358  -2.528  13.434  0.00  0.00    +0.000 A 
ATOM      8  C   UNL     1      40.341  -1.581  13.399  0.00  0.00    +0.000 A 
ATOM      9  C   UNL     1      40.323  -0.510  14.300  0.00  0.00    +0.000 A 
ATOM     10  C   UNL     1      39.296  -0.393  15.258  0.00  0.00    +0.000 A 
ATOM     11  C   UNL     1      38.317  -1.336  15.288  0.00  0.00    +0.000 A 
ENDROOT
BRANCH   4  12
ATOM     12  C   UNL     1      35.332  -4.252  15.347  0.00  0.00    +0.000 A 
ATOM     13  C   UNL     1      35.732  -5.499  15.803  0.00  0.00    +0.000 A 
ATOM     14  C   UNL     1      34.788  -6.503  15.832  0.00  0.00    +0.000 A 
ATOM     15  C   UNL     1      33.479  -6.296  15.424  0.00  0.00    +0.000 A 
ATOM     16  C   UNL     1      33.130  -5.055  14.979  0.00  0.00    +0.000 A 
ATOM     17  C   UNL     1      34.051  -4.046  14.942  0.00  0.00    +0.000 A 
ENDBRANCH   4  12
BRANCH   1  18
ATOM     18  C   UNL     1      35.967  -0.098  17.944  0.00  0.00    +0.000 C 
BRANCH  18  19
ATOM     19  C   UNL     1      35.225   0.879  17.326  0.00  0.00    +0.000 C 
BRANCH  19  20
ATOM     20  O   UNL     1      34.519   1.768  16.787  0.00  0.00    +0.000 OA
BRANCH  20  21
ATOM     21  C   UNL     1      34.869   2.482  15.609  0.00  0.00    +0.000 C 
ATOM     22  O   UNL     1      34.087   3.480  15.370  0.00  0.00    +0.000 OA
BRANCH  21  26
ATOM     23  C   UNL     1      37.918   1.950  12.697  0.00  0.00    +0.000 A 
ATOM     24  C   UNL     1      37.962   3.019  13.618  0.00  0.00    +0.000 A 
ATOM     25  C   UNL     1      36.973   3.101  14.553  0.00  0.00    +0.000 A 
ATOM     26  C   UNL     1      35.933   2.226  14.691  0.00  0.00    +0.000 A 
ATOM     27  C   UNL     1      35.894   1.149  13.776  0.00  0.00    +0.000 A 
ATOM     28  C   UNL     1      36.895   1.067  12.814  0.00  0.00    +0.000 A 
BRANCH  23  30
ATOM     29  C   UNL     1      38.439   2.910  10.515  0.00  0.00    +0.000 C 
ATOM     30  C   UNL     1      38.914   1.873  11.566  0.00  0.00    +0.000 C 
ATOM     31  C   UNL     1      40.298   2.229  11.991  0.00  0.00    +0.000 C 
ATOM     32  C   UNL     1      38.798   0.543  10.887  0.00  0.00    +0.000 C 
ENDBRANCH  23  30
ENDBRANCH  21  26
ENDBRANCH  20  21
ENDBRANCH  19  20
ENDBRANCH  18  19
ENDBRANCH   1  18
TORSDOF 7
ENDMDL
MODEL 7
REMARK VINA RESULT:      -8.3      1.844      4.355
REMARK  Name = 
REMARK  7 active torsions:
REMARK  status: ('A' for Active; 'I' for Inactive)
REMARK    1  A    between atoms: C_2  and  C_5
REMARK    2  A    between atoms: C_8  and  C_9
REMARK    3  A    between atoms: C_9  and  O_11
REMARK    4  A    between atoms: O_11  and  C_12
REMARK    5  A    between atoms: C_12  and  C_13
REMARK    6  A    between atoms: C_13  and  N_14
REMARK    7  A    between atoms: C_17  and  C_18
REMARK                            x       y       z     vdW  Elec       q    Type
REMARK                         _______ _______ _______ _____ _____    ______ ____
ROOT
ATOM      1  N   UNL     1      35.905   2.529  14.572  0.00  0.00    +0.000 NA
ATOM      2  C   UNL     1      36.383   1.193  14.505  0.00  0.00    +0.000 A 
ATOM      3  N   UNL     1      37.269   0.824  13.580  0.00  0.00    +0.000 NA
ATOM      4  C   UNL     1      37.695  -0.442  13.476  0.00  0.00    +0.000 A 
ATOM      5  N   UNL     1      37.204  -1.356  14.347  0.00  0.00    +0.000 NA
ATOM      6  C   UNL     1      36.327  -1.054  15.279  0.00  0.00    +0.000 A 
ATOM      7  C   UNL     1      35.873  -2.057  16.170  0.00  0.00    +0.000 A 
ATOM      8  C   UNL     1      34.986  -1.710  17.149  0.00  0.00    +0.000 A 
ATOM      9  C   UNL     1      34.539  -0.389  17.262  0.00  0.00    +0.000 A 
ATOM     10  C   UNL     1      34.990   0.603  16.368  0.00  0.00    +0.000 A 
ATOM     11  C   UNL     1      35.876   0.255  15.397  0.00  0.00    +0.000 A 
ENDROOT
BRANCH   4  12
ATOM     12  C   UNL     1      38.594  -0.853  12.430  0.00  0.00    +0.000 A 
ATOM     13  C   UNL     1      38.894   0.077  11.445  0.00  0.00    +0.000 A 
ATOM     14  C   UNL     1      39.747  -0.312  10.436  0.00  0.00    +0.000 A 
ATOM     15  C   UNL     1      40.299  -1.583  10.386  0.00  0.00    +0.000 A 
ATOM     16  C   UNL     1      39.975  -2.467  11.373  0.00  0.00    +0.000 A 
ATOM     17  C   UNL     1      39.129  -2.101  12.382  0.00  0.00    +0.000 A 
ENDBRANCH   4  12
BRANCH   1  18
ATOM     18  C   UNL     1      36.656   3.511  13.696  0.00  0.00    +0.000 C 
BRANCH  18  19
ATOM     19  C   UNL     1      37.271   4.385  14.558  0.00  0.00    +0.000 C 
BRANCH  19  20
ATOM     20  O   UNL     1      37.868   5.172  15.336  0.00  0.00    +0.000 OA
BRANCH  20  21
ATOM     21  C   UNL     1      38.248   4.864  16.670  0.00  0.00    +0.000 C 
ATOM     22  O   UNL     1      37.444   4.038  17.249  0.00  0.00    +0.000 OA
BRANCH  21  26
ATOM     23  C   UNL     1      41.405   6.587  18.934  0.00  0.00    +0.000 A 
ATOM     24  C   UNL     1      40.239   6.093  19.558  0.00  0.00    +0.000 A 
ATOM     25  C   UNL     1      39.288   5.513  18.773  0.00  0.00    +0.000 A 
ATOM     26  C   UNL     1      39.362   5.353  17.418  0.00  0.00    +0.000 A 
ATOM     27  C   UNL     1      40.534   5.838  16.793  0.00  0.00    +0.000 A 
ATOM     28  C   UNL     1      41.502   6.439  17.589  0.00  0.00    +0.000 A 
BRANCH  23  30
ATOM     29  C   UNL     1      42.748   6.461  20.966  0.00  0.00    +0.000 C 
ATOM     30  C   UNL     1      42.437   7.346  19.731  0.00  0.00    +0.000 C 
ATOM     31  C   UNL     1      43.702   7.566  18.975  0.00  0.00    +0.000 C 
ATOM     32  C   UNL     1      41.822   8.593  20.286  0.00  0.00    +0.000 C 
ENDBRANCH  23  30
ENDBRANCH  21  26
ENDBRANCH  20  21
ENDBRANCH  19  20
ENDBRANCH  18  19
ENDBRANCH   1  18
TORSDOF 7
ENDMDL
MODEL 8
REMARK VINA RESULT:      -8.1      4.438      6.926
REMARK  Name = 
REMARK  7 active torsions:
REMARK  status: ('A' for Active; 'I' for Inactive)
REMARK    1  A    between atoms: C_2  and  C_5
REMARK    2  A    between atoms: C_8  and  C_9
REMARK    3  A    between atoms: C_9  and  O_11
REMARK    4  A    between atoms: O_11  and  C_12
REMARK    5  A    between atoms: C_12  and  C_13
REMARK    6  A    between atoms: C_13  and  N_14
REMARK    7  A    between atoms: C_17  and  C_18
REMARK                            x       y       z     vdW  Elec       q    Type
REMARK                         _______ _______ _______ _____ _____    ______ ____
ROOT
ATOM      1  N   UNL     1      37.163   5.491  13.686  0.00  0.00    +0.000 NA
ATOM      2  C   UNL     1      37.313   4.722  14.871  0.00  0.00    +0.000 A 
ATOM      3  N   UNL     1      36.832   3.482  14.955  0.00  0.00    +0.000 NA
ATOM      4  C   UNL     1      36.926   2.763  16.082  0.00  0.00    +0.000 A 
ATOM      5  N   UNL     1      37.537   3.326  17.151  0.00  0.00    +0.000 NA
ATOM      6  C   UNL     1      38.030   4.545  17.131  0.00  0.00    +0.000 A 
ATOM      7  C   UNL     1      38.675   5.063  18.281  0.00  0.00    +0.000 A 
ATOM      8  C   UNL     1      39.206   6.319  18.224  0.00  0.00    +0.000 A 
ATOM      9  C   UNL     1      39.110   7.075  17.050  0.00  0.00    +0.000 A 
ATOM     10  C   UNL     1      38.462   6.556  15.911  0.00  0.00    +0.000 A 
ATOM     11  C   UNL     1      37.937   5.303  15.970  0.00  0.00    +0.000 A 
ENDROOT
BRANCH   4  12
ATOM     12  C   UNL     1      36.340   1.453  16.193  0.00  0.00    +0.000 A 
ATOM     13  C   UNL     1      36.889   0.442  15.418  0.00  0.00    +0.000 A 
ATOM     14  C   UNL     1      36.327  -0.813  15.512  0.00  0.00    +0.000 A 
ATOM     15  C   UNL     1      35.251  -1.078  16.345  0.00  0.00    +0.000 A 
ATOM     16  C   UNL     1      34.740  -0.054  17.086  0.00  0.00    +0.000 A 
ATOM     17  C   UNL     1      35.283   1.198  17.007  0.00  0.00    +0.000 A 
ENDBRANCH   4  12
BRANCH   1  18
ATOM     18  C   UNL     1      36.652   4.710  12.491  0.00  0.00    +0.000 C 
BRANCH  18  19
ATOM     19  C   UNL     1      35.944   5.610  11.733  0.00  0.00    +0.000 C 
BRANCH  19  20
ATOM     20  O   UNL     1      35.327   6.438  11.017  0.00  0.00    +0.000 OA
BRANCH  20  21
ATOM     21  C   UNL     1      34.231   7.231  11.451  0.00  0.00    +0.000 C 
ATOM     22  O   UNL     1      33.308   7.354  10.558  0.00  0.00    +0.000 OA
BRANCH  21  26
ATOM     23  C   UNL     1      33.991   9.185  15.217  0.00  0.00    +0.000 A 
ATOM     24  C   UNL     1      34.414   9.873  14.059  0.00  0.00    +0.000 A 
ATOM     25  C   UNL     1      34.424   9.194  12.878  0.00  0.00    +0.000 A 
ATOM     26  C   UNL     1      34.046   7.893  12.703  0.00  0.00    +0.000 A 
ATOM     27  C   UNL     1      33.612   7.206  13.860  0.00  0.00    +0.000 A 
ATOM     28  C   UNL     1      33.610   7.892  15.069  0.00  0.00    +0.000 A 
BRANCH  23  30
ATOM     29  C   UNL     1      33.879  11.361  16.314  0.00  0.00    +0.000 C 
ATOM     30  C   UNL     1      34.073   9.845  16.572  0.00  0.00    +0.000 C 
ATOM     31  C   UNL     1      33.005   9.382  17.504  0.00  0.00    +0.000 C 
ATOM     32  C   UNL     1      35.464   9.711  17.109  0.00  0.00    +0.000 C 
ENDBRANCH  23  30
ENDBRANCH  21  26
ENDBRANCH  20  21
ENDBRANCH  19  20
ENDBRANCH  18  19
ENDBRANCH   1  18
TORSDOF 7
ENDMDL
MODEL 9
REMARK VINA RESULT:      -8.1      2.541      7.924
REMARK  Name = 
REMARK  7 active torsions:
REMARK  status: ('A' for Active; 'I' for Inactive)
REMARK    1  A    between atoms: C_2  and  C_5
REMARK    2  A    between atoms: C_8  and  C_9
REMARK    3  A    between atoms: C_9  and  O_11
REMARK    4  A    between atoms: O_11  and  C_12
REMARK    5  A    between atoms: C_12  and  C_13
REMARK    6  A    between atoms: C_13  and  N_14
REMARK    7  A    between atoms: C_17  and  C_18
REMARK                            x       y       z     vdW  Elec       q    Type
REMARK                         _______ _______ _______ _____ _____    ______ ____
ROOT
ATOM      1  N   UNL     1      38.649   3.504  13.233  0.00  0.00    +0.000 NA
ATOM      2  C   UNL     1      38.308   3.656  14.604  0.00  0.00    +0.000 A 
ATOM      3  N   UNL     1      39.007   4.461  15.404  0.00  0.00    +0.000 NA
ATOM      4  C   UNL     1      38.725   4.579  16.709  0.00  0.00    +0.000 A 
ATOM      5  N   UNL     1      37.694   3.858  17.208  0.00  0.00    +0.000 NA
ATOM      6  C   UNL     1      36.968   3.045  16.471  0.00  0.00    +0.000 A 
ATOM      7  C   UNL     1      35.890   2.337  17.055  0.00  0.00    +0.000 A 
ATOM      8  C   UNL     1      35.133   1.525  16.262  0.00  0.00    +0.000 A 
ATOM      9  C   UNL     1      35.423   1.398  14.899  0.00  0.00    +0.000 A 
ATOM     10  C   UNL     1      36.501   2.101  14.324  0.00  0.00    +0.000 A 
ATOM     11  C   UNL     1      37.251   2.912  15.117  0.00  0.00    +0.000 A 
ENDROOT
BRANCH   4  12
ATOM     12  C   UNL     1      39.528   5.391  17.584  0.00  0.00    +0.000 A 
ATOM     13  C   UNL     1      40.702   5.919  17.066  0.00  0.00    +0.000 A 
ATOM     14  C   UNL     1      41.480   6.690  17.902  0.00  0.00    +0.000 A 
ATOM     15  C   UNL     1      41.123   6.943  19.217  0.00  0.00    +0.000 A 
ATOM     16  C   UNL     1      39.962   6.401  19.687  0.00  0.00    +0.000 A 
ATOM     17  C   UNL     1      39.177   5.633  18.874  0.00  0.00    +0.000 A 
ENDBRANCH   4  12
BRANCH   1  18
ATOM     18  C   UNL     1      39.679   4.496  12.728  0.00  0.00    +0.000 C 
BRANCH  18  19
ATOM     19  C   UNL     1      40.795   3.754  12.431  0.00  0.00    +0.000 C 
BRANCH  19  20
ATOM     20  O   UNL     1      41.799   3.060  12.129  0.00  0.00    +0.000 OA
BRANCH  20  21
ATOM     21  C   UNL     1      41.780   1.658  11.900  0.00  0.00    +0.000 C 
ATOM     22  O   UNL     1      42.486   1.301  10.881  0.00  0.00    +0.000 OA
BRANCH  21  26
ATOM     23  C   UNL     1      39.539  -1.138  14.186  0.00  0.00    +0.000 A 
ATOM     24  C   UNL     1      39.021  -0.579  12.997  0.00  0.00    +0.000 A 
ATOM     25  C   UNL     1      39.814   0.276  12.292  0.00  0.00    +0.000 A 
ATOM     26  C   UNL     1      41.087   0.643  12.627  0.00  0.00    +0.000 A 
ATOM     27  C   UNL     1      41.611   0.076  13.812  0.00  0.00    +0.000 A 
ATOM     28  C   UNL     1      40.802  -0.790  14.539  0.00  0.00    +0.000 A 
BRANCH  23  30
ATOM     29  C   UNL     1      37.956  -1.015  16.038  0.00  0.00    +0.000 C 
ATOM     30  C   UNL     1      38.668  -1.995  15.071  0.00  0.00    +0.000 C 
ATOM     31  C   UNL     1      37.631  -2.745  14.306  0.00  0.00    +0.000 C 
ATOM     32  C   UNL     1      39.533  -2.850  15.944  0.00  0.00    +0.000 C 
ENDBRANCH  23  30
ENDBRANCH  21  26
ENDBRANCH  20  21
ENDBRANCH  19  20
ENDBRANCH  18  19
ENDBRANCH   1  18
TORSDOF 7
ENDMDL
MODEL 10
REMARK VINA RESULT:      -8.1      4.083      6.884
REMARK  Name = 
REMARK  7 active torsions:
REMARK  status: ('A' for Active; 'I' for Inactive)
REMARK    1  A    between atoms: C_2  and  C_5
REMARK    2  A    between atoms: C_8  and  C_9
REMARK    3  A    between atoms: C_9  and  O_11
REMARK    4  A    between atoms: O_11  and  C_12
REMARK    5  A    between atoms: C_12  and  C_13
REMARK    6  A    between atoms: C_13  and  N_14
REMARK    7  A    between atoms: C_17  and  C_18
REMARK                            x       y       z     vdW  Elec       q    Type
REMARK                         _______ _______ _______ _____ _____    ______ ____
ROOT
ATOM      1  N   UNL     1      39.537   2.493  14.495  0.00  0.00    +0.000 NA
ATOM      2  C   UNL     1      39.235   1.125  14.734  0.00  0.00    +0.000 A 
ATOM      3  N   UNL     1      38.049   0.754  15.214  0.00  0.00    +0.000 NA
ATOM      4  C   UNL     1      37.767  -0.527  15.488  0.00  0.00    +0.000 A 
ATOM      5  N   UNL     1      38.724  -1.456  15.257  0.00  0.00    +0.000 NA
ATOM      6  C   UNL     1      39.913  -1.153  14.786  0.00  0.00    +0.000 A 
ATOM      7  C   UNL     1      40.860  -2.180  14.547  0.00  0.00    +0.000 A 
ATOM      8  C   UNL     1      42.076  -1.842  14.029  0.00  0.00    +0.000 A 
ATOM      9  C   UNL     1      42.376  -0.505  13.741  0.00  0.00    +0.000 A 
ATOM     10  C   UNL     1      41.432   0.512  13.986  0.00  0.00    +0.000 A 
ATOM     11  C   UNL     1      40.220   0.172  14.499  0.00  0.00    +0.000 A 
ENDROOT
BRANCH   4  12
ATOM     12  C   UNL     1      36.512  -0.915  16.077  0.00  0.00    +0.000 A 
ATOM     13  C   UNL     1      35.775   0.073  16.716  0.00  0.00    +0.000 A 
ATOM     14  C   UNL     1      34.578  -0.294  17.290  0.00  0.00    +0.000 A 
ATOM     15  C   UNL     1      34.105  -1.596  17.242  0.00  0.00    +0.000 A 
ATOM     16  C   UNL     1      34.863  -2.536  16.607  0.00  0.00    +0.000 A 
ATOM     17  C   UNL     1      36.055  -2.193  16.032  0.00  0.00    +0.000 A 
ENDBRANCH   4  12
BRANCH   1  18
ATOM     18  C   UNL     1      38.346   3.425  14.591  0.00  0.00    +0.000 C 
BRANCH  18  19
ATOM     19  C   UNL     1      37.879   3.566  13.307  0.00  0.00    +0.000 C 
BRANCH  19  20
ATOM     20  O   UNL     1      37.469   3.729  12.130  0.00  0.00    +0.000 OA
BRANCH  20  21
ATOM     21  C   UNL     1      37.997   3.069  10.987  0.00  0.00    +0.000 C 
ATOM     22  O   UNL     1      37.698   3.658   9.879  0.00  0.00    +0.000 OA
BRANCH  21  26
ATOM     23  C   UNL     1      40.247  -0.502  10.493  0.00  0.00    +0.000 A 
ATOM     24  C   UNL     1      40.765   0.752  10.102  0.00  0.00    +0.000 A 
ATOM     25  C   UNL     1      40.005   1.860  10.333  0.00  0.00    +0.000 A 
ATOM     26  C   UNL     1      38.774   1.873  10.924  0.00  0.00    +0.000 A 
ATOM     27  C   UNL     1      38.258   0.618  11.325  0.00  0.00    +0.000 A 
ATOM     28  C   UNL     1      39.026  -0.515  11.084  0.00  0.00    +0.000 A 
BRANCH  23  30
ATOM     29  C   UNL     1      40.650  -2.077   8.674  0.00  0.00    +0.000 C 
ATOM     30  C   UNL     1      40.987  -1.773  10.157  0.00  0.00    +0.000 C 
ATOM     31  C   UNL     1      42.465  -1.633  10.288  0.00  0.00    +0.000 C 
ATOM     32  C   UNL     1      40.401  -2.912  10.934  0.00  0.00    +0.000 C 
ENDBRANCH  23  30
ENDBRANCH  21  26
ENDBRANCH  20  21
ENDBRANCH  19  20
ENDBRANCH  18  19
ENDBRANCH   1  18
TORSDOF 7
ENDMDL
