MODEL 1
REMARK VINA RESULT:      -6.9      0.000      0.000
REMARK  Name = 
REMARK  4 active torsions:
REMARK  status: ('A' for Active; 'I' for Inactive)
REMARK    1  A    between atoms: C_2  and  C_3
REMARK    2  A    between atoms: C_3  and  C_4
REMARK    3  A    between atoms: C_3  and  C_15
REMARK    4  A    between atoms: N_6  and  C_7
REMARK                            x       y       z     vdW  Elec       q    Type
REMARK                         _______ _______ _______ _____ _____    ______ ____
ROOT
ATOM      1  C   UNL     1      18.032   9.928  36.159  0.00  0.00    +0.000 C 
ATOM      2  O   UNL     1      18.771   9.650  35.208  0.00  0.00    +0.000 OA
ATOM      3  N   UNL     1      16.835  10.570  35.900  0.00  0.00    +0.000 NA
ENDROOT
BRANCH   3   4
ATOM      4  C   UNL     1      16.324  10.966  34.628  0.00  0.00    +0.000 A 
ATOM      5  C   UNL     1      16.692  10.354  33.452  0.00  0.00    +0.000 A 
ATOM      6  C   UNL     1      16.232  10.690  32.201  0.00  0.00    +0.000 A 
ATOM      7  C   UNL     1      15.330  11.725  32.103  0.00  0.00    +0.000 A 
ATOM      8  C   UNL     1      14.813  12.117  30.776  0.00  0.00    +0.000 C 
ATOM      9  C   UNL     1      14.917  12.384  33.246  0.00  0.00    +0.000 A 
ATOM     10  O   UNL     1      14.003  13.420  33.073  0.00  0.00    +0.000 OA
ATOM     11  C   UNL     1      15.417  11.993  34.460  0.00  0.00    +0.000 A 
ENDBRANCH   3   4
BRANCH   1  12
ATOM     12  C   UNL     1      18.449   9.559  37.626  0.00  0.00    +0.000 C 
BRANCH  12  13
ATOM     13  C   UNL     1      19.492  10.723  37.886  0.00  0.00    +0.000 A 
ATOM     14  C   UNL     1      20.809  10.311  37.940  0.00  0.00    +0.000 A 
ATOM     15  C   UNL     1      21.762  11.311  38.168  0.00  0.00    +0.000 A 
ATOM     16  C   UNL     1      21.366  12.620  38.324  0.00  0.00    +0.000 A 
ATOM     17  C   UNL     1      20.024  12.975  38.261  0.00  0.00    +0.000 A 
ATOM     18  C   UNL     1      19.089  11.982  38.035  0.00  0.00    +0.000 A 
ENDBRANCH  12  13
BRANCH  12  20
ATOM     19  C   UNL     1      17.068   9.577  39.629  0.00  0.00    +0.000 C 
ATOM     20  C   UNL     1      17.176  10.308  38.332  0.00  0.00    +0.000 C 
ENDBRANCH  12  20
ENDBRANCH   1  12
TORSDOF 4
ENDMDL
MODEL 2
REMARK VINA RESULT:      -6.9      1.282      1.670
REMARK  Name = 
REMARK  4 active torsions:
REMARK  status: ('A' for Active; 'I' for Inactive)
REMARK    1  A    between atoms: C_2  and  C_3
REMARK    2  A    between atoms: C_3  and  C_4
REMARK    3  A    between atoms: C_3  and  C_15
REMARK    4  A    between atoms: N_6  and  C_7
REMARK                            x       y       z     vdW  Elec       q    Type
REMARK                         _______ _______ _______ _____ _____    ______ ____
ROOT
ATOM      1  C   UNL     1      18.153  10.353  36.836  0.00  0.00    +0.000 C 
ATOM      2  O   UNL     1      18.153  11.575  37.021  0.00  0.00    +0.000 OA
ATOM      3  N   UNL     1      17.466   9.850  35.747  0.00  0.00    +0.000 NA
ENDROOT
BRANCH   3   4
ATOM      4  C   UNL     1      16.729  10.587  34.773  0.00  0.00    +0.000 A 
ATOM      5  C   UNL     1      16.896  10.409  33.418  0.00  0.00    +0.000 A 
ATOM      6  C   UNL     1      16.215  11.087  32.436  0.00  0.00    +0.000 A 
ATOM      7  C   UNL     1      15.288  12.027  32.826  0.00  0.00    +0.000 A 
ATOM      8  C   UNL     1      14.537  12.778  31.800  0.00  0.00    +0.000 C 
ATOM      9  C   UNL     1      15.070  12.257  34.172  0.00  0.00    +0.000 A 
ATOM     10  O   UNL     1      14.119  13.221  34.494  0.00  0.00    +0.000 OA
ATOM     11  C   UNL     1      15.785  11.542  35.096  0.00  0.00    +0.000 A 
ENDBRANCH   3   4
BRANCH   1  12
ATOM     12  C   UNL     1      18.919   9.399  37.819  0.00  0.00    +0.000 C 
BRANCH  12  13
ATOM     13  C   UNL     1      20.389   9.950  37.603  0.00  0.00    +0.000 A 
ATOM     14  C   UNL     1      20.872  10.716  38.646  0.00  0.00    +0.000 A 
ATOM     15  C   UNL     1      22.168  11.222  38.494  0.00  0.00    +0.000 A 
ATOM     16  C   UNL     1      22.888  10.946  37.354  0.00  0.00    +0.000 A 
ATOM     17  C   UNL     1      22.349  10.168  36.336  0.00  0.00    +0.000 A 
ATOM     18  C   UNL     1      21.067   9.672  36.494  0.00  0.00    +0.000 A 
ENDBRANCH  12  13
BRANCH  12  20
ATOM     19  C   UNL     1      17.493   9.502  39.788  0.00  0.00    +0.000 C 
ATOM     20  C   UNL     1      18.599  10.284  39.160  0.00  0.00    +0.000 C 
ENDBRANCH  12  20
ENDBRANCH   1  12
TORSDOF 4
ENDMDL
MODEL 3
REMARK VINA RESULT:      -6.5      1.868      3.858
REMARK  Name = 
REMARK  4 active torsions:
REMARK  status: ('A' for Active; 'I' for Inactive)
REMARK    1  A    between atoms: C_2  and  C_3
REMARK    2  A    between atoms: C_3  and  C_4
REMARK    3  A    between atoms: C_3  and  C_15
REMARK    4  A    between atoms: N_6  and  C_7
REMARK                            x       y       z     vdW  Elec       q    Type
REMARK                         _______ _______ _______ _____ _____    ______ ____
ROOT
ATOM      1  C   UNL     1      17.874  10.213  37.883  0.00  0.00    +0.000 C 
ATOM      2  O   UNL     1      17.778   9.154  37.255  0.00  0.00    +0.000 OA
ATOM      3  N   UNL     1      17.363  11.367  37.317  0.00  0.00    +0.000 NA
ENDROOT
BRANCH   3   4
ATOM      4  C   UNL     1      16.713  11.495  36.054  0.00  0.00    +0.000 A 
ATOM      5  C   UNL     1      15.574  12.247  35.873  0.00  0.00    +0.000 A 
ATOM      6  C   UNL     1      14.907  12.408  34.682  0.00  0.00    +0.000 A 
ATOM      7  C   UNL     1      15.409  11.768  33.571  0.00  0.00    +0.000 A 
ATOM      8  C   UNL     1      14.719  11.916  32.273  0.00  0.00    +0.000 C 
ATOM      9  C   UNL     1      16.551  10.997  33.682  0.00  0.00    +0.000 A 
ATOM     10  O   UNL     1      17.001  10.379  32.519  0.00  0.00    +0.000 OA
ATOM     11  C   UNL     1      17.163  10.882  34.901  0.00  0.00    +0.000 A 
ENDBRANCH   3   4
BRANCH   1  12
ATOM     12  C   UNL     1      18.564  10.243  39.293  0.00  0.00    +0.000 C 
BRANCH  12  13
ATOM     13  C   UNL     1      17.551   9.316  40.083  0.00  0.00    +0.000 A 
ATOM     14  C   UNL     1      18.040   8.059  40.383  0.00  0.00    +0.000 A 
ATOM     15  C   UNL     1      17.175   7.209  41.082  0.00  0.00    +0.000 A 
ATOM     16  C   UNL     1      15.916   7.641  41.433  0.00  0.00    +0.000 A 
ATOM     17  C   UNL     1      15.479   8.919  41.103  0.00  0.00    +0.000 A 
ATOM     18  C   UNL     1      16.339   9.752  40.412  0.00  0.00    +0.000 A 
ENDBRANCH  12  13
BRANCH  12  20
ATOM     19  C   UNL     1      20.889   9.849  38.692  0.00  0.00    +0.000 C 
ATOM     20  C   UNL     1      19.646   9.063  38.950  0.00  0.00    +0.000 C 
ENDBRANCH  12  20
ENDBRANCH   1  12
TORSDOF 4
ENDMDL
MODEL 4
REMARK VINA RESULT:      -6.2     19.325     21.893
REMARK  Name = 
REMARK  4 active torsions:
REMARK  status: ('A' for Active; 'I' for Inactive)
REMARK    1  A    between atoms: C_2  and  C_3
REMARK    2  A    between atoms: C_3  and  C_4
REMARK    3  A    between atoms: C_3  and  C_15
REMARK    4  A    between atoms: N_6  and  C_7
REMARK                            x       y       z     vdW  Elec       q    Type
REMARK                         _______ _______ _______ _____ _____    ______ ____
ROOT
ATOM      1  C   UNL     1      33.261  -3.262  34.552  0.00  0.00    +0.000 C 
ATOM      2  O   UNL     1      32.088  -2.874  34.574  0.00  0.00    +0.000 OA
ATOM      3  N   UNL     1      34.261  -2.334  34.324  0.00  0.00    +0.000 NA
ENDROOT
BRANCH   3   4
ATOM      4  C   UNL     1      34.106  -0.933  34.103  0.00  0.00    +0.000 A 
ATOM      5  C   UNL     1      34.072  -0.374  32.846  0.00  0.00    +0.000 A 
ATOM      6  C   UNL     1      33.924   0.965  32.573  0.00  0.00    +0.000 A 
ATOM      7  C   UNL     1      33.800   1.829  33.637  0.00  0.00    +0.000 A 
ATOM      8  C   UNL     1      33.640   3.276  33.385  0.00  0.00    +0.000 C 
ATOM      9  C   UNL     1      33.825   1.335  34.929  0.00  0.00    +0.000 A 
ATOM     10  O   UNL     1      33.695   2.265  35.955  0.00  0.00    +0.000 OA
ATOM     11  C   UNL     1      33.975  -0.012  35.124  0.00  0.00    +0.000 A 
ENDBRANCH   3   4
BRANCH   1  12
ATOM     12  C   UNL     1      33.603  -4.776  34.778  0.00  0.00    +0.000 C 
BRANCH  12  13
ATOM     13  C   UNL     1      34.109  -5.136  33.320  0.00  0.00    +0.000 A 
ATOM     14  C   UNL     1      33.214  -4.833  32.313  0.00  0.00    +0.000 A 
ATOM     15  C   UNL     1      33.624  -5.136  31.009  0.00  0.00    +0.000 A 
ATOM     16  C   UNL     1      34.859  -5.703  30.787  0.00  0.00    +0.000 A 
ATOM     17  C   UNL     1      35.718  -5.986  31.843  0.00  0.00    +0.000 A 
ATOM     18  C   UNL     1      35.305  -5.684  33.128  0.00  0.00    +0.000 A 
ENDBRANCH  12  13
BRANCH  12  20
ATOM     19  C   UNL     1      34.920  -4.984  36.813  0.00  0.00    +0.000 C 
ATOM     20  C   UNL     1      35.087  -4.499  35.411  0.00  0.00    +0.000 C 
ENDBRANCH  12  20
ENDBRANCH   1  12
TORSDOF 4
ENDMDL
MODEL 5
REMARK VINA RESULT:      -6.2      2.844      7.034
REMARK  Name = 
REMARK  4 active torsions:
REMARK  status: ('A' for Active; 'I' for Inactive)
REMARK    1  A    between atoms: C_2  and  C_3
REMARK    2  A    between atoms: C_3  and  C_4
REMARK    3  A    between atoms: C_3  and  C_15
REMARK    4  A    between atoms: N_6  and  C_7
REMARK                            x       y       z     vdW  Elec       q    Type
REMARK                         _______ _______ _______ _____ _____    ______ ____
ROOT
ATOM      1  C   UNL     1      19.607  11.057  38.017  0.00  0.00    +0.000 C 
ATOM      2  O   UNL     1      20.116  12.183  38.032  0.00  0.00    +0.000 OA
ATOM      3  N   UNL     1      20.430   9.960  37.842  0.00  0.00    +0.000 NA
ENDROOT
BRANCH   3   4
ATOM      4  C   UNL     1      21.847   9.961  37.673  0.00  0.00    +0.000 A 
ATOM      5  C   UNL     1      22.451   9.996  36.437  0.00  0.00    +0.000 A 
ATOM      6  C   UNL     1      23.807  10.000  36.212  0.00  0.00    +0.000 A 
ATOM      7  C   UNL     1      24.641   9.966  37.307  0.00  0.00    +0.000 A 
ATOM      8  C   UNL     1      26.104   9.968  37.107  0.00  0.00    +0.000 C 
ATOM      9  C   UNL     1      24.101   9.931  38.579  0.00  0.00    +0.000 A 
ATOM     10  O   UNL     1      25.002   9.897  39.638  0.00  0.00    +0.000 OA
ATOM     11  C   UNL     1      22.739   9.929  38.726  0.00  0.00    +0.000 A 
ENDBRANCH   3   4
BRANCH   1  12
ATOM     12  C   UNL     1      18.057  10.883  38.191  0.00  0.00    +0.000 C 
BRANCH  12  13
ATOM     13  C   UNL     1      17.656  10.702  36.669  0.00  0.00    +0.000 A 
ATOM     14  C   UNL     1      17.854   9.429  36.172  0.00  0.00    +0.000 A 
ATOM     15  C   UNL     1      17.511   9.228  34.829  0.00  0.00    +0.000 A 
ATOM     16  C   UNL     1      17.006  10.268  34.083  0.00  0.00    +0.000 A 
ATOM     17  C   UNL     1      16.828  11.530  34.638  0.00  0.00    +0.000 A 
ATOM     18  C   UNL     1      17.169  11.720  35.965  0.00  0.00    +0.000 A 
ENDBRANCH  12  13
BRANCH  12  20
ATOM     19  C   UNL     1      17.470   9.232  39.880  0.00  0.00    +0.000 C 
ATOM     20  C   UNL     1      18.128   9.284  38.541  0.00  0.00    +0.000 C 
ENDBRANCH  12  20
ENDBRANCH   1  12
TORSDOF 4
ENDMDL
MODEL 6
REMARK VINA RESULT:      -6.2      3.795      7.158
REMARK  Name = 
REMARK  4 active torsions:
REMARK  status: ('A' for Active; 'I' for Inactive)
REMARK    1  A    between atoms: C_2  and  C_3
REMARK    2  A    between atoms: C_3  and  C_4
REMARK    3  A    between atoms: C_3  and  C_15
REMARK    4  A    between atoms: N_6  and  C_7
REMARK                            x       y       z     vdW  Elec       q    Type
REMARK                         _______ _______ _______ _____ _____    ______ ____
ROOT
ATOM      1  C   UNL     1      18.854  10.084  39.446  0.00  0.00    +0.000 C 
ATOM      2  O   UNL     1      19.455  10.179  40.521  0.00  0.00    +0.000 OA
ATOM      3  N   UNL     1      18.111   8.944  39.203  0.00  0.00    +0.000 NA
ENDROOT
BRANCH   3   4
ATOM      4  C   UNL     1      17.943   7.821  40.066  0.00  0.00    +0.000 A 
ATOM      5  C   UNL     1      17.020   7.794  41.086  0.00  0.00    +0.000 A 
ATOM      6  C   UNL     1      16.812   6.743  41.946  0.00  0.00    +0.000 A 
ATOM      7  C   UNL     1      17.587   5.616  41.785  0.00  0.00    +0.000 A 
ATOM      8  C   UNL     1      17.394   4.465  42.690  0.00  0.00    +0.000 C 
ATOM      9  C   UNL     1      18.534   5.575  40.778  0.00  0.00    +0.000 A 
ATOM     10  O   UNL     1      19.281   4.405  40.673  0.00  0.00    +0.000 OA
ATOM     11  C   UNL     1      18.685   6.661  39.958  0.00  0.00    +0.000 A 
ENDBRANCH   3   4
BRANCH   1  12
ATOM     12  C   UNL     1      18.935  11.236  38.384  0.00  0.00    +0.000 C 
BRANCH  12  13
ATOM     13  C   UNL     1      20.389  10.951  37.821  0.00  0.00    +0.000 A 
ATOM     14  C   UNL     1      21.344  11.871  38.206  0.00  0.00    +0.000 A 
ATOM     15  C   UNL     1      22.642  11.653  37.729  0.00  0.00    +0.000 A 
ATOM     16  C   UNL     1      22.909  10.569  36.924  0.00  0.00    +0.000 A 
ATOM     17  C   UNL     1      21.905   9.676  36.568  0.00  0.00    +0.000 A 
ATOM     18  C   UNL     1      20.626   9.898  37.043  0.00  0.00    +0.000 A 
ENDBRANCH  12  13
BRANCH  12  20
ATOM     19  C   UNL     1      17.114  11.415  36.781  0.00  0.00    +0.000 C 
ATOM     20  C   UNL     1      18.134  10.415  37.216  0.00  0.00    +0.000 C 
ENDBRANCH  12  20
ENDBRANCH   1  12
TORSDOF 4
ENDMDL
MODEL 7
REMARK VINA RESULT:      -6.2     18.051     19.620
REMARK  Name = 
REMARK  4 active torsions:
REMARK  status: ('A' for Active; 'I' for Inactive)
REMARK    1  A    between atoms: C_2  and  C_3
REMARK    2  A    between atoms: C_3  and  C_4
REMARK    3  A    between atoms: C_3  and  C_15
REMARK    4  A    between atoms: N_6  and  C_7
REMARK                            x       y       z     vdW  Elec       q    Type
REMARK                         _______ _______ _______ _____ _____    ______ ____
ROOT
ATOM      1  C   UNL     1      27.885  23.716  26.190  0.00  0.00    +0.000 C 
ATOM      2  O   UNL     1      28.391  24.827  26.379  0.00  0.00    +0.000 OA
ATOM      3  N   UNL     1      26.706  23.406  26.842  0.00  0.00    +0.000 NA
ENDROOT
BRANCH   3   4
ATOM      4  C   UNL     1      25.969  24.237  27.738  0.00  0.00    +0.000 A 
ATOM      5  C   UNL     1      25.043  25.160  27.309  0.00  0.00    +0.000 A 
ATOM      6  C   UNL     1      24.304  25.984  28.124  0.00  0.00    +0.000 A 
ATOM      7  C   UNL     1      24.499  25.889  29.483  0.00  0.00    +0.000 A 
ATOM      8  C   UNL     1      23.724  26.759  30.392  0.00  0.00    +0.000 C 
ATOM      9  C   UNL     1      25.415  24.982  29.983  0.00  0.00    +0.000 A 
ATOM     10  O   UNL     1      25.560  24.940  31.366  0.00  0.00    +0.000 OA
ATOM     11  C   UNL     1      26.115  24.192  29.110  0.00  0.00    +0.000 A 
ENDBRANCH   3   4
BRANCH   1  12
ATOM     12  C   UNL     1      28.572  22.682  25.230  0.00  0.00    +0.000 C 
BRANCH  12  13
ATOM     13  C   UNL     1      28.398  23.462  23.861  0.00  0.00    +0.000 A 
ATOM     14  C   UNL     1      29.569  23.978  23.343  0.00  0.00    +0.000 A 
ATOM     15  C   UNL     1      29.457  24.674  22.134  0.00  0.00    +0.000 A 
ATOM     16  C   UNL     1      28.229  24.812  21.527  0.00  0.00    +0.000 A 
ATOM     17  C   UNL     1      27.083  24.270  22.097  0.00  0.00    +0.000 A 
ATOM     18  C   UNL     1      27.202  23.585  23.292  0.00  0.00    +0.000 A 
ENDBRANCH  12  13
BRANCH  12  20
ATOM     19  C   UNL     1      30.547  22.239  26.580  0.00  0.00    +0.000 C 
ATOM     20  C   UNL     1      30.098  23.197  25.528  0.00  0.00    +0.000 C 
ENDBRANCH  12  20
ENDBRANCH   1  12
TORSDOF 4
ENDMDL
MODEL 8
REMARK VINA RESULT:      -6.1      2.065      3.143
REMARK  Name = 
REMARK  4 active torsions:
REMARK  status: ('A' for Active; 'I' for Inactive)
REMARK    1  A    between atoms: C_2  and  C_3
REMARK    2  A    between atoms: C_3  and  C_4
REMARK    3  A    between atoms: C_3  and  C_15
REMARK    4  A    between atoms: N_6  and  C_7
REMARK                            x       y       z     vdW  Elec       q    Type
REMARK                         _______ _______ _______ _____ _____    ______ ____
ROOT
ATOM      1  C   UNL     1      19.880  10.435  37.667  0.00  0.00    +0.000 C 
ATOM      2  O   UNL     1      19.730  11.661  37.689  0.00  0.00    +0.000 OA
ATOM      3  N   UNL     1      19.063   9.684  36.843  0.00  0.00    +0.000 NA
ENDROOT
BRANCH   3   4
ATOM      4  C   UNL     1      18.030  10.160  35.982  0.00  0.00    +0.000 A 
ATOM      5  C   UNL     1      18.058   9.989  34.616  0.00  0.00    +0.000 A 
ATOM      6  C   UNL     1      17.094  10.424  33.739  0.00  0.00    +0.000 A 
ATOM      7  C   UNL     1      16.005  11.089  34.256  0.00  0.00    +0.000 A 
ATOM      8  C   UNL     1      14.948  11.573  33.345  0.00  0.00    +0.000 C 
ATOM      9  C   UNL     1      15.913  11.296  35.621  0.00  0.00    +0.000 A 
ATOM     10  O   UNL     1      14.786  11.976  36.073  0.00  0.00    +0.000 OA
ATOM     11  C   UNL     1      16.912  10.833  36.435  0.00  0.00    +0.000 A 
ENDBRANCH   3   4
BRANCH   1  12
ATOM     12  C   UNL     1      20.976   9.751  38.558  0.00  0.00    +0.000 C 
BRANCH  12  13
ATOM     13  C   UNL     1      22.262  10.164  37.729  0.00  0.00    +0.000 A 
ATOM     14  C   UNL     1      23.020  11.162  38.309  0.00  0.00    +0.000 A 
ATOM     15  C   UNL     1      24.166  11.555  37.608  0.00  0.00    +0.000 A 
ATOM     16  C   UNL     1      24.483  10.955  36.410  0.00  0.00    +0.000 A 
ATOM     17  C   UNL     1      23.680   9.955  35.874  0.00  0.00    +0.000 A 
ATOM     18  C   UNL     1      22.550   9.572  36.573  0.00  0.00    +0.000 A 
ENDBRANCH  12  13
BRANCH  12  20
ATOM     19  C   UNL     1      20.490  10.348  40.866  0.00  0.00    +0.000 C 
ATOM     20  C   UNL     1      21.069  10.975  39.641  0.00  0.00    +0.000 C 
ENDBRANCH  12  20
ENDBRANCH   1  12
TORSDOF 4
ENDMDL
MODEL 9
REMARK VINA RESULT:      -6.1     17.795     19.335
REMARK  Name = 
REMARK  4 active torsions:
REMARK  status: ('A' for Active; 'I' for Inactive)
REMARK    1  A    between atoms: C_2  and  C_3
REMARK    2  A    between atoms: C_3  and  C_4
REMARK    3  A    between atoms: C_3  and  C_15
REMARK    4  A    between atoms: N_6  and  C_7
REMARK                            x       y       z     vdW  Elec       q    Type
REMARK                         _______ _______ _______ _____ _____    ______ ____
ROOT
ATOM      1  C   UNL     1      26.808  25.032  25.600  0.00  0.00    +0.000 C 
ATOM      2  O   UNL     1      27.424  26.030  25.989  0.00  0.00    +0.000 OA
ATOM      3  N   UNL     1      25.857  24.475  26.435  0.00  0.00    +0.000 NA
ENDROOT
BRANCH   3   4
ATOM      4  C   UNL     1      25.480  24.922  27.736  0.00  0.00    +0.000 A 
ATOM      5  C   UNL     1      24.610  25.968  27.943  0.00  0.00    +0.000 A 
ATOM      6  C   UNL     1      24.210  26.441  29.170  0.00  0.00    +0.000 A 
ATOM      7  C   UNL     1      24.716  25.825  30.293  0.00  0.00    +0.000 A 
ATOM      8  C   UNL     1      24.310  26.305  31.630  0.00  0.00    +0.000 C 
ATOM      9  C   UNL     1      25.595  24.766  30.157  0.00  0.00    +0.000 A 
ATOM     10  O   UNL     1      26.065  24.193  31.334  0.00  0.00    +0.000 OA
ATOM     11  C   UNL     1      25.948  24.349  28.902  0.00  0.00    +0.000 A 
ENDBRANCH   3   4
BRANCH   1  12
ATOM     12  C   UNL     1      27.104  24.414  24.188  0.00  0.00    +0.000 C 
BRANCH  12  13
ATOM     13  C   UNL     1      28.526  23.782  24.489  0.00  0.00    +0.000 A 
ATOM     14  C   UNL     1      29.564  24.336  23.767  0.00  0.00    +0.000 A 
ATOM     15  C   UNL     1      30.837  23.805  24.004  0.00  0.00    +0.000 A 
ATOM     16  C   UNL     1      31.001  22.787  24.916  0.00  0.00    +0.000 A 
ATOM     17  C   UNL     1      29.917  22.268  25.614  0.00  0.00    +0.000 A 
ATOM     18  C   UNL     1      28.663  22.798  25.374  0.00  0.00    +0.000 A 
ENDBRANCH  12  13
BRANCH  12  20
ATOM     19  C   UNL     1      25.377  22.990  23.236  0.00  0.00    +0.000 C 
ATOM     20  C   UNL     1      26.248  23.042  24.447  0.00  0.00    +0.000 C 
ENDBRANCH  12  20
ENDBRANCH   1  12
TORSDOF 4
ENDMDL
MODEL 10
REMARK VINA RESULT:      -6.1     20.583     22.110
REMARK  Name = 
REMARK  4 active torsions:
REMARK  status: ('A' for Active; 'I' for Inactive)
REMARK    1  A    between atoms: C_2  and  C_3
REMARK    2  A    between atoms: C_3  and  C_4
REMARK    3  A    between atoms: C_3  and  C_15
REMARK    4  A    between atoms: N_6  and  C_7
REMARK                            x       y       z     vdW  Elec       q    Type
REMARK                         _______ _______ _______ _____ _____    ______ ____
ROOT
ATOM      1  C   UNL     1      17.378  -9.393  26.273  0.00  0.00    +0.000 C 
ATOM      2  O   UNL     1      17.368  -9.455  25.039  0.00  0.00    +0.000 OA
ATOM      3  N   UNL     1      16.176  -9.491  26.949  0.00  0.00    +0.000 NA
ENDROOT
BRANCH   3   4
ATOM      4  C   UNL     1      14.877  -9.663  26.384  0.00  0.00    +0.000 A 
ATOM      5  C   UNL     1      14.204 -10.863  26.411  0.00  0.00    +0.000 A 
ATOM      6  C   UNL     1      12.954 -11.087  25.885  0.00  0.00    +0.000 A 
ATOM      7  C   UNL     1      12.312 -10.031  25.278  0.00  0.00    +0.000 A 
ATOM      8  C   UNL     1      10.967 -10.232  24.701  0.00  0.00    +0.000 C 
ATOM      9  C   UNL     1      12.931  -8.796  25.216  0.00  0.00    +0.000 A 
ATOM     10  O   UNL     1      12.224  -7.775  24.588  0.00  0.00    +0.000 OA
ATOM     11  C   UNL     1      14.178  -8.647  25.763  0.00  0.00    +0.000 A 
ENDBRANCH   3   4
BRANCH   1  12
ATOM     12  C   UNL     1      18.728  -9.206  27.050  0.00  0.00    +0.000 C 
BRANCH  12  13
ATOM     13  C   UNL     1      18.998  -7.681  26.712  0.00  0.00    +0.000 A 
ATOM     14  C   UNL     1      20.117  -7.456  25.935  0.00  0.00    +0.000 A 
ATOM     15  C   UNL     1      20.391  -6.121  25.614  0.00  0.00    +0.000 A 
ATOM     16  C   UNL     1      19.563  -5.119  26.068  0.00  0.00    +0.000 A 
ATOM     17  C   UNL     1      18.450  -5.406  26.848  0.00  0.00    +0.000 A 
ATOM     18  C   UNL     1      18.187  -6.727  27.161  0.00  0.00    +0.000 A 
ENDBRANCH  12  13
BRANCH  12  20
ATOM     19  C   UNL     1      19.003  -9.562  29.441  0.00  0.00    +0.000 C 
ATOM     20  C   UNL     1      18.024  -8.937  28.504  0.00  0.00    +0.000 C 
ENDBRANCH  12  20
ENDBRANCH   1  12
TORSDOF 4
ENDMDL
