MODEL 1
REMARK VINA RESULT:      -8.5      0.000      0.000
REMARK  Name = 
REMARK  7 active torsions:
REMARK  status: ('A' for Active; 'I' for Inactive)
REMARK    1  A    between atoms: O_2  and  C_3
REMARK    2  A    between atoms: C_6  and  C_7
REMARK    3  A    between atoms: C_7  and  N_8
REMARK    4  A    between atoms: C_11  and  C_12
REMARK    5  A    between atoms: C_12  and  O_14
REMARK    6  A    between atoms: O_14  and  C_15
REMARK    7  A    between atoms: C_15  and  C_16
REMARK                            x       y       z     vdW  Elec       q    Type
REMARK                         _______ _______ _______ _____ _____    ______ ____
ROOT
ATOM      1  N   UNL     1      36.683  -1.002  16.856  0.00  0.00    +0.000 N 
ATOM      2  C   UNL     1      36.007   0.141  16.654  0.00  0.00    +0.000 A 
ATOM      3  N   UNL     1      34.740   0.484  17.224  0.00  0.00    +0.000 NA
ATOM      4  C   UNL     1      36.714   0.961  15.802  0.00  0.00    +0.000 A 
ATOM      5  C   UNL     1      37.856   0.249  15.501  0.00  0.00    +0.000 A 
ATOM      6  N   UNL     1      38.895   0.599  14.701  0.00  0.00    +0.000 NA
ATOM      7  C   UNL     1      39.924  -0.258  14.544  0.00  0.00    +0.000 A 
ATOM      8  C   UNL     1      41.014   0.042  13.738  0.00  0.00    +0.000 A 
ATOM      9  C   UNL     1      42.073  -0.824  13.567  0.00  0.00    +0.000 A 
ATOM     10  C   UNL     1      42.043  -2.048  14.231  0.00  0.00    +0.000 A 
ATOM     11  C   UNL     1      40.966  -2.352  15.030  0.00  0.00    +0.000 A 
ATOM     12  C   UNL     1      39.901  -1.473  15.197  0.00  0.00    +0.000 A 
ATOM     13  N   UNL     1      38.860  -1.820  15.997  0.00  0.00    +0.000 NA
ATOM     14  C   UNL     1      37.826  -0.962  16.157  0.00  0.00    +0.000 A 
ENDROOT
BRANCH   4  15
ATOM     15  C   UNL     1      36.348   2.288  15.319  0.00  0.00    +0.000 C 
ATOM     16  O   UNL     1      35.545   2.365  14.357  0.00  0.00    +0.000 OA
BRANCH  15  17
ATOM     17  O   UNL     1      36.832   3.451  15.862  0.00  0.00    +0.000 OA
BRANCH  17  18
ATOM     18  C   UNL     1      37.890   4.192  15.295  0.00  0.00    +0.000 C 
BRANCH  18  19
ATOM     19  C   UNL     1      38.734   4.828  16.350  0.00  0.00    +0.000 A 
ATOM     20  C   UNL     1      39.859   5.560  16.072  0.00  0.00    +0.000 A 
ATOM     21  C   UNL     1      40.643   6.148  17.038  0.00  0.00    +0.000 A 
ATOM     22  C   UNL     1      40.294   6.004  18.350  0.00  0.00    +0.000 A 
ATOM     23  C   UNL     1      39.164   5.271  18.663  0.00  0.00    +0.000 A 
ATOM     24  C   UNL     1      38.387   4.684  17.677  0.00  0.00    +0.000 A 
ENDBRANCH  18  19
ENDBRANCH  17  18
ENDBRANCH  15  17
ENDBRANCH   4  15
BRANCH   1  25
ATOM     25  C   UNL     1      36.298  -2.135  17.682  0.00  0.00    +0.000 C 
BRANCH  25  29
ATOM     26  C   UNL     1      34.738  -5.139  15.066  0.00  0.00    +0.000 A 
ATOM     27  C   UNL     1      34.047  -3.967  15.273  0.00  0.00    +0.000 A 
ATOM     28  C   UNL     1      34.558  -2.995  16.125  0.00  0.00    +0.000 A 
ATOM     29  C   UNL     1      35.746  -3.173  16.770  0.00  0.00    +0.000 A 
ATOM     30  C   UNL     1      36.439  -4.360  16.556  0.00  0.00    +0.000 A 
ATOM     31  C   UNL     1      35.928  -5.315  15.715  0.00  0.00    +0.000 A 
BRANCH  26  33
ATOM     32  C   UNL     1      33.795  -7.364  14.690  0.00  0.00    +0.000 C 
ATOM     33  O   UNL     1      34.231  -6.112  14.217  0.00  0.00    +0.000 OA
ENDBRANCH  26  33
ENDBRANCH  25  29
ENDBRANCH   1  25
TORSDOF 7
ENDMDL
MODEL 2
REMARK VINA RESULT:      -8.3      2.000      7.597
REMARK  Name = 
REMARK  7 active torsions:
REMARK  status: ('A' for Active; 'I' for Inactive)
REMARK    1  A    between atoms: O_2  and  C_3
REMARK    2  A    between atoms: C_6  and  C_7
REMARK    3  A    between atoms: C_7  and  N_8
REMARK    4  A    between atoms: C_11  and  C_12
REMARK    5  A    between atoms: C_12  and  O_14
REMARK    6  A    between atoms: O_14  and  C_15
REMARK    7  A    between atoms: C_15  and  C_16
REMARK                            x       y       z     vdW  Elec       q    Type
REMARK                         _______ _______ _______ _____ _____    ______ ____
ROOT
ATOM      1  N   UNL     1      37.517   2.805  15.200  0.00  0.00    +0.000 N 
ATOM      2  C   UNL     1      36.341   2.369  15.684  0.00  0.00    +0.000 A 
ATOM      3  N   UNL     1      35.199   3.178  15.978  0.00  0.00    +0.000 NA
ATOM      4  C   UNL     1      36.385   1.004  15.866  0.00  0.00    +0.000 A 
ATOM      5  C   UNL     1      37.653   0.640  15.463  0.00  0.00    +0.000 A 
ATOM      6  N   UNL     1      38.219  -0.593  15.437  0.00  0.00    +0.000 NA
ATOM      7  C   UNL     1      39.488  -0.727  15.001  0.00  0.00    +0.000 A 
ATOM      8  C   UNL     1      40.122  -1.961  14.951  0.00  0.00    +0.000 A 
ATOM      9  C   UNL     1      41.418  -2.114  14.508  0.00  0.00    +0.000 A 
ATOM     10  C   UNL     1      42.116  -0.982  14.094  0.00  0.00    +0.000 A 
ATOM     11  C   UNL     1      41.494   0.244  14.141  0.00  0.00    +0.000 A 
ATOM     12  C   UNL     1      40.185   0.390  14.590  0.00  0.00    +0.000 A 
ATOM     13  N   UNL     1      39.616   1.622  14.616  0.00  0.00    +0.000 NA
ATOM     14  C   UNL     1      38.343   1.760  15.054  0.00  0.00    +0.000 A 
ENDROOT
BRANCH   4  15
ATOM     15  C   UNL     1      35.333   0.130  16.370  0.00  0.00    +0.000 C 
ATOM     16  O   UNL     1      34.534   0.596  17.219  0.00  0.00    +0.000 OA
BRANCH  15  17
ATOM     17  O   UNL     1      35.170  -1.171  15.964  0.00  0.00    +0.000 OA
BRANCH  17  18
ATOM     18  C   UNL     1      35.017  -2.251  16.858  0.00  0.00    +0.000 C 
BRANCH  18  19
ATOM     19  C   UNL     1      36.338  -2.726  17.367  0.00  0.00    +0.000 A 
ATOM     20  C   UNL     1      36.972  -2.166  18.446  0.00  0.00    +0.000 A 
ATOM     21  C   UNL     1      38.190  -2.597  18.921  0.00  0.00    +0.000 A 
ATOM     22  C   UNL     1      38.813  -3.638  18.295  0.00  0.00    +0.000 A 
ATOM     23  C   UNL     1      38.199  -4.223  17.204  0.00  0.00    +0.000 A 
ATOM     24  C   UNL     1      36.972  -3.776  16.738  0.00  0.00    +0.000 A 
ENDBRANCH  18  19
ENDBRANCH  17  18
ENDBRANCH  15  17
ENDBRANCH   4  15
BRANCH   1  25
ATOM     25  C   UNL     1      37.897   4.168  14.867  0.00  0.00    +0.000 C 
BRANCH  25  29
ATOM     26  C   UNL     1      40.000   5.770  18.230  0.00  0.00    +0.000 A 
ATOM     27  C   UNL     1      38.864   5.014  18.413  0.00  0.00    +0.000 A 
ATOM     28  C   UNL     1      38.184   4.497  17.317  0.00  0.00    +0.000 A 
ATOM     29  C   UNL     1      38.620   4.720  16.044  0.00  0.00    +0.000 A 
ATOM     30  C   UNL     1      39.768   5.485  15.867  0.00  0.00    +0.000 A 
ATOM     31  C   UNL     1      40.433   5.992  16.953  0.00  0.00    +0.000 A 
BRANCH  26  33
ATOM     32  C   UNL     1      40.829   7.674  19.522  0.00  0.00    +0.000 C 
ATOM     33  O   UNL     1      40.680   6.288  19.322  0.00  0.00    +0.000 OA
ENDBRANCH  26  33
ENDBRANCH  25  29
ENDBRANCH   1  25
TORSDOF 7
ENDMDL
MODEL 3
REMARK VINA RESULT:      -8.3      2.703      5.007
REMARK  Name = 
REMARK  7 active torsions:
REMARK  status: ('A' for Active; 'I' for Inactive)
REMARK    1  A    between atoms: O_2  and  C_3
REMARK    2  A    between atoms: C_6  and  C_7
REMARK    3  A    between atoms: C_7  and  N_8
REMARK    4  A    between atoms: C_11  and  C_12
REMARK    5  A    between atoms: C_12  and  O_14
REMARK    6  A    between atoms: O_14  and  C_15
REMARK    7  A    between atoms: C_15  and  C_16
REMARK                            x       y       z     vdW  Elec       q    Type
REMARK                         _______ _______ _______ _____ _____    ______ ____
ROOT
ATOM      1  N   UNL     1      37.345  -0.712  14.478  0.00  0.00    +0.000 N 
ATOM      2  C   UNL     1      36.701   0.462  14.589  0.00  0.00    +0.000 A 
ATOM      3  N   UNL     1      36.329   1.324  13.510  0.00  0.00    +0.000 NA
ATOM      4  C   UNL     1      36.442   0.732  15.915  0.00  0.00    +0.000 A 
ATOM      5  C   UNL     1      36.965  -0.345  16.599  0.00  0.00    +0.000 A 
ATOM      6  N   UNL     1      36.979  -0.584  17.935  0.00  0.00    +0.000 NA
ATOM      7  C   UNL     1      37.549  -1.715  18.397  0.00  0.00    +0.000 A 
ATOM      8  C   UNL     1      37.595  -2.015  19.752  0.00  0.00    +0.000 A 
ATOM      9  C   UNL     1      38.175  -3.166  20.239  0.00  0.00    +0.000 A 
ATOM     10  C   UNL     1      38.736  -4.062  19.332  0.00  0.00    +0.000 A 
ATOM     11  C   UNL     1      38.694  -3.771  17.988  0.00  0.00    +0.000 A 
ATOM     12  C   UNL     1      38.107  -2.606  17.504  0.00  0.00    +0.000 A 
ATOM     13  N   UNL     1      38.092  -2.365  16.168  0.00  0.00    +0.000 NA
ATOM     14  C   UNL     1      37.520  -1.231  15.702  0.00  0.00    +0.000 A 
ENDROOT
BRANCH   4  15
ATOM     15  C   UNL     1      35.766   1.894  16.481  0.00  0.00    +0.000 C 
ATOM     16  O   UNL     1      34.524   1.829  16.653  0.00  0.00    +0.000 OA
BRANCH  15  17
ATOM     17  O   UNL     1      36.417   3.050  16.834  0.00  0.00    +0.000 OA
BRANCH  17  18
ATOM     18  C   UNL     1      37.248   3.775  15.955  0.00  0.00    +0.000 C 
BRANCH  18  19
ATOM     19  C   UNL     1      38.282   4.550  16.702  0.00  0.00    +0.000 A 
ATOM     20  C   UNL     1      38.283   4.682  18.066  0.00  0.00    +0.000 A 
ATOM     21  C   UNL     1      39.232   5.395  18.762  0.00  0.00    +0.000 A 
ATOM     22  C   UNL     1      40.235   6.011  18.069  0.00  0.00    +0.000 A 
ATOM     23  C   UNL     1      40.261   5.897  16.692  0.00  0.00    +0.000 A 
ATOM     24  C   UNL     1      39.297   5.175  16.007  0.00  0.00    +0.000 A 
ENDBRANCH  18  19
ENDBRANCH  17  18
ENDBRANCH  15  17
ENDBRANCH   4  15
BRANCH   1  25
ATOM     25  C   UNL     1      37.804  -1.370  13.265  0.00  0.00    +0.000 C 
BRANCH  25  29
ATOM     26  C   UNL     1      42.050  -1.792  13.568  0.00  0.00    +0.000 A 
ATOM     27  C   UNL     1      41.448  -0.585  13.843  0.00  0.00    +0.000 A 
ATOM     28  C   UNL     1      40.068  -0.453  13.742  0.00  0.00    +0.000 A 
ATOM     29  C   UNL     1      39.281  -1.505  13.374  0.00  0.00    +0.000 A 
ATOM     30  C   UNL     1      39.897  -2.721  13.097  0.00  0.00    +0.000 A 
ATOM     31  C   UNL     1      41.259  -2.843  13.198  0.00  0.00    +0.000 A 
BRANCH  26  33
ATOM     32  C   UNL     1      44.159  -1.366  14.730  0.00  0.00    +0.000 C 
ATOM     33  O   UNL     1      43.427  -1.927  13.667  0.00  0.00    +0.000 OA
ENDBRANCH  26  33
ENDBRANCH  25  29
ENDBRANCH   1  25
TORSDOF 7
ENDMDL
MODEL 4
REMARK VINA RESULT:      -8.3      3.055      6.039
REMARK  Name = 
REMARK  7 active torsions:
REMARK  status: ('A' for Active; 'I' for Inactive)
REMARK    1  A    between atoms: O_2  and  C_3
REMARK    2  A    between atoms: C_6  and  C_7
REMARK    3  A    between atoms: C_7  and  N_8
REMARK    4  A    between atoms: C_11  and  C_12
REMARK    5  A    between atoms: C_12  and  O_14
REMARK    6  A    between atoms: O_14  and  C_15
REMARK    7  A    between atoms: C_15  and  C_16
REMARK                            x       y       z     vdW  Elec       q    Type
REMARK                         _______ _______ _______ _____ _____    ______ ____
ROOT
ATOM      1  N   UNL     1      36.589   2.182  15.292  0.00  0.00    +0.000 N 
ATOM      2  C   UNL     1      36.930   1.951  14.013  0.00  0.00    +0.000 A 
ATOM      3  N   UNL     1      36.268   1.057  13.112  0.00  0.00    +0.000 NA
ATOM      4  C   UNL     1      38.030   2.709  13.675  0.00  0.00    +0.000 A 
ATOM      5  C   UNL     1      38.335   3.411  14.822  0.00  0.00    +0.000 A 
ATOM      6  N   UNL     1      39.333   4.305  15.036  0.00  0.00    +0.000 NA
ATOM      7  C   UNL     1      39.451   4.883  16.249  0.00  0.00    +0.000 A 
ATOM      8  C   UNL     1      40.451   5.805  16.530  0.00  0.00    +0.000 A 
ATOM      9  C   UNL     1      40.586   6.403  17.764  0.00  0.00    +0.000 A 
ATOM     10  C   UNL     1      39.680   6.067  18.767  0.00  0.00    +0.000 A 
ATOM     11  C   UNL     1      38.687   5.154  18.496  0.00  0.00    +0.000 A 
ATOM     12  C   UNL     1      38.558   4.554  17.247  0.00  0.00    +0.000 A 
ATOM     13  N   UNL     1      37.560   3.659  17.030  0.00  0.00    +0.000 NA
ATOM     14  C   UNL     1      37.439   3.077  15.814  0.00  0.00    +0.000 A 
ENDROOT
BRANCH   4  15
ATOM     15  C   UNL     1      38.725   2.764  12.394  0.00  0.00    +0.000 C 
ATOM     16  O   UNL     1      38.523   3.759  11.655  0.00  0.00    +0.000 OA
BRANCH  15  17
ATOM     17  O   UNL     1      39.587   1.789  11.958  0.00  0.00    +0.000 OA
BRANCH  17  18
ATOM     18  C   UNL     1      40.577   1.204  12.775  0.00  0.00    +0.000 C 
BRANCH  18  19
ATOM     19  C   UNL     1      40.139  -0.129  13.287  0.00  0.00    +0.000 A 
ATOM     20  C   UNL     1      39.237  -0.926  12.632  0.00  0.00    +0.000 A 
ATOM     21  C   UNL     1      38.828  -2.155  13.097  0.00  0.00    +0.000 A 
ATOM     22  C   UNL     1      39.341  -2.620  14.274  0.00  0.00    +0.000 A 
ATOM     23  C   UNL     1      40.253  -1.839  14.959  0.00  0.00    +0.000 A 
ATOM     24  C   UNL     1      40.653  -0.603  14.476  0.00  0.00    +0.000 A 
ENDBRANCH  18  19
ENDBRANCH  17  18
ENDBRANCH  15  17
ENDBRANCH   4  15
BRANCH   1  25
ATOM     25  C   UNL     1      35.495   1.593  16.047  0.00  0.00    +0.000 C 
BRANCH  25  29
ATOM     26  C   UNL     1      37.162  -1.449  18.549  0.00  0.00    +0.000 A 
ATOM     27  C   UNL     1      37.326  -1.502  17.182  0.00  0.00    +0.000 A 
ATOM     28  C   UNL     1      36.781  -0.511  16.374  0.00  0.00    +0.000 A 
ATOM     29  C   UNL     1      36.079   0.530  16.906  0.00  0.00    +0.000 A 
ATOM     30  C   UNL     1      35.918   0.577  18.288  0.00  0.00    +0.000 A 
ATOM     31  C   UNL     1      36.457  -0.405  19.078  0.00  0.00    +0.000 A 
BRANCH  26  33
ATOM     32  C   UNL     1      38.647  -3.364  18.877  0.00  0.00    +0.000 C 
ATOM     33  O   UNL     1      37.704  -2.437  19.358  0.00  0.00    +0.000 OA
ENDBRANCH  26  33
ENDBRANCH  25  29
ENDBRANCH   1  25
TORSDOF 7
ENDMDL
MODEL 5
REMARK VINA RESULT:      -8.2      2.706      5.952
REMARK  Name = 
REMARK  7 active torsions:
REMARK  status: ('A' for Active; 'I' for Inactive)
REMARK    1  A    between atoms: O_2  and  C_3
REMARK    2  A    between atoms: C_6  and  C_7
REMARK    3  A    between atoms: C_7  and  N_8
REMARK    4  A    between atoms: C_11  and  C_12
REMARK    5  A    between atoms: C_12  and  O_14
REMARK    6  A    between atoms: O_14  and  C_15
REMARK    7  A    between atoms: C_15  and  C_16
REMARK                            x       y       z     vdW  Elec       q    Type
REMARK                         _______ _______ _______ _____ _____    ______ ____
ROOT
ATOM      1  N   UNL     1      38.856   1.201  13.821  0.00  0.00    +0.000 N 
ATOM      2  C   UNL     1      39.024   2.473  14.219  0.00  0.00    +0.000 A 
ATOM      3  N   UNL     1      39.957   3.411  13.675  0.00  0.00    +0.000 NA
ATOM      4  C   UNL     1      38.153   2.762  15.248  0.00  0.00    +0.000 A 
ATOM      5  C   UNL     1      37.451   1.592  15.448  0.00  0.00    +0.000 A 
ATOM      6  N   UNL     1      36.468   1.330  16.346  0.00  0.00    +0.000 NA
ATOM      7  C   UNL     1      35.909   0.103  16.372  0.00  0.00    +0.000 A 
ATOM      8  C   UNL     1      34.900  -0.226  17.267  0.00  0.00    +0.000 A 
ATOM      9  C   UNL     1      34.319  -1.476  17.307  0.00  0.00    +0.000 A 
ATOM     10  C   UNL     1      34.766  -2.443  16.410  0.00  0.00    +0.000 A 
ATOM     11  C   UNL     1      35.766  -2.124  15.521  0.00  0.00    +0.000 A 
ATOM     12  C   UNL     1      36.347  -0.860  15.488  0.00  0.00    +0.000 A 
ATOM     13  N   UNL     1      37.330  -0.595  14.590  0.00  0.00    +0.000 NA
ATOM     14  C   UNL     1      37.894   0.635  14.562  0.00  0.00    +0.000 A 
ENDROOT
BRANCH   4  15
ATOM     15  C   UNL     1      38.001   4.020  15.970  0.00  0.00    +0.000 C 
ATOM     16  O   UNL     1      37.349   4.941  15.420  0.00  0.00    +0.000 OA
BRANCH  15  17
ATOM     17  O   UNL     1      38.530   4.246  17.216  0.00  0.00    +0.000 OA
BRANCH  17  18
ATOM     18  C   UNL     1      38.495   5.501  17.859  0.00  0.00    +0.000 C 
BRANCH  18  19
ATOM     19  C   UNL     1      39.860   5.930  18.285  0.00  0.00    +0.000 A 
ATOM     20  C   UNL     1      40.889   6.142  17.404  0.00  0.00    +0.000 A 
ATOM     21  C   UNL     1      42.150   6.537  17.787  0.00  0.00    +0.000 A 
ATOM     22  C   UNL     1      42.407   6.734  19.114  0.00  0.00    +0.000 A 
ATOM     23  C   UNL     1      41.389   6.528  20.027  0.00  0.00    +0.000 A 
ATOM     24  C   UNL     1      40.125   6.129  19.623  0.00  0.00    +0.000 A 
ENDBRANCH  18  19
ENDBRANCH  17  18
ENDBRANCH  15  17
ENDBRANCH   4  15
BRANCH   1  25
ATOM     25  C   UNL     1      39.567   0.492  12.769  0.00  0.00    +0.000 C 
BRANCH  25  29
ATOM     26  C   UNL     1      43.186  -1.005  14.490  0.00  0.00    +0.000 A 
ATOM     27  C   UNL     1      43.176   0.201  13.825  0.00  0.00    +0.000 A 
ATOM     28  C   UNL     1      41.998   0.682  13.267  0.00  0.00    +0.000 A 
ATOM     29  C   UNL     1      40.831  -0.019  13.363  0.00  0.00    +0.000 A 
ATOM     30  C   UNL     1      40.849  -1.236  14.036  0.00  0.00    +0.000 A 
ATOM     31  C   UNL     1      42.016  -1.705  14.583  0.00  0.00    +0.000 A 
BRANCH  26  33
ATOM     32  C   UNL     1      45.188  -0.689  15.858  0.00  0.00    +0.000 C 
ATOM     33  O   UNL     1      44.361  -1.488  15.047  0.00  0.00    +0.000 OA
ENDBRANCH  26  33
ENDBRANCH  25  29
ENDBRANCH   1  25
TORSDOF 7
ENDMDL
MODEL 6
REMARK VINA RESULT:      -8.2      3.087      8.622
REMARK  Name = 
REMARK  7 active torsions:
REMARK  status: ('A' for Active; 'I' for Inactive)
REMARK    1  A    between atoms: O_2  and  C_3
REMARK    2  A    between atoms: C_6  and  C_7
REMARK    3  A    between atoms: C_7  and  N_8
REMARK    4  A    between atoms: C_11  and  C_12
REMARK    5  A    between atoms: C_12  and  O_14
REMARK    6  A    between atoms: O_14  and  C_15
REMARK    7  A    between atoms: C_15  and  C_16
REMARK                            x       y       z     vdW  Elec       q    Type
REMARK                         _______ _______ _______ _____ _____    ______ ____
ROOT
ATOM      1  N   UNL     1      38.932   4.155  14.883  0.00  0.00    +0.000 N 
ATOM      2  C   UNL     1      39.946   3.678  14.142  0.00  0.00    +0.000 A 
ATOM      3  N   UNL     1      41.008   4.448  13.571  0.00  0.00    +0.000 NA
ATOM      4  C   UNL     1      39.824   2.312  14.003  0.00  0.00    +0.000 A 
ATOM      5  C   UNL     1      38.679   1.992  14.701  0.00  0.00    +0.000 A 
ATOM      6  N   UNL     1      38.102   0.777  14.884  0.00  0.00    +0.000 NA
ATOM      7  C   UNL     1      36.971   0.688  15.612  0.00  0.00    +0.000 A 
ATOM      8  C   UNL     1      36.333  -0.526  15.834  0.00  0.00    +0.000 A 
ATOM      9  C   UNL     1      35.176  -0.634  16.575  0.00  0.00    +0.000 A 
ATOM     10  C   UNL     1      34.627   0.524  17.120  0.00  0.00    +0.000 A 
ATOM     11  C   UNL     1      35.253   1.730  16.904  0.00  0.00    +0.000 A 
ATOM     12  C   UNL     1      36.421   1.830  16.155  0.00  0.00    +0.000 A 
ATOM     13  N   UNL     1      37.000   3.044  15.970  0.00  0.00    +0.000 NA
ATOM     14  C   UNL     1      38.136   3.138  15.240  0.00  0.00    +0.000 A 
ENDROOT
BRANCH   4  15
ATOM     15  C   UNL     1      40.703   1.400  13.280  0.00  0.00    +0.000 C 
ATOM     16  O   UNL     1      40.774   1.514  12.032  0.00  0.00    +0.000 OA
BRANCH  15  17
ATOM     17  O   UNL     1      41.454   0.429  13.893  0.00  0.00    +0.000 OA
BRANCH  17  18
ATOM     18  C   UNL     1      41.536  -0.900  13.428  0.00  0.00    +0.000 C 
BRANCH  18  19
ATOM     19  C   UNL     1      40.391  -1.720  13.924  0.00  0.00    +0.000 A 
ATOM     20  C   UNL     1      40.268  -2.128  15.226  0.00  0.00    +0.000 A 
ATOM     21  C   UNL     1      39.217  -2.885  15.691  0.00  0.00    +0.000 A 
ATOM     22  C   UNL     1      38.233  -3.256  14.820  0.00  0.00    +0.000 A 
ATOM     23  C   UNL     1      38.329  -2.860  13.499  0.00  0.00    +0.000 A 
ATOM     24  C   UNL     1      39.396  -2.099  13.047  0.00  0.00    +0.000 A 
ENDBRANCH  18  19
ENDBRANCH  17  18
ENDBRANCH  15  17
ENDBRANCH   4  15
BRANCH   1  25
ATOM     25  C   UNL     1      38.678   5.534  15.270  0.00  0.00    +0.000 C 
BRANCH  25  29
ATOM     26  C   UNL     1      40.528   6.135  19.080  0.00  0.00    +0.000 A 
ATOM     27  C   UNL     1      41.241   6.334  17.919  0.00  0.00    +0.000 A 
ATOM     28  C   UNL     1      40.635   6.137  16.684  0.00  0.00    +0.000 A 
ATOM     29  C   UNL     1      39.331   5.745  16.589  0.00  0.00    +0.000 A 
ATOM     30  C   UNL     1      38.618   5.545  17.766  0.00  0.00    +0.000 A 
ATOM     31  C   UNL     1      39.222   5.742  18.981  0.00  0.00    +0.000 A 
BRANCH  26  33
ATOM     32  C   UNL     1      42.522   6.484  20.452  0.00  0.00    +0.000 C 
ATOM     33  O   UNL     1      41.129   6.330  20.315  0.00  0.00    +0.000 OA
ENDBRANCH  26  33
ENDBRANCH  25  29
ENDBRANCH   1  25
TORSDOF 7
ENDMDL
MODEL 7
REMARK VINA RESULT:      -8.2      2.563      6.776
REMARK  Name = 
REMARK  7 active torsions:
REMARK  status: ('A' for Active; 'I' for Inactive)
REMARK    1  A    between atoms: O_2  and  C_3
REMARK    2  A    between atoms: C_6  and  C_7
REMARK    3  A    between atoms: C_7  and  N_8
REMARK    4  A    between atoms: C_11  and  C_12
REMARK    5  A    between atoms: C_12  and  O_14
REMARK    6  A    between atoms: O_14  and  C_15
REMARK    7  A    between atoms: C_15  and  C_16
REMARK                            x       y       z     vdW  Elec       q    Type
REMARK                         _______ _______ _______ _____ _____    ______ ____
ROOT
ATOM      1  N   UNL     1      37.985   2.556  14.183  0.00  0.00    +0.000 N 
ATOM      2  C   UNL     1      36.909   1.869  14.602  0.00  0.00    +0.000 A 
ATOM      3  N   UNL     1      36.184   0.895  13.845  0.00  0.00    +0.000 NA
ATOM      4  C   UNL     1      36.589   2.237  15.891  0.00  0.00    +0.000 A 
ATOM      5  C   UNL     1      37.533   3.185  16.226  0.00  0.00    +0.000 A 
ATOM      6  N   UNL     1      37.675   3.874  17.387  0.00  0.00    +0.000 NA
ATOM      7  C   UNL     1      38.680   4.765  17.505  0.00  0.00    +0.000 A 
ATOM      8  C   UNL     1      38.877   5.501  18.667  0.00  0.00    +0.000 A 
ATOM      9  C   UNL     1      39.899   6.416  18.803  0.00  0.00    +0.000 A 
ATOM     10  C   UNL     1      40.766   6.607  17.729  0.00  0.00    +0.000 A 
ATOM     11  C   UNL     1      40.575   5.882  16.576  0.00  0.00    +0.000 A 
ATOM     12  C   UNL     1      39.542   4.960  16.446  0.00  0.00    +0.000 A 
ATOM     13  N   UNL     1      39.397   4.270  15.286  0.00  0.00    +0.000 NA
ATOM     14  C   UNL     1      38.389   3.375  15.164  0.00  0.00    +0.000 A 
ENDROOT
BRANCH   4  15
ATOM     15  C   UNL     1      35.499   1.741  16.723  0.00  0.00    +0.000 C 
ATOM     16  O   UNL     1      34.343   2.182  16.506  0.00  0.00    +0.000 OA
BRANCH  15  17
ATOM     17  O   UNL     1      35.671   0.820  17.726  0.00  0.00    +0.000 OA
BRANCH  17  18
ATOM     18  C   UNL     1      35.302  -0.536  17.608  0.00  0.00    +0.000 C 
BRANCH  18  19
ATOM     19  C   UNL     1      36.180  -1.255  16.637  0.00  0.00    +0.000 A 
ATOM     20  C   UNL     1      37.547  -1.153  16.643  0.00  0.00    +0.000 A 
ATOM     21  C   UNL     1      38.363  -1.811  15.752  0.00  0.00    +0.000 A 
ATOM     22  C   UNL     1      37.795  -2.614  14.804  0.00  0.00    +0.000 A 
ATOM     23  C   UNL     1      36.419  -2.736  14.772  0.00  0.00    +0.000 A 
ATOM     24  C   UNL     1      35.612  -2.065  15.677  0.00  0.00    +0.000 A 
ENDBRANCH  18  19
ENDBRANCH  17  18
ENDBRANCH  15  17
ENDBRANCH   4  15
BRANCH   1  25
ATOM     25  C   UNL     1      38.652   2.476  12.893  0.00  0.00    +0.000 C 
BRANCH  25  29
ATOM     26  C   UNL     1      40.833  -1.204  12.847  0.00  0.00    +0.000 A 
ATOM     27  C   UNL     1      39.829  -0.976  11.933  0.00  0.00    +0.000 A 
ATOM     28  C   UNL     1      39.122   0.221  11.953  0.00  0.00    +0.000 A 
ATOM     29  C   UNL     1      39.403   1.193  12.868  0.00  0.00    +0.000 A 
ATOM     30  C   UNL     1      40.419   0.956  13.789  0.00  0.00    +0.000 A 
ATOM     31  C   UNL     1      41.110  -0.228  13.763  0.00  0.00    +0.000 A 
BRANCH  26  33
ATOM     32  C   UNL     1      42.946  -2.435  12.855  0.00  0.00    +0.000 C 
ATOM     33  O   UNL     1      41.539  -2.397  12.830  0.00  0.00    +0.000 OA
ENDBRANCH  26  33
ENDBRANCH  25  29
ENDBRANCH   1  25
TORSDOF 7
ENDMDL
MODEL 8
REMARK VINA RESULT:      -7.9      3.745      6.614
REMARK  Name = 
REMARK  7 active torsions:
REMARK  status: ('A' for Active; 'I' for Inactive)
REMARK    1  A    between atoms: O_2  and  C_3
REMARK    2  A    between atoms: C_6  and  C_7
REMARK    3  A    between atoms: C_7  and  N_8
REMARK    4  A    between atoms: C_11  and  C_12
REMARK    5  A    between atoms: C_12  and  O_14
REMARK    6  A    between atoms: O_14  and  C_15
REMARK    7  A    between atoms: C_15  and  C_16
REMARK                            x       y       z     vdW  Elec       q    Type
REMARK                         _______ _______ _______ _____ _____    ______ ____
ROOT
ATOM      1  N   UNL     1      37.183   3.326  14.321  0.00  0.00    +0.000 N 
ATOM      2  C   UNL     1      38.453   3.450  14.741  0.00  0.00    +0.000 A 
ATOM      3  N   UNL     1      39.397   2.386  14.896  0.00  0.00    +0.000 NA
ATOM      4  C   UNL     1      38.733   4.772  15.009  0.00  0.00    +0.000 A 
ATOM      5  C   UNL     1      37.559   5.440  14.727  0.00  0.00    +0.000 A 
ATOM      6  N   UNL     1      37.289   6.766  14.821  0.00  0.00    +0.000 NA
ATOM      7  C   UNL     1      36.060   7.213  14.492  0.00  0.00    +0.000 A 
ATOM      8  C   UNL     1      35.721   8.558  14.567  0.00  0.00    +0.000 A 
ATOM      9  C   UNL     1      34.470   9.029  14.235  0.00  0.00    +0.000 A 
ATOM     10  C   UNL     1      33.509   8.117  13.806  0.00  0.00    +0.000 A 
ATOM     11  C   UNL     1      33.837   6.783  13.729  0.00  0.00    +0.000 A 
ATOM     12  C   UNL     1      35.103   6.315  14.067  0.00  0.00    +0.000 A 
ATOM     13  N   UNL     1      35.377   4.988  13.974  0.00  0.00    +0.000 NA
ATOM     14  C   UNL     1      36.609   4.537  14.304  0.00  0.00    +0.000 A 
ENDROOT
BRANCH   4  15
ATOM     15  C   UNL     1      39.985   5.348  15.484  0.00  0.00    +0.000 C 
ATOM     16  O   UNL     1      40.876   5.605  14.636  0.00  0.00    +0.000 OA
BRANCH  15  17
ATOM     17  O   UNL     1      40.239   5.623  16.804  0.00  0.00    +0.000 OA
BRANCH  17  18
ATOM     18  C   UNL     1      39.383   5.238  17.857  0.00  0.00    +0.000 C 
BRANCH  18  19
ATOM     19  C   UNL     1      38.964   6.416  18.674  0.00  0.00    +0.000 A 
ATOM     20  C   UNL     1      37.942   7.254  18.312  0.00  0.00    +0.000 A 
ATOM     21  C   UNL     1      37.550   8.343  19.058  0.00  0.00    +0.000 A 
ATOM     22  C   UNL     1      38.205   8.614  20.226  0.00  0.00    +0.000 A 
ATOM     23  C   UNL     1      39.240   7.786  20.617  0.00  0.00    +0.000 A 
ATOM     24  C   UNL     1      39.622   6.695  19.853  0.00  0.00    +0.000 A 
ENDBRANCH  18  19
ENDBRANCH  17  18
ENDBRANCH  15  17
ENDBRANCH   4  15
BRANCH   1  25
ATOM     25  C   UNL     1      36.482   2.111  13.935  0.00  0.00    +0.000 C 
BRANCH  25  29
ATOM     26  C   UNL     1      35.970  -0.240  17.472  0.00  0.00    +0.000 A 
ATOM     27  C   UNL     1      35.279   0.941  17.313  0.00  0.00    +0.000 A 
ATOM     28  C   UNL     1      35.451   1.701  16.162  0.00  0.00    +0.000 A 
ATOM     29  C   UNL     1      36.296   1.303  15.169  0.00  0.00    +0.000 A 
ATOM     30  C   UNL     1      36.991   0.108  15.337  0.00  0.00    +0.000 A 
ATOM     31  C   UNL     1      36.817  -0.636  16.475  0.00  0.00    +0.000 A 
BRANCH  26  33
ATOM     32  C   UNL     1      36.882  -1.643  19.255  0.00  0.00    +0.000 C 
ATOM     33  O   UNL     1      35.803  -1.001  18.619  0.00  0.00    +0.000 OA
ENDBRANCH  26  33
ENDBRANCH  25  29
ENDBRANCH   1  25
TORSDOF 7
ENDMDL
MODEL 9
REMARK VINA RESULT:      -7.7      4.830     10.071
REMARK  Name = 
REMARK  7 active torsions:
REMARK  status: ('A' for Active; 'I' for Inactive)
REMARK    1  A    between atoms: O_2  and  C_3
REMARK    2  A    between atoms: C_6  and  C_7
REMARK    3  A    between atoms: C_7  and  N_8
REMARK    4  A    between atoms: C_11  and  C_12
REMARK    5  A    between atoms: C_12  and  O_14
REMARK    6  A    between atoms: O_14  and  C_15
REMARK    7  A    between atoms: C_15  and  C_16
REMARK                            x       y       z     vdW  Elec       q    Type
REMARK                         _______ _______ _______ _____ _____    ______ ____
ROOT
ATOM      1  N   UNL     1      36.703   8.224  14.853  0.00  0.00    +0.000 N 
ATOM      2  C   UNL     1      36.514   7.182  14.027  0.00  0.00    +0.000 A 
ATOM      3  N   UNL     1      35.795   7.206  12.790  0.00  0.00    +0.000 NA
ATOM      4  C   UNL     1      37.120   6.057  14.543  0.00  0.00    +0.000 A 
ATOM      5  C   UNL     1      37.686   6.479  15.728  0.00  0.00    +0.000 A 
ATOM      6  N   UNL     1      38.402   5.766  16.633  0.00  0.00    +0.000 NA
ATOM      7  C   UNL     1      38.869   6.383  17.737  0.00  0.00    +0.000 A 
ATOM      8  C   UNL     1      39.608   5.709  18.700  0.00  0.00    +0.000 A 
ATOM      9  C   UNL     1      40.091   6.325  19.834  0.00  0.00    +0.000 A 
ATOM     10  C   UNL     1      39.825   7.680  20.018  0.00  0.00    +0.000 A 
ATOM     11  C   UNL     1      39.093   8.354  19.068  0.00  0.00    +0.000 A 
ATOM     12  C   UNL     1      38.609   7.725  17.926  0.00  0.00    +0.000 A 
ATOM     13  N   UNL     1      37.891   8.436  17.019  0.00  0.00    +0.000 NA
ATOM     14  C   UNL     1      37.421   7.819  15.909  0.00  0.00    +0.000 A 
ENDROOT
BRANCH   4  15
ATOM     15  C   UNL     1      37.160   4.715  13.973  0.00  0.00    +0.000 C 
ATOM     16  O   UNL     1      38.267   4.277  13.573  0.00  0.00    +0.000 OA
BRANCH  15  17
ATOM     17  O   UNL     1      36.055   3.911  13.853  0.00  0.00    +0.000 OA
BRANCH  17  18
ATOM     18  C   UNL     1      35.201   3.597  14.931  0.00  0.00    +0.000 C 
BRANCH  18  19
ATOM     19  C   UNL     1      35.373   2.179  15.366  0.00  0.00    +0.000 A 
ATOM     20  C   UNL     1      34.783   1.661  16.489  0.00  0.00    +0.000 A 
ATOM     21  C   UNL     1      34.937   0.356  16.897  0.00  0.00    +0.000 A 
ATOM     22  C   UNL     1      35.717  -0.482  16.152  0.00  0.00    +0.000 A 
ATOM     23  C   UNL     1      36.326   0.012  15.014  0.00  0.00    +0.000 A 
ATOM     24  C   UNL     1      36.161   1.330  14.618  0.00  0.00    +0.000 A 
ENDBRANCH  18  19
ENDBRANCH  17  18
ENDBRANCH  15  17
ENDBRANCH   4  15
BRANCH   1  25
ATOM     25  C   UNL     1      36.234   9.591  14.691  0.00  0.00    +0.000 C 
BRANCH  25  29
ATOM     26  C   UNL     1      33.024  10.137  17.465  0.00  0.00    +0.000 A 
ATOM     27  C   UNL     1      34.102  10.993  17.469  0.00  0.00    +0.000 A 
ATOM     28  C   UNL     1      35.143  10.810  16.566  0.00  0.00    +0.000 A 
ATOM     29  C   UNL     1      35.124   9.790  15.660  0.00  0.00    +0.000 A 
ATOM     30  C   UNL     1      34.031   8.929  15.662  0.00  0.00    +0.000 A 
ATOM     31  C   UNL     1      33.008   9.115  16.557  0.00  0.00    +0.000 A 
BRANCH  26  33
ATOM     32  C   UNL     1      31.837   9.508  19.509  0.00  0.00    +0.000 C 
ATOM     33  O   UNL     1      31.984  10.315  18.365  0.00  0.00    +0.000 OA
ENDBRANCH  26  33
ENDBRANCH  25  29
ENDBRANCH   1  25
TORSDOF 7
ENDMDL
MODEL 10
REMARK VINA RESULT:      -7.6      2.393      5.161
REMARK  Name = 
REMARK  7 active torsions:
REMARK  status: ('A' for Active; 'I' for Inactive)
REMARK    1  A    between atoms: O_2  and  C_3
REMARK    2  A    between atoms: C_6  and  C_7
REMARK    3  A    between atoms: C_7  and  N_8
REMARK    4  A    between atoms: C_11  and  C_12
REMARK    5  A    between atoms: C_12  and  O_14
REMARK    6  A    between atoms: O_14  and  C_15
REMARK    7  A    between atoms: C_15  and  C_16
REMARK                            x       y       z     vdW  Elec       q    Type
REMARK                         _______ _______ _______ _____ _____    ______ ____
ROOT
ATOM      1  N   UNL     1      39.778   0.793  14.424  0.00  0.00    +0.000 N 
ATOM      2  C   UNL     1      39.478   2.084  14.197  0.00  0.00    +0.000 A 
ATOM      3  N   UNL     1      40.353   3.065  13.632  0.00  0.00    +0.000 NA
ATOM      4  C   UNL     1      38.184   2.342  14.592  0.00  0.00    +0.000 A 
ATOM      5  C   UNL     1      37.718   1.135  15.070  0.00  0.00    +0.000 A 
ATOM      6  N   UNL     1      36.498   0.833  15.583  0.00  0.00    +0.000 NA
ATOM      7  C   UNL     1      36.250  -0.426  15.996  0.00  0.00    +0.000 A 
ATOM      8  C   UNL     1      35.023  -0.796  16.529  0.00  0.00    +0.000 A 
ATOM      9  C   UNL     1      34.754  -2.079  16.957  0.00  0.00    +0.000 A 
ATOM     10  C   UNL     1      35.757  -3.039  16.847  0.00  0.00    +0.000 A 
ATOM     11  C   UNL     1      36.976  -2.678  16.320  0.00  0.00    +0.000 A 
ATOM     12  C   UNL     1      37.239  -1.382  15.891  0.00  0.00    +0.000 A 
ATOM     13  N   UNL     1      38.459  -1.077  15.378  0.00  0.00    +0.000 NA
ATOM     14  C   UNL     1      38.711   0.186  14.962  0.00  0.00    +0.000 A 
ENDROOT
BRANCH   4  15
ATOM     15  C   UNL     1      37.458   3.605  14.524  0.00  0.00    +0.000 C 
ATOM     16  O   UNL     1      36.733   3.816  13.521  0.00  0.00    +0.000 OA
BRANCH  15  17
ATOM     17  O   UNL     1      37.526   4.570  15.498  0.00  0.00    +0.000 OA
BRANCH  17  18
ATOM     18  C   UNL     1      37.796   4.289  16.853  0.00  0.00    +0.000 C 
BRANCH  18  19
ATOM     19  C   UNL     1      38.962   5.080  17.349  0.00  0.00    +0.000 A 
ATOM     20  C   UNL     1      39.945   5.563  16.527  0.00  0.00    +0.000 A 
ATOM     21  C   UNL     1      41.023   6.291  16.975  0.00  0.00    +0.000 A 
ATOM     22  C   UNL     1      41.132   6.557  18.311  0.00  0.00    +0.000 A 
ATOM     23  C   UNL     1      40.155   6.082  19.166  0.00  0.00    +0.000 A 
ATOM     24  C   UNL     1      39.077   5.349  18.697  0.00  0.00    +0.000 A 
ENDBRANCH  18  19
ENDBRANCH  17  18
ENDBRANCH  15  17
ENDBRANCH   4  15
BRANCH   1  25
ATOM     25  C   UNL     1      41.030   0.105  14.157  0.00  0.00    +0.000 C 
BRANCH  25  29
ATOM     26  C   UNL     1      40.466  -2.145  10.562  0.00  0.00    +0.000 A 
ATOM     27  C   UNL     1      40.770  -2.783  11.744  0.00  0.00    +0.000 A 
ATOM     28  C   UNL     1      40.954  -2.047  12.909  0.00  0.00    +0.000 A 
ATOM     29  C   UNL     1      40.837  -0.687  12.913  0.00  0.00    +0.000 A 
ATOM     30  C   UNL     1      40.529  -0.050  11.715  0.00  0.00    +0.000 A 
ATOM     31  C   UNL     1      40.351  -0.783  10.570  0.00  0.00    +0.000 A 
BRANCH  26  33
ATOM     32  C   UNL     1      41.094  -3.981   9.074  0.00  0.00    +0.000 C 
ATOM     33  O   UNL     1      40.284  -2.877   9.398  0.00  0.00    +0.000 OA
ENDBRANCH  26  33
ENDBRANCH  25  29
ENDBRANCH   1  25
TORSDOF 7
ENDMDL
