MODEL 1
REMARK VINA RESULT:      -7.5      0.000      0.000
REMARK  Name = 
REMARK  3 active torsions:
REMARK  status: ('A' for Active; 'I' for Inactive)
REMARK    1  A    between atoms: C_2  and  C_13
REMARK    2  A    between atoms: N_3  and  N_4
REMARK    3  A    between atoms: C_5  and  C_6
REMARK                            x       y       z     vdW  Elec       q    Type
REMARK                         _______ _______ _______ _____ _____    ______ ____
ROOT
ATOM      1  O   UNL     1      16.208  10.999  38.216  0.00  0.00    +0.000 OA
ATOM      2  C   UNL     1      17.102  10.148  37.970  0.00  0.00    +0.000 C 
ATOM      3  N   UNL     1      17.403   9.874  36.614  0.00  0.00    +0.000 NA
ENDROOT
BRANCH   2   4
ATOM      4  C   UNL     1      17.825   9.445  39.067  0.00  0.00    +0.000 A 
ATOM      5  C   UNL     1      19.116   9.049  38.869  0.00  0.00    +0.000 A 
ATOM      6  S   UNL     1      19.528   8.310  40.346  0.00  0.00    +0.000 S 
ATOM      7  C   UNL     1      18.057   8.521  41.177  0.00  0.00    +0.000 A 
ATOM      8  C   UNL     1      17.272   9.172  40.265  0.00  0.00    +0.000 A 
ATOM      9  C   UNL     1      15.868   9.487  40.770  0.00  0.00    +0.000 C 
ATOM     10  C   UNL     1      15.351   8.181  41.348  0.00  0.00    +0.000 C 
ATOM     11  C   UNL     1      16.122   7.768  42.555  0.00  0.00    +0.000 C 
ATOM     12  C   UNL     1      17.561   8.157  42.548  0.00  0.00    +0.000 C 
ENDBRANCH   2   4
BRANCH   3  13
ATOM     13  N   UNL     1      16.775  10.485  35.549  0.00  0.00    +0.000 NA
ATOM     14  C   UNL     1      16.901  10.156  34.317  0.00  0.00    +0.000 C 
BRANCH  14  15
ATOM     15  C   UNL     1      16.154  10.920  33.314  0.00  0.00    +0.000 A 
ATOM     16  C   UNL     1      15.285  11.927  33.676  0.00  0.00    +0.000 A 
ATOM     17  C   UNL     1      14.586  12.641  32.725  0.00  0.00    +0.000 A 
ATOM     18  C   UNL     1      14.722  12.384  31.376  0.00  0.00    +0.000 A 
ATOM     19  O   UNL     1      14.010  13.113  30.416  0.00  0.00    +0.000 OA
ATOM     20  C   UNL     1      15.590  11.377  31.009  0.00  0.00    +0.000 A 
ATOM     21  C   UNL     1      16.289  10.662  31.960  0.00  0.00    +0.000 A 
ENDBRANCH  14  15
ENDBRANCH   3  13
TORSDOF 3
ENDMDL
MODEL 2
REMARK VINA RESULT:      -6.6     19.016     21.214
REMARK  Name = 
REMARK  3 active torsions:
REMARK  status: ('A' for Active; 'I' for Inactive)
REMARK    1  A    between atoms: C_2  and  C_13
REMARK    2  A    between atoms: N_3  and  N_4
REMARK    3  A    between atoms: C_5  and  C_6
REMARK                            x       y       z     vdW  Elec       q    Type
REMARK                         _______ _______ _______ _____ _____    ______ ____
ROOT
ATOM      1  O   UNL     1      31.798  -0.569  35.448  0.00  0.00    +0.000 OA
ATOM      2  C   UNL     1      32.987  -0.231  35.220  0.00  0.00    +0.000 C 
ATOM      3  N   UNL     1      33.760  -1.053  34.364  0.00  0.00    +0.000 NA
ENDROOT
BRANCH   2   4
ATOM      4  C   UNL     1      33.575   0.996  35.830  0.00  0.00    +0.000 A 
ATOM      5  C   UNL     1      33.860   1.008  37.164  0.00  0.00    +0.000 A 
ATOM      6  S   UNL     1      34.497   2.567  37.412  0.00  0.00    +0.000 S 
ATOM      7  C   UNL     1      34.386   3.164  35.822  0.00  0.00    +0.000 A 
ATOM      8  C   UNL     1      33.847   2.115  35.129  0.00  0.00    +0.000 A 
ATOM      9  C   UNL     1      33.639   2.394  33.645  0.00  0.00    +0.000 C 
ATOM     10  C   UNL     1      32.916   3.728  33.589  0.00  0.00    +0.000 C 
ATOM     11  C   UNL     1      33.773   4.842  34.084  0.00  0.00    +0.000 C 
ATOM     12  C   UNL     1      34.736   4.468  35.160  0.00  0.00    +0.000 C 
ENDBRANCH   2   4
BRANCH   3  13
ATOM     13  N   UNL     1      33.283  -2.201  33.766  0.00  0.00    +0.000 NA
ATOM     14  C   UNL     1      33.955  -3.272  33.562  0.00  0.00    +0.000 C 
BRANCH  14  15
ATOM     15  C   UNL     1      33.283  -4.400  32.910  0.00  0.00    +0.000 A 
ATOM     16  C   UNL     1      32.312  -5.133  33.559  0.00  0.00    +0.000 A 
ATOM     17  C   UNL     1      31.685  -6.193  32.939  0.00  0.00    +0.000 A 
ATOM     18  C   UNL     1      31.996  -6.567  31.648  0.00  0.00    +0.000 A 
ATOM     19  O   UNL     1      31.355  -7.644  31.023  0.00  0.00    +0.000 OA
ATOM     20  C   UNL     1      32.966  -5.837  30.994  0.00  0.00    +0.000 A 
ATOM     21  C   UNL     1      33.594  -4.778  31.615  0.00  0.00    +0.000 A 
ENDBRANCH  14  15
ENDBRANCH   3  13
TORSDOF 3
ENDMDL
MODEL 3
REMARK VINA RESULT:      -6.5      4.300      8.268
REMARK  Name = 
REMARK  3 active torsions:
REMARK  status: ('A' for Active; 'I' for Inactive)
REMARK    1  A    between atoms: C_2  and  C_13
REMARK    2  A    between atoms: N_3  and  N_4
REMARK    3  A    between atoms: C_5  and  C_6
REMARK                            x       y       z     vdW  Elec       q    Type
REMARK                         _______ _______ _______ _____ _____    ______ ____
ROOT
ATOM      1  O   UNL     1      19.023  12.119  37.979  0.00  0.00    +0.000 OA
ATOM      2  C   UNL     1      18.428  11.194  37.369  0.00  0.00    +0.000 C 
ATOM      3  N   UNL     1      19.168  10.033  37.036  0.00  0.00    +0.000 NA
ENDROOT
BRANCH   2   4
ATOM      4  C   UNL     1      16.988  11.308  37.002  0.00  0.00    +0.000 A 
ATOM      5  C   UNL     1      16.040  11.214  37.979  0.00  0.00    +0.000 A 
ATOM      6  S   UNL     1      14.579  11.397  37.125  0.00  0.00    +0.000 S 
ATOM      7  C   UNL     1      15.204  11.588  35.553  0.00  0.00    +0.000 A 
ATOM      8  C   UNL     1      16.557  11.503  35.740  0.00  0.00    +0.000 A 
ATOM      9  C   UNL     1      17.370  11.646  34.458  0.00  0.00    +0.000 C 
ATOM     10  C   UNL     1      16.728  10.686  33.472  0.00  0.00    +0.000 C 
ATOM     11  C   UNL     1      15.344  11.109  33.111  0.00  0.00    +0.000 C 
ATOM     12  C   UNL     1      14.594  11.804  34.196  0.00  0.00    +0.000 C 
ENDBRANCH   2   4
BRANCH   3  13
ATOM     13  N   UNL     1      20.502   9.859  37.343  0.00  0.00    +0.000 NA
ATOM     14  C   UNL     1      21.471   9.885  36.507  0.00  0.00    +0.000 C 
BRANCH  14  15
ATOM     15  C   UNL     1      22.832   9.679  37.013  0.00  0.00    +0.000 A 
ATOM     16  C   UNL     1      23.934  10.133  36.321  0.00  0.00    +0.000 A 
ATOM     17  C   UNL     1      25.210   9.935  36.804  0.00  0.00    +0.000 A 
ATOM     18  C   UNL     1      25.443   9.280  37.996  0.00  0.00    +0.000 A 
ATOM     19  O   UNL     1      26.742   9.082  38.482  0.00  0.00    +0.000 OA
ATOM     20  C   UNL     1      24.344   8.824  38.692  0.00  0.00    +0.000 A 
ATOM     21  C   UNL     1      23.067   9.021  38.208  0.00  0.00    +0.000 A 
ENDBRANCH  14  15
ENDBRANCH   3  13
TORSDOF 3
ENDMDL
MODEL 4
REMARK VINA RESULT:      -6.5      1.834      2.302
REMARK  Name = 
REMARK  3 active torsions:
REMARK  status: ('A' for Active; 'I' for Inactive)
REMARK    1  A    between atoms: C_2  and  C_13
REMARK    2  A    between atoms: N_3  and  N_4
REMARK    3  A    between atoms: C_5  and  C_6
REMARK                            x       y       z     vdW  Elec       q    Type
REMARK                         _______ _______ _______ _____ _____    ______ ____
ROOT
ATOM      1  O   UNL     1      17.597   9.969  39.660  0.00  0.00    +0.000 OA
ATOM      2  C   UNL     1      18.448   9.138  39.252  0.00  0.00    +0.000 C 
ATOM      3  N   UNL     1      18.571   8.944  37.855  0.00  0.00    +0.000 NA
ENDROOT
BRANCH   2   4
ATOM      4  C   UNL     1      19.306   8.376  40.204  0.00  0.00    +0.000 A 
ATOM      5  C   UNL     1      20.657   8.563  40.181  0.00  0.00    +0.000 A 
ATOM      6  S   UNL     1      21.216   7.518  41.404  0.00  0.00    +0.000 S 
ATOM      7  C   UNL     1      19.725   6.871  41.912  0.00  0.00    +0.000 A 
ATOM      8  C   UNL     1      18.818   7.498  41.102  0.00  0.00    +0.000 A 
ATOM      9  C   UNL     1      17.372   7.087  41.358  0.00  0.00    +0.000 C 
ATOM     10  C   UNL     1      17.386   5.569  41.366  0.00  0.00    +0.000 C 
ATOM     11  C   UNL     1      18.159   5.030  42.521  0.00  0.00    +0.000 C 
ATOM     12  C   UNL     1      19.313   5.870  42.955  0.00  0.00    +0.000 C 
ENDBRANCH   2   4
BRANCH   3  13
ATOM     13  N   UNL     1      17.813   9.613  36.916  0.00  0.00    +0.000 NA
ATOM     14  C   UNL     1      18.030   9.631  35.654  0.00  0.00    +0.000 C 
BRANCH  14  15
ATOM     15  C   UNL     1      17.115  10.398  34.803  0.00  0.00    +0.000 A 
ATOM     16  C   UNL     1      16.164  11.238  35.342  0.00  0.00    +0.000 A 
ATOM     17  C   UNL     1      15.308  11.956  34.534  0.00  0.00    +0.000 A 
ATOM     18  C   UNL     1      15.362  11.870  33.158  0.00  0.00    +0.000 A 
ATOM     19  O   UNL     1      14.490  12.602  32.343  0.00  0.00    +0.000 OA
ATOM     20  C   UNL     1      16.312  11.031  32.614  0.00  0.00    +0.000 A 
ATOM     21  C   UNL     1      17.168  10.312  33.422  0.00  0.00    +0.000 A 
ENDBRANCH  14  15
ENDBRANCH   3  13
TORSDOF 3
ENDMDL
MODEL 5
REMARK VINA RESULT:      -6.4     19.549     20.440
REMARK  Name = 
REMARK  3 active torsions:
REMARK  status: ('A' for Active; 'I' for Inactive)
REMARK    1  A    between atoms: C_2  and  C_13
REMARK    2  A    between atoms: N_3  and  N_4
REMARK    3  A    between atoms: C_5  and  C_6
REMARK                            x       y       z     vdW  Elec       q    Type
REMARK                         _______ _______ _______ _____ _____    ______ ____
ROOT
ATOM      1  O   UNL     1      30.080  24.165  28.201  0.00  0.00    +0.000 OA
ATOM      2  C   UNL     1      29.827  23.069  28.764  0.00  0.00    +0.000 C 
ATOM      3  N   UNL     1      29.022  22.134  28.067  0.00  0.00    +0.000 NA
ENDROOT
BRANCH   2   4
ATOM      4  C   UNL     1      30.352  22.755  30.123  0.00  0.00    +0.000 A 
ATOM      5  C   UNL     1      29.635  23.134  31.220  0.00  0.00    +0.000 A 
ATOM      6  S   UNL     1      30.588  22.584  32.518  0.00  0.00    +0.000 S 
ATOM      7  C   UNL     1      31.870  21.888  31.640  0.00  0.00    +0.000 A 
ATOM      8  C   UNL     1      31.514  22.107  30.337  0.00  0.00    +0.000 A 
ATOM      9  C   UNL     1      32.516  21.568  29.322  0.00  0.00    +0.000 C 
ATOM     10  C   UNL     1      33.867  22.085  29.786  0.00  0.00    +0.000 C 
ATOM     11  C   UNL     1      34.268  21.488  31.091  0.00  0.00    +0.000 C 
ATOM     12  C   UNL     1      33.140  21.177  32.016  0.00  0.00    +0.000 C 
ENDBRANCH   2   4
BRANCH   3  13
ATOM     13  N   UNL     1      28.502  22.356  26.809  0.00  0.00    +0.000 NA
ATOM     14  C   UNL     1      27.416  22.984  26.548  0.00  0.00    +0.000 C 
BRANCH  14  15
ATOM     15  C   UNL     1      27.015  23.126  25.145  0.00  0.00    +0.000 A 
ATOM     16  C   UNL     1      27.932  23.423  24.160  0.00  0.00    +0.000 A 
ATOM     17  C   UNL     1      27.546  23.554  22.843  0.00  0.00    +0.000 A 
ATOM     18  C   UNL     1      26.233  23.395  22.451  0.00  0.00    +0.000 A 
ATOM     19  O   UNL     1      25.847  23.529  21.111  0.00  0.00    +0.000 OA
ATOM     20  C   UNL     1      25.311  23.098  23.432  0.00  0.00    +0.000 A 
ATOM     21  C   UNL     1      25.697  22.967  24.751  0.00  0.00    +0.000 A 
ENDBRANCH  14  15
ENDBRANCH   3  13
TORSDOF 3
ENDMDL
MODEL 6
REMARK VINA RESULT:      -6.3     23.529     27.363
REMARK  Name = 
REMARK  3 active torsions:
REMARK  status: ('A' for Active; 'I' for Inactive)
REMARK    1  A    between atoms: C_2  and  C_13
REMARK    2  A    between atoms: N_3  and  N_4
REMARK    3  A    between atoms: C_5  and  C_6
REMARK                            x       y       z     vdW  Elec       q    Type
REMARK                         _______ _______ _______ _____ _____    ______ ____
ROOT
ATOM      1  O   UNL     1      29.521  27.776  20.814  0.00  0.00    +0.000 OA
ATOM      2  C   UNL     1      29.788  27.024  19.842  0.00  0.00    +0.000 C 
ATOM      3  N   UNL     1      29.760  25.624  20.057  0.00  0.00    +0.000 NA
ENDROOT
BRANCH   2   4
ATOM      4  C   UNL     1      30.124  27.580  18.500  0.00  0.00    +0.000 A 
ATOM      5  C   UNL     1      31.388  27.423  18.011  0.00  0.00    +0.000 A 
ATOM      6  S   UNL     1      31.317  28.193  16.494  0.00  0.00    +0.000 S 
ATOM      7  C   UNL     1      29.690  28.694  16.519  0.00  0.00    +0.000 A 
ATOM      8  C   UNL     1      29.239  28.240  17.728  0.00  0.00    +0.000 A 
ATOM      9  C   UNL     1      27.775  28.565  18.005  0.00  0.00    +0.000 C 
ATOM     10  C   UNL     1      27.634  30.047  17.706  0.00  0.00    +0.000 C 
ATOM     11  C   UNL     1      27.836  30.340  16.258  0.00  0.00    +0.000 C 
ATOM     12  C   UNL     1      28.805  29.445  15.563  0.00  0.00    +0.000 C 
ENDBRANCH   2   4
BRANCH   3  13
ATOM     13  N   UNL     1      29.457  25.039  21.269  0.00  0.00    +0.000 NA
ATOM     14  C   UNL     1      28.437  24.303  21.511  0.00  0.00    +0.000 C 
BRANCH  14  15
ATOM     15  C   UNL     1      28.275  23.762  22.864  0.00  0.00    +0.000 A 
ATOM     16  C   UNL     1      27.033  23.660  23.454  0.00  0.00    +0.000 A 
ATOM     17  C   UNL     1      26.889  23.150  24.727  0.00  0.00    +0.000 A 
ATOM     18  C   UNL     1      27.973  22.721  25.466  0.00  0.00    +0.000 A 
ATOM     19  O   UNL     1      27.820  22.205  26.758  0.00  0.00    +0.000 OA
ATOM     20  C   UNL     1      29.217  22.822  24.880  0.00  0.00    +0.000 A 
ATOM     21  C   UNL     1      29.361  23.332  23.606  0.00  0.00    +0.000 A 
ENDBRANCH  14  15
ENDBRANCH   3  13
TORSDOF 3
ENDMDL
MODEL 7
REMARK VINA RESULT:      -6.3     24.221     27.894
REMARK  Name = 
REMARK  3 active torsions:
REMARK  status: ('A' for Active; 'I' for Inactive)
REMARK    1  A    between atoms: C_2  and  C_13
REMARK    2  A    between atoms: N_3  and  N_4
REMARK    3  A    between atoms: C_5  and  C_6
REMARK                            x       y       z     vdW  Elec       q    Type
REMARK                         _______ _______ _______ _____ _____    ______ ____
ROOT
ATOM      1  O   UNL     1      29.499  27.775  20.507  0.00  0.00    +0.000 OA
ATOM      2  C   UNL     1      29.845  27.057  19.535  0.00  0.00    +0.000 C 
ATOM      3  N   UNL     1      29.888  25.654  19.727  0.00  0.00    +0.000 NA
ENDROOT
BRANCH   2   4
ATOM      4  C   UNL     1      30.201  27.655  18.217  0.00  0.00    +0.000 A 
ATOM      5  C   UNL     1      29.769  27.052  17.072  0.00  0.00    +0.000 A 
ATOM      6  S   UNL     1      30.394  28.054  15.845  0.00  0.00    +0.000 S 
ATOM      7  C   UNL     1      31.186  29.209  16.812  0.00  0.00    +0.000 A 
ATOM      8  C   UNL     1      30.938  28.776  18.086  0.00  0.00    +0.000 A 
ATOM      9  C   UNL     1      31.552  29.655  19.170  0.00  0.00    +0.000 C 
ATOM     10  C   UNL     1      33.000  29.845  18.754  0.00  0.00    +0.000 C 
ATOM     11  C   UNL     1      33.114  30.634  17.495  0.00  0.00    +0.000 C 
ATOM     12  C   UNL     1      31.994  30.444  16.528  0.00  0.00    +0.000 C 
ENDBRANCH   2   4
BRANCH   3  13
ATOM     13  N   UNL     1      29.573  25.031  20.917  0.00  0.00    +0.000 NA
ATOM     14  C   UNL     1      28.389  24.802  21.350  0.00  0.00    +0.000 C 
BRANCH  14  15
ATOM     15  C   UNL     1      28.241  24.125  22.642  0.00  0.00    +0.000 A 
ATOM     16  C   UNL     1      29.328  23.604  23.311  0.00  0.00    +0.000 A 
ATOM     17  C   UNL     1      29.180  22.970  24.526  0.00  0.00    +0.000 A 
ATOM     18  C   UNL     1      27.946  22.828  25.127  0.00  0.00    +0.000 A 
ATOM     19  O   UNL     1      27.803  22.183  26.361  0.00  0.00    +0.000 OA
ATOM     20  C   UNL     1      26.856  23.348  24.462  0.00  0.00    +0.000 A 
ATOM     21  C   UNL     1      27.004  23.982  23.246  0.00  0.00    +0.000 A 
ENDBRANCH  14  15
ENDBRANCH   3  13
TORSDOF 3
ENDMDL
MODEL 8
REMARK VINA RESULT:      -6.2     19.361     20.577
REMARK  Name = 
REMARK  3 active torsions:
REMARK  status: ('A' for Active; 'I' for Inactive)
REMARK    1  A    between atoms: C_2  and  C_13
REMARK    2  A    between atoms: N_3  and  N_4
REMARK    3  A    between atoms: C_5  and  C_6
REMARK                            x       y       z     vdW  Elec       q    Type
REMARK                         _______ _______ _______ _____ _____    ______ ____
ROOT
ATOM      1  O   UNL     1      31.914  23.948  28.143  0.00  0.00    +0.000 OA
ATOM      2  C   UNL     1      31.811  22.785  28.612  0.00  0.00    +0.000 C 
ATOM      3  N   UNL     1      30.953  21.874  27.950  0.00  0.00    +0.000 NA
ENDROOT
BRANCH   2   4
ATOM      4  C   UNL     1      32.567  22.371  29.828  0.00  0.00    +0.000 A 
ATOM      5  C   UNL     1      33.870  21.985  29.705  0.00  0.00    +0.000 A 
ATOM      6  S   UNL     1      34.318  21.609  31.304  0.00  0.00    +0.000 S 
ATOM      7  C   UNL     1      32.845  21.951  32.087  0.00  0.00    +0.000 A 
ATOM      8  C   UNL     1      32.031  22.354  31.064  0.00  0.00    +0.000 A 
ATOM      9  C   UNL     1      30.620  22.727  31.506  0.00  0.00    +0.000 C 
ATOM     10  C   UNL     1      30.154  21.567  32.368  0.00  0.00    +0.000 C 
ATOM     11  C   UNL     1      30.947  21.461  33.626  0.00  0.00    +0.000 C 
ATOM     12  C   UNL     1      32.371  21.887  33.512  0.00  0.00    +0.000 C 
ENDBRANCH   2   4
BRANCH   3  13
ATOM     13  N   UNL     1      30.223  22.188  26.821  0.00  0.00    +0.000 NA
ATOM     14  C   UNL     1      28.976  22.479  26.794  0.00  0.00    +0.000 C 
BRANCH  14  15
ATOM     15  C   UNL     1      28.363  22.787  25.499  0.00  0.00    +0.000 A 
ATOM     16  C   UNL     1      29.125  22.950  24.361  0.00  0.00    +0.000 A 
ATOM     17  C   UNL     1      28.541  23.240  23.147  0.00  0.00    +0.000 A 
ATOM     18  C   UNL     1      27.175  23.380  23.012  0.00  0.00    +0.000 A 
ATOM     19  O   UNL     1      26.587  23.674  21.776  0.00  0.00    +0.000 OA
ATOM     20  C   UNL     1      26.407  23.217  24.147  0.00  0.00    +0.000 A 
ATOM     21  C   UNL     1      26.993  22.928  25.362  0.00  0.00    +0.000 A 
ENDBRANCH  14  15
ENDBRANCH   3  13
TORSDOF 3
ENDMDL
MODEL 9
REMARK VINA RESULT:      -6.2     21.028     22.793
REMARK  Name = 
REMARK  3 active torsions:
REMARK  status: ('A' for Active; 'I' for Inactive)
REMARK    1  A    between atoms: C_2  and  C_13
REMARK    2  A    between atoms: N_3  and  N_4
REMARK    3  A    between atoms: C_5  and  C_6
REMARK                            x       y       z     vdW  Elec       q    Type
REMARK                         _______ _______ _______ _____ _____    ______ ____
ROOT
ATOM      1  O   UNL     1      14.607 -10.120  26.092  0.00  0.00    +0.000 OA
ATOM      2  C   UNL     1      13.877  -9.096  26.069  0.00  0.00    +0.000 C 
ATOM      3  N   UNL     1      14.503  -7.838  25.887  0.00  0.00    +0.000 NA
ENDROOT
BRANCH   2   4
ATOM      4  C   UNL     1      12.399  -9.193  26.229  0.00  0.00    +0.000 A 
ATOM      5  C   UNL     1      11.876  -9.452  27.463  0.00  0.00    +0.000 A 
ATOM      6  S   UNL     1      10.198  -9.473  27.179  0.00  0.00    +0.000 S 
ATOM      7  C   UNL     1      10.200  -9.153  25.507  0.00  0.00    +0.000 A 
ATOM      8  C   UNL     1      11.531  -9.037  25.210  0.00  0.00    +0.000 A 
ATOM      9  C   UNL     1      11.815  -8.744  23.741  0.00  0.00    +0.000 C 
ATOM     10  C   UNL     1      11.002  -9.767  22.968  0.00  0.00    +0.000 C 
ATOM     11  C   UNL     1       9.537  -9.551  23.137  0.00  0.00    +0.000 C 
ATOM     12  C   UNL     1       9.129  -9.002  24.463  0.00  0.00    +0.000 C 
ENDBRANCH   2   4
BRANCH   3  13
ATOM     13  N   UNL     1      15.864  -7.672  25.733  0.00  0.00    +0.000 NA
ATOM     14  C   UNL     1      16.694  -7.395  26.668  0.00  0.00    +0.000 C 
BRANCH  14  15
ATOM     15  C   UNL     1      18.112  -7.255  26.320  0.00  0.00    +0.000 A 
ATOM     16  C   UNL     1      18.914  -8.357  26.110  0.00  0.00    +0.000 A 
ATOM     17  C   UNL     1      20.246  -8.216  25.783  0.00  0.00    +0.000 A 
ATOM     18  C   UNL     1      20.835  -6.975  25.650  0.00  0.00    +0.000 A 
ATOM     19  O   UNL     1      22.188  -6.839  25.317  0.00  0.00    +0.000 OA
ATOM     20  C   UNL     1      20.037  -5.870  25.858  0.00  0.00    +0.000 A 
ATOM     21  C   UNL     1      18.704  -6.011  26.186  0.00  0.00    +0.000 A 
ENDBRANCH  14  15
ENDBRANCH   3  13
TORSDOF 3
ENDMDL
MODEL 10
REMARK VINA RESULT:      -6.2     21.200     22.575
REMARK  Name = 
REMARK  3 active torsions:
REMARK  status: ('A' for Active; 'I' for Inactive)
REMARK    1  A    between atoms: C_2  and  C_13
REMARK    2  A    between atoms: N_3  and  N_4
REMARK    3  A    between atoms: C_5  and  C_6
REMARK                            x       y       z     vdW  Elec       q    Type
REMARK                         _______ _______ _______ _____ _____    ______ ____
ROOT
ATOM      1  O   UNL     1      14.482  -9.995  24.613  0.00  0.00    +0.000 OA
ATOM      2  C   UNL     1      13.789  -9.184  25.280  0.00  0.00    +0.000 C 
ATOM      3  N   UNL     1      14.440  -8.057  25.839  0.00  0.00    +0.000 NA
ENDROOT
BRANCH   2   4
ATOM      4  C   UNL     1      12.328  -9.397  25.483  0.00  0.00    +0.000 A 
ATOM      5  C   UNL     1      11.445  -8.854  24.596  0.00  0.00    +0.000 A 
ATOM      6  S   UNL     1       9.931  -9.340  25.205  0.00  0.00    +0.000 S 
ATOM      7  C   UNL     1      10.455 -10.218  26.567  0.00  0.00    +0.000 A 
ATOM      8  C   UNL     1      11.817 -10.106  26.509  0.00  0.00    +0.000 A 
ATOM      9  C   UNL     1      12.546 -10.820  27.641  0.00  0.00    +0.000 C 
ATOM     10  C   UNL     1      11.850 -10.364  28.911  0.00  0.00    +0.000 C 
ATOM     11  C   UNL     1      10.443 -10.853  28.977  0.00  0.00    +0.000 C 
ATOM     12  C   UNL     1       9.758 -10.981  27.658  0.00  0.00    +0.000 C 
ENDBRANCH   2   4
BRANCH   3  13
ATOM     13  N   UNL     1      15.787  -7.797  25.693  0.00  0.00    +0.000 NA
ATOM     14  C   UNL     1      16.625  -7.633  26.648  0.00  0.00    +0.000 C 
BRANCH  14  15
ATOM     15  C   UNL     1      18.024  -7.363  26.305  0.00  0.00    +0.000 A 
ATOM     16  C   UNL     1      18.905  -8.384  26.018  0.00  0.00    +0.000 A 
ATOM     17  C   UNL     1      20.220  -8.122  25.697  0.00  0.00    +0.000 A 
ATOM     18  C   UNL     1      20.713  -6.834  25.647  0.00  0.00    +0.000 A 
ATOM     19  O   UNL     1      22.050  -6.574  25.320  0.00  0.00    +0.000 OA
ATOM     20  C   UNL     1      19.836  -5.809  25.934  0.00  0.00    +0.000 A 
ATOM     21  C   UNL     1      18.521  -6.072  26.256  0.00  0.00    +0.000 A 
ENDBRANCH  14  15
ENDBRANCH   3  13
TORSDOF 3
ENDMDL
