MODEL 1
REMARK VINA RESULT:      -6.6      0.000      0.000
REMARK  Name = 
REMARK  4 active torsions:
REMARK  status: ('A' for Active; 'I' for Inactive)
REMARK    1  A    between atoms: C_2  and  C_5
REMARK    2  A    between atoms: C_5  and  C_7
REMARK    3  A    between atoms: C_7  and  S_8
REMARK    4  A    between atoms: S_8  and  C_9
REMARK                            x       y       z     vdW  Elec       q    Type
REMARK                         _______ _______ _______ _____ _____    ______ ____
ROOT
ATOM      1  C   UNL     1      15.041  12.250  35.024  0.00  0.00    +0.000 A 
ATOM      2  N   UNL     1      14.333  13.297  34.507  0.00  0.00    +0.000 NA
ATOM      3  C   UNL     1      14.308  13.204  33.188  0.00  0.00    +0.000 A 
ATOM      4  C   UNL     1      13.707  14.042  32.261  0.00  0.00    +0.000 A 
ATOM      5  C   UNL     1      13.831  13.717  30.934  0.00  0.00    +0.000 A 
ATOM      6  C   UNL     1      14.528  12.594  30.537  0.00  0.00    +0.000 A 
ATOM      7  C   UNL     1      15.109  11.790  31.493  0.00  0.00    +0.000 A 
ATOM      8  C   UNL     1      15.007  12.083  32.842  0.00  0.00    +0.000 A 
ATOM      9  N   UNL     1      15.445  11.518  33.978  0.00  0.00    +0.000 NA
ENDROOT
BRANCH   1  10
ATOM     10  S   UNL     1      15.282  12.050  36.751  0.00  0.00    +0.000 S 
BRANCH  10  11
ATOM     11  C   UNL     1      16.362  10.656  37.172  0.00  0.00    +0.000 C 
BRANCH  11  12
ATOM     12  C   UNL     1      17.849  11.151  36.607  0.00  0.00    +0.000 C 
ATOM     13  O   UNL     1      18.400  11.442  38.012  0.00  0.00    +0.000 OA
BRANCH  12  15
ATOM     14  C   UNL     1      19.978   9.832  36.388  0.00  0.00    +0.000 C 
ATOM     15  C   UNL     1      18.493   9.614  36.566  0.00  0.00    +0.000 C 
ATOM     16  C   UNL     1      17.821   8.873  35.487  0.00  0.00    +0.000 C 
ATOM     17  C   UNL     1      18.180   9.074  37.954  0.00  0.00    +0.000 C 
ENDBRANCH  12  15
ENDBRANCH  11  12
ENDBRANCH  10  11
ENDBRANCH   1  10
TORSDOF 4
ENDMDL
MODEL 2
REMARK VINA RESULT:      -6.4      1.112      2.133
REMARK  Name = 
REMARK  4 active torsions:
REMARK  status: ('A' for Active; 'I' for Inactive)
REMARK    1  A    between atoms: C_2  and  C_5
REMARK    2  A    between atoms: C_5  and  C_7
REMARK    3  A    between atoms: C_7  and  S_8
REMARK    4  A    between atoms: S_8  and  C_9
REMARK                            x       y       z     vdW  Elec       q    Type
REMARK                         _______ _______ _______ _____ _____    ______ ____
ROOT
ATOM      1  C   UNL     1      14.820  12.340  35.086  0.00  0.00    +0.000 A 
ATOM      2  N   UNL     1      15.259  11.606  34.021  0.00  0.00    +0.000 NA
ATOM      3  C   UNL     1      14.891  12.196  32.897  0.00  0.00    +0.000 A 
ATOM      4  C   UNL     1      15.119  11.806  31.586  0.00  0.00    +0.000 A 
ATOM      5  C   UNL     1      14.624  12.607  30.588  0.00  0.00    +0.000 A 
ATOM      6  C   UNL     1      13.923  13.760  30.879  0.00  0.00    +0.000 A 
ATOM      7  C   UNL     1      13.720  14.108  32.196  0.00  0.00    +0.000 A 
ATOM      8  C   UNL     1      14.204  13.328  33.233  0.00  0.00    +0.000 A 
ATOM      9  N   UNL     1      14.174  13.394  34.573  0.00  0.00    +0.000 NA
ENDROOT
BRANCH   1  10
ATOM     10  S   UNL     1      15.128  11.853  36.744  0.00  0.00    +0.000 S 
BRANCH  10  11
ATOM     11  C   UNL     1      16.883  11.904  37.196  0.00  0.00    +0.000 C 
BRANCH  11  12
ATOM     12  C   UNL     1      17.148  10.389  37.839  0.00  0.00    +0.000 C 
ATOM     13  O   UNL     1      17.337   9.728  36.464  0.00  0.00    +0.000 OA
BRANCH  12  15
ATOM     14  C   UNL     1      19.070  10.021  39.416  0.00  0.00    +0.000 C 
ATOM     15  C   UNL     1      18.783  10.623  38.060  0.00  0.00    +0.000 C 
ATOM     16  C   UNL     1      19.052  12.064  37.930  0.00  0.00    +0.000 C 
ATOM     17  C   UNL     1      19.403   9.791  36.947  0.00  0.00    +0.000 C 
ENDBRANCH  12  15
ENDBRANCH  11  12
ENDBRANCH  10  11
ENDBRANCH   1  10
TORSDOF 4
ENDMDL
MODEL 3
REMARK VINA RESULT:      -6.4      1.624      2.253
REMARK  Name = 
REMARK  4 active torsions:
REMARK  status: ('A' for Active; 'I' for Inactive)
REMARK    1  A    between atoms: C_2  and  C_5
REMARK    2  A    between atoms: C_5  and  C_7
REMARK    3  A    between atoms: C_7  and  S_8
REMARK    4  A    between atoms: S_8  and  C_9
REMARK                            x       y       z     vdW  Elec       q    Type
REMARK                         _______ _______ _______ _____ _____    ______ ____
ROOT
ATOM      1  C   UNL     1      16.476  10.786  33.543  0.00  0.00    +0.000 A 
ATOM      2  N   UNL     1      15.671  11.781  34.021  0.00  0.00    +0.000 NA
ATOM      3  C   UNL     1      15.054  12.371  33.012  0.00  0.00    +0.000 A 
ATOM      4  C   UNL     1      14.150  13.423  33.031  0.00  0.00    +0.000 A 
ATOM      5  C   UNL     1      13.650  13.855  31.829  0.00  0.00    +0.000 A 
ATOM      6  C   UNL     1      14.032  13.262  30.642  0.00  0.00    +0.000 A 
ATOM      7  C   UNL     1      14.933  12.220  30.671  0.00  0.00    +0.000 A 
ATOM      8  C   UNL     1      15.461  11.755  31.863  0.00  0.00    +0.000 A 
ATOM      9  N   UNL     1      16.328  10.791  32.213  0.00  0.00    +0.000 NA
ENDROOT
BRANCH   1  10
ATOM     10  S   UNL     1      17.451   9.785  34.605  0.00  0.00    +0.000 S 
BRANCH  10  11
ATOM     11  C   UNL     1      17.262  10.197  36.360  0.00  0.00    +0.000 C 
BRANCH  11  12
ATOM     12  C   UNL     1      18.320   9.149  37.107  0.00  0.00    +0.000 C 
ATOM     13  O   UNL     1      19.553   9.722  36.391  0.00  0.00    +0.000 OA
BRANCH  12  15
ATOM     14  C   UNL     1      17.336   9.811  39.324  0.00  0.00    +0.000 C 
ATOM     15  C   UNL     1      18.533  10.111  38.452  0.00  0.00    +0.000 C 
ATOM     16  C   UNL     1      18.656  11.504  37.993  0.00  0.00    +0.000 C 
ATOM     17  C   UNL     1      19.812   9.563  39.067  0.00  0.00    +0.000 C 
ENDBRANCH  12  15
ENDBRANCH  11  12
ENDBRANCH  10  11
ENDBRANCH   1  10
TORSDOF 4
ENDMDL
MODEL 4
REMARK VINA RESULT:      -6.2      1.618      2.493
REMARK  Name = 
REMARK  4 active torsions:
REMARK  status: ('A' for Active; 'I' for Inactive)
REMARK    1  A    between atoms: C_2  and  C_5
REMARK    2  A    between atoms: C_5  and  C_7
REMARK    3  A    between atoms: C_7  and  S_8
REMARK    4  A    between atoms: S_8  and  C_9
REMARK                            x       y       z     vdW  Elec       q    Type
REMARK                         _______ _______ _______ _____ _____    ______ ____
ROOT
ATOM      1  C   UNL     1      16.525  10.577  34.115  0.00  0.00    +0.000 A 
ATOM      2  N   UNL     1      16.626  10.560  32.753  0.00  0.00    +0.000 NA
ATOM      3  C   UNL     1      15.815  11.468  32.239  0.00  0.00    +0.000 A 
ATOM      4  C   UNL     1      15.595  11.796  30.909  0.00  0.00    +0.000 A 
ATOM      5  C   UNL     1      14.689  12.790  30.640  0.00  0.00    +0.000 A 
ATOM      6  C   UNL     1      14.021  13.442  31.657  0.00  0.00    +0.000 A 
ATOM      7  C   UNL     1      14.271  13.083  32.963  0.00  0.00    +0.000 A 
ATOM      8  C   UNL     1      15.178  12.085  33.277  0.00  0.00    +0.000 A 
ATOM      9  N   UNL     1      15.628  11.525  34.412  0.00  0.00    +0.000 NA
ENDROOT
BRANCH   1  10
ATOM     10  S   UNL     1      17.463   9.498  35.133  0.00  0.00    +0.000 S 
BRANCH  10  11
ATOM     11  C   UNL     1      17.401   9.931  36.892  0.00  0.00    +0.000 C 
BRANCH  11  12
ATOM     12  C   UNL     1      18.958   9.632  37.406  0.00  0.00    +0.000 C 
ATOM     13  O   UNL     1      19.307  11.123  37.543  0.00  0.00    +0.000 OA
BRANCH  12  15
ATOM     14  C   UNL     1      19.446  10.457  39.731  0.00  0.00    +0.000 C 
ATOM     15  C   UNL     1      18.540   9.483  39.014  0.00  0.00    +0.000 C 
ATOM     16  C   UNL     1      18.697   8.069  39.389  0.00  0.00    +0.000 C 
ATOM     17  C   UNL     1      17.094   9.958  39.038  0.00  0.00    +0.000 C 
ENDBRANCH  12  15
ENDBRANCH  11  12
ENDBRANCH  10  11
ENDBRANCH   1  10
TORSDOF 4
ENDMDL
MODEL 5
REMARK VINA RESULT:      -6.1      2.245      6.637
REMARK  Name = 
REMARK  4 active torsions:
REMARK  status: ('A' for Active; 'I' for Inactive)
REMARK    1  A    between atoms: C_2  and  C_5
REMARK    2  A    between atoms: C_5  and  C_7
REMARK    3  A    between atoms: C_7  and  S_8
REMARK    4  A    between atoms: S_8  and  C_9
REMARK                            x       y       z     vdW  Elec       q    Type
REMARK                         _______ _______ _______ _____ _____    ______ ____
ROOT
ATOM      1  C   UNL     1      15.984  11.432  36.233  0.00  0.00    +0.000 A 
ATOM      2  N   UNL     1      17.232  10.981  35.906  0.00  0.00    +0.000 NA
ATOM      3  C   UNL     1      17.775  10.388  36.955  0.00  0.00    +0.000 A 
ATOM      4  C   UNL     1      19.020   9.789  37.076  0.00  0.00    +0.000 A 
ATOM      5  C   UNL     1      19.347   9.239  38.289  0.00  0.00    +0.000 A 
ATOM      6  C   UNL     1      18.466   9.279  39.351  0.00  0.00    +0.000 A 
ATOM      7  C   UNL     1      17.241   9.885  39.186  0.00  0.00    +0.000 A 
ATOM      8  C   UNL     1      16.873  10.452  37.977  0.00  0.00    +0.000 A 
ATOM      9  N   UNL     1      15.788  11.093  37.514  0.00  0.00    +0.000 NA
ENDROOT
BRANCH   1  10
ATOM     10  S   UNL     1      14.964  12.274  35.080  0.00  0.00    +0.000 S 
BRANCH  10  11
ATOM     11  C   UNL     1      14.837  11.431  33.480  0.00  0.00    +0.000 C 
BRANCH  11  12
ATOM     12  C   UNL     1      16.133  12.044  32.630  0.00  0.00    +0.000 C 
ATOM     13  O   UNL     1      16.452  10.703  31.951  0.00  0.00    +0.000 OA
BRANCH  12  15
ATOM     14  C   UNL     1      16.197  13.262  30.431  0.00  0.00    +0.000 C 
ATOM     15  C   UNL     1      15.209  12.583  31.351  0.00  0.00    +0.000 C 
ATOM     16  C   UNL     1      14.146  13.442  31.895  0.00  0.00    +0.000 C 
ATOM     17  C   UNL     1      14.686  11.292  30.737  0.00  0.00    +0.000 C 
ENDBRANCH  12  15
ENDBRANCH  11  12
ENDBRANCH  10  11
ENDBRANCH   1  10
TORSDOF 4
ENDMDL
MODEL 6
REMARK VINA RESULT:      -6.1      1.625      1.977
REMARK  Name = 
REMARK  4 active torsions:
REMARK  status: ('A' for Active; 'I' for Inactive)
REMARK    1  A    between atoms: C_2  and  C_5
REMARK    2  A    between atoms: C_5  and  C_7
REMARK    3  A    between atoms: C_7  and  S_8
REMARK    4  A    between atoms: S_8  and  C_9
REMARK                            x       y       z     vdW  Elec       q    Type
REMARK                         _______ _______ _______ _____ _____    ______ ____
ROOT
ATOM      1  C   UNL     1      16.264  10.957  34.266  0.00  0.00    +0.000 A 
ATOM      2  N   UNL     1      15.322  11.943  34.346  0.00  0.00    +0.000 NA
ATOM      3  C   UNL     1      15.012  12.357  33.129  0.00  0.00    +0.000 A 
ATOM      4  C   UNL     1      14.109  13.335  32.738  0.00  0.00    +0.000 A 
ATOM      5  C   UNL     1      13.974  13.575  31.394  0.00  0.00    +0.000 A 
ATOM      6  C   UNL     1      14.709  12.867  30.465  0.00  0.00    +0.000 A 
ATOM      7  C   UNL     1      15.594  11.906  30.899  0.00  0.00    +0.000 A 
ATOM      8  C   UNL     1      15.760  11.632  32.246  0.00  0.00    +0.000 A 
ATOM      9  N   UNL     1      16.516  10.785  32.963  0.00  0.00    +0.000 NA
ENDROOT
BRANCH   1  10
ATOM     10  S   UNL     1      16.913  10.171  35.694  0.00  0.00    +0.000 S 
BRANCH  10  11
ATOM     11  C   UNL     1      17.548  11.332  36.932  0.00  0.00    +0.000 C 
BRANCH  11  12
ATOM     12  C   UNL     1      17.930  10.340  38.216  0.00  0.00    +0.000 C 
ATOM     13  O   UNL     1      18.294   9.148  37.316  0.00  0.00    +0.000 OA
BRANCH  12  15
ATOM     14  C   UNL     1      19.432  12.350  38.053  0.00  0.00    +0.000 C 
ATOM     15  C   UNL     1      19.509  10.866  38.323  0.00  0.00    +0.000 C 
ATOM     16  C   UNL     1      20.309  10.082  37.368  0.00  0.00    +0.000 C 
ATOM     17  C   UNL     1      19.864  10.590  39.777  0.00  0.00    +0.000 C 
ENDBRANCH  12  15
ENDBRANCH  11  12
ENDBRANCH  10  11
ENDBRANCH   1  10
TORSDOF 4
ENDMDL
MODEL 7
REMARK VINA RESULT:      -5.7      1.853      2.814
REMARK  Name = 
REMARK  4 active torsions:
REMARK  status: ('A' for Active; 'I' for Inactive)
REMARK    1  A    between atoms: C_2  and  C_5
REMARK    2  A    between atoms: C_5  and  C_7
REMARK    3  A    between atoms: C_7  and  S_8
REMARK    4  A    between atoms: S_8  and  C_9
REMARK                            x       y       z     vdW  Elec       q    Type
REMARK                         _______ _______ _______ _____ _____    ______ ____
ROOT
ATOM      1  C   UNL     1      16.560  10.780  35.480  0.00  0.00    +0.000 A 
ATOM      2  N   UNL     1      16.939  10.216  34.295  0.00  0.00    +0.000 NA
ATOM      3  C   UNL     1      16.294  10.803  33.301  0.00  0.00    +0.000 A 
ATOM      4  C   UNL     1      16.368  10.554  31.939  0.00  0.00    +0.000 A 
ATOM      5  C   UNL     1      15.585  11.315  31.109  0.00  0.00    +0.000 A 
ATOM      6  C   UNL     1      14.753  12.295  31.612  0.00  0.00    +0.000 A 
ATOM      7  C   UNL     1      14.711  12.507  32.973  0.00  0.00    +0.000 A 
ATOM      8  C   UNL     1      15.487  11.761  33.844  0.00  0.00    +0.000 A 
ATOM      9  N   UNL     1      15.666  11.728  35.174  0.00  0.00    +0.000 NA
ENDROOT
BRANCH   1  10
ATOM     10  S   UNL     1      17.216  10.247  37.018  0.00  0.00    +0.000 S 
BRANCH  10  11
ATOM     11  C   UNL     1      18.994   9.897  36.962  0.00  0.00    +0.000 C 
BRANCH  11  12
ATOM     12  C   UNL     1      19.645  11.114  37.896  0.00  0.00    +0.000 C 
ATOM     13  O   UNL     1      19.301  10.417  39.222  0.00  0.00    +0.000 OA
BRANCH  12  15
ATOM     14  C   UNL     1      22.084  11.695  38.078  0.00  0.00    +0.000 C 
ATOM     15  C   UNL     1      21.192  10.494  37.860  0.00  0.00    +0.000 C 
ATOM     16  C   UNL     1      21.366   9.793  36.578  0.00  0.00    +0.000 C 
ATOM     17  C   UNL     1      21.218   9.565  39.065  0.00  0.00    +0.000 C 
ENDBRANCH  12  15
ENDBRANCH  11  12
ENDBRANCH  10  11
ENDBRANCH   1  10
TORSDOF 4
ENDMDL
MODEL 8
REMARK VINA RESULT:      -5.4     21.067     22.794
REMARK  Name = 
REMARK  4 active torsions:
REMARK  status: ('A' for Active; 'I' for Inactive)
REMARK    1  A    between atoms: C_2  and  C_5
REMARK    2  A    between atoms: C_5  and  C_7
REMARK    3  A    between atoms: C_7  and  S_8
REMARK    4  A    between atoms: S_8  and  C_9
REMARK                            x       y       z     vdW  Elec       q    Type
REMARK                         _______ _______ _______ _____ _____    ______ ____
ROOT
ATOM      1  C   UNL     1      20.774  -9.013  25.357  0.00  0.00    +0.000 A 
ATOM      2  N   UNL     1      20.934  -7.674  25.137  0.00  0.00    +0.000 NA
ATOM      3  C   UNL     1      20.005  -7.004  25.797  0.00  0.00    +0.000 A 
ATOM      4  C   UNL     1      19.790  -5.636  25.862  0.00  0.00    +0.000 A 
ATOM      5  C   UNL     1      18.742  -5.192  26.628  0.00  0.00    +0.000 A 
ATOM      6  C   UNL     1      17.932  -6.076  27.312  0.00  0.00    +0.000 A 
ATOM      7  C   UNL     1      18.183  -7.427  27.218  0.00  0.00    +0.000 A 
ATOM      8  C   UNL     1      19.230  -7.916  26.455  0.00  0.00    +0.000 A 
ATOM      9  N   UNL     1      19.719  -9.134  26.172  0.00  0.00    +0.000 NA
ENDROOT
BRANCH   1  10
ATOM     10  S   UNL     1      21.835 -10.210  24.635  0.00  0.00    +0.000 S 
BRANCH  10  11
ATOM     11  C   UNL     1      22.993  -9.513  23.428  0.00  0.00    +0.000 C 
BRANCH  11  12
ATOM     12  C   UNL     1      24.213  -8.904  24.387  0.00  0.00    +0.000 C 
ATOM     13  O   UNL     1      25.315  -9.690  23.659  0.00  0.00    +0.000 OA
BRANCH  12  15
ATOM     14  C   UNL     1      25.893  -7.599  23.047  0.00  0.00    +0.000 C 
ATOM     15  C   UNL     1      24.440  -7.537  23.461  0.00  0.00    +0.000 C 
ATOM     16  C   UNL     1      24.057  -6.373  24.276  0.00  0.00    +0.000 C 
ATOM     17  C   UNL     1      23.520  -7.771  22.272  0.00  0.00    +0.000 C 
ENDBRANCH  12  15
ENDBRANCH  11  12
ENDBRANCH  10  11
ENDBRANCH   1  10
TORSDOF 4
ENDMDL
MODEL 9
REMARK VINA RESULT:      -5.2     19.140     20.469
REMARK  Name = 
REMARK  4 active torsions:
REMARK  status: ('A' for Active; 'I' for Inactive)
REMARK    1  A    between atoms: C_2  and  C_5
REMARK    2  A    between atoms: C_5  and  C_7
REMARK    3  A    between atoms: C_7  and  S_8
REMARK    4  A    between atoms: S_8  and  C_9
REMARK                            x       y       z     vdW  Elec       q    Type
REMARK                         _______ _______ _______ _____ _____    ______ ____
ROOT
ATOM      1  C   UNL     1      28.701  22.831  26.017  0.00  0.00    +0.000 A 
ATOM      2  N   UNL     1      27.671  23.708  26.210  0.00  0.00    +0.000 NA
ATOM      3  C   UNL     1      27.187  23.559  27.431  0.00  0.00    +0.000 A 
ATOM      4  C   UNL     1      26.147  24.235  28.052  0.00  0.00    +0.000 A 
ATOM      5  C   UNL     1      25.840  23.884  29.341  0.00  0.00    +0.000 A 
ATOM      6  C   UNL     1      26.542  22.895  29.999  0.00  0.00    +0.000 A 
ATOM      7  C   UNL     1      27.567  22.250  29.344  0.00  0.00    +0.000 A 
ATOM      8  C   UNL     1      27.909  22.574  28.042  0.00  0.00    +0.000 A 
ATOM      9  N   UNL     1      28.827  22.145  27.160  0.00  0.00    +0.000 NA
ENDROOT
BRANCH   1  10
ATOM     10  S   UNL     1      29.584  22.748  24.503  0.00  0.00    +0.000 S 
BRANCH  10  11
ATOM     11  C   UNL     1      28.686  23.470  23.104  0.00  0.00    +0.000 C 
BRANCH  11  12
ATOM     12  C   UNL     1      29.715  24.672  22.579  0.00  0.00    +0.000 C 
ATOM     13  O   UNL     1      29.684  24.200  21.117  0.00  0.00    +0.000 OA
BRANCH  12  15
ATOM     14  C   UNL     1      28.184  26.299  23.733  0.00  0.00    +0.000 C 
ATOM     15  C   UNL     1      28.502  25.792  22.345  0.00  0.00    +0.000 C 
ATOM     16  C   UNL     1      27.399  25.118  21.642  0.00  0.00    +0.000 C 
ATOM     17  C   UNL     1      29.183  26.866  21.510  0.00  0.00    +0.000 C 
ENDBRANCH  12  15
ENDBRANCH  11  12
ENDBRANCH  10  11
ENDBRANCH   1  10
TORSDOF 4
ENDMDL
MODEL 10
REMARK VINA RESULT:      -5.2      3.208      4.664
REMARK  Name = 
REMARK  4 active torsions:
REMARK  status: ('A' for Active; 'I' for Inactive)
REMARK    1  A    between atoms: C_2  and  C_5
REMARK    2  A    between atoms: C_5  and  C_7
REMARK    3  A    between atoms: C_7  and  S_8
REMARK    4  A    between atoms: S_8  and  C_9
REMARK                            x       y       z     vdW  Elec       q    Type
REMARK                         _______ _______ _______ _____ _____    ______ ____
ROOT
ATOM      1  C   UNL     1      18.291   9.973  37.132  0.00  0.00    +0.000 A 
ATOM      2  N   UNL     1      17.175  10.760  37.098  0.00  0.00    +0.000 NA
ATOM      3  C   UNL     1      16.769  10.896  35.848  0.00  0.00    +0.000 A 
ATOM      4  C   UNL     1      15.684  11.603  35.350  0.00  0.00    +0.000 A 
ATOM      5  C   UNL     1      15.480  11.583  33.994  0.00  0.00    +0.000 A 
ATOM      6  C   UNL     1      16.323  10.882  33.155  0.00  0.00    +0.000 A 
ATOM      7  C   UNL     1      17.388  10.195  33.693  0.00  0.00    +0.000 A 
ATOM      8  C   UNL     1      17.629  10.189  35.057  0.00  0.00    +0.000 A 
ATOM      9  N   UNL     1      18.549   9.635  35.863  0.00  0.00    +0.000 NA
ENDROOT
BRANCH   1  10
ATOM     10  S   UNL     1      19.108   9.577  38.634  0.00  0.00    +0.000 S 
BRANCH  10  11
ATOM     11  C   UNL     1      18.271   8.286  39.592  0.00  0.00    +0.000 C 
BRANCH  11  12
ATOM     12  C   UNL     1      17.740   9.107  40.942  0.00  0.00    +0.000 C 
ATOM     13  O   UNL     1      16.446   9.587  40.265  0.00  0.00    +0.000 OA
BRANCH  12  15
ATOM     14  C   UNL     1      17.391   7.838  43.084  0.00  0.00    +0.000 C 
ATOM     15  C   UNL     1      17.003   7.776  41.624  0.00  0.00    +0.000 C 
ATOM     16  C   UNL     1      17.460   6.585  40.891  0.00  0.00    +0.000 C 
ATOM     17  C   UNL     1      15.522   8.069  41.437  0.00  0.00    +0.000 C 
ENDBRANCH  12  15
ENDBRANCH  11  12
ENDBRANCH  10  11
ENDBRANCH   1  10
TORSDOF 4
ENDMDL
