MODEL 1
REMARK VINA RESULT:      -5.7      0.000      0.000
REMARK  Name = 
REMARK  4 active torsions:
REMARK  status: ('A' for Active; 'I' for Inactive)
REMARK    1  A    between atoms: C_2  and  C_3
REMARK    2  A    between atoms: C_4  and  C_5
REMARK    3  A    between atoms: N_7  and  C_8
REMARK    4  A    between atoms: C_13  and  C_14
REMARK                            x       y       z     vdW  Elec       q    Type
REMARK                         _______ _______ _______ _____ _____    ______ ____
ROOT
ATOM      1  C   UNL     1      27.961  24.068  26.319  0.00  0.00    +0.000 C 
ATOM      2  O   UNL     1      28.057  25.296  26.136  0.00  0.00    +0.000 OA
ATOM      3  N   UNL     1      28.062  23.232  25.174  0.00  0.00    +0.000 NA
ENDROOT
BRANCH   1   5
ATOM      4  C   UNL     1      28.737  23.255  28.595  0.00  0.00    +0.000 A 
ATOM      5  C   UNL     1      27.750  23.556  27.702  0.00  0.00    +0.000 A 
ATOM      6  C   UNL     1      26.466  23.372  28.157  0.00  0.00    +0.000 A 
ATOM      7  S   UNL     1      26.652  22.810  29.745  0.00  0.00    +0.000 S 
ATOM      8  C   UNL     1      28.346  22.811  29.823  0.00  0.00    +0.000 A 
ATOM      9  C   UNL     1      29.244  22.416  30.975  0.00  0.00    +0.000 C 
BRANCH   4  11
ATOM     10  C   UNL     1      30.658  22.111  27.527  0.00  0.00    +0.000 C 
ATOM     11  C   UNL     1      30.208  23.396  28.231  0.00  0.00    +0.000 C 
ENDBRANCH   4  11
ENDBRANCH   1   5
BRANCH   3  12
ATOM     12  C   UNL     1      28.267  23.826  23.865  0.00  0.00    +0.000 A 
ATOM     13  C   UNL     1      29.567  24.204  23.501  0.00  0.00    +0.000 A 
ATOM     14  C   UNL     1      29.785  24.772  22.277  0.00  0.00    +0.000 A 
ATOM     15  C   UNL     1      28.747  24.979  21.396  0.00  0.00    +0.000 A 
ATOM     16  C   UNL     1      27.483  24.599  21.781  0.00  0.00    +0.000 A 
ATOM     17  C   UNL     1      27.211  24.012  23.024  0.00  0.00    +0.000 A 
BRANCH  17  18
ATOM     18  C   UNL     1      25.861  23.622  23.374  0.00  0.00    +0.000 C 
ATOM     19  N   UNL     1      25.199  22.626  22.564  0.00  0.00    +0.000 NA
ATOM     20  O   UNL     1      25.189  24.065  24.325  0.00  0.00    +0.000 OA
ENDBRANCH  17  18
ENDBRANCH   3  12
TORSDOF 4
ENDMDL
MODEL 2
REMARK VINA RESULT:      -5.7      1.410      2.635
REMARK  Name = 
REMARK  4 active torsions:
REMARK  status: ('A' for Active; 'I' for Inactive)
REMARK    1  A    between atoms: C_2  and  C_3
REMARK    2  A    between atoms: C_4  and  C_5
REMARK    3  A    between atoms: N_7  and  C_8
REMARK    4  A    between atoms: C_13  and  C_14
REMARK                            x       y       z     vdW  Elec       q    Type
REMARK                         _______ _______ _______ _____ _____    ______ ____
ROOT
ATOM      1  C   UNL     1      28.001  23.789  26.506  0.00  0.00    +0.000 C 
ATOM      2  O   UNL     1      27.835  24.999  26.265  0.00  0.00    +0.000 OA
ATOM      3  N   UNL     1      28.246  22.934  25.398  0.00  0.00    +0.000 NA
ENDROOT
BRANCH   1   5
ATOM      4  C   UNL     1      29.006  23.135  28.745  0.00  0.00    +0.000 A 
ATOM      5  C   UNL     1      27.935  23.317  27.917  0.00  0.00    +0.000 A 
ATOM      6  C   UNL     1      26.708  23.042  28.473  0.00  0.00    +0.000 A 
ATOM      7  S   UNL     1      27.055  22.562  30.061  0.00  0.00    +0.000 S 
ATOM      8  C   UNL     1      28.745  22.709  30.012  0.00  0.00    +0.000 A 
ATOM      9  C   UNL     1      29.754  22.438  31.106  0.00  0.00    +0.000 C 
BRANCH   4  11
ATOM     10  C   UNL     1      30.975  22.085  27.666  0.00  0.00    +0.000 C 
ATOM     11  C   UNL     1      30.430  23.386  28.267  0.00  0.00    +0.000 C 
ENDBRANCH   4  11
ENDBRANCH   1   5
BRANCH   3  12
ATOM     12  C   UNL     1      28.290  23.489  24.057  0.00  0.00    +0.000 A 
ATOM     13  C   UNL     1      27.089  23.600  23.343  0.00  0.00    +0.000 A 
ATOM     14  C   UNL     1      27.105  24.112  22.075  0.00  0.00    +0.000 A 
ATOM     15  C   UNL     1      28.282  24.519  21.489  0.00  0.00    +0.000 A 
ATOM     16  C   UNL     1      29.444  24.398  22.214  0.00  0.00    +0.000 A 
ATOM     17  C   UNL     1      29.478  23.881  23.516  0.00  0.00    +0.000 A 
BRANCH  17  18
ATOM     18  C   UNL     1      30.730  23.784  24.236  0.00  0.00    +0.000 C 
ATOM     19  N   UNL     1      31.164  24.916  25.020  0.00  0.00    +0.000 NA
ATOM     20  O   UNL     1      31.496  22.801  24.255  0.00  0.00    +0.000 OA
ENDBRANCH  17  18
ENDBRANCH   3  12
TORSDOF 4
ENDMDL
MODEL 3
REMARK VINA RESULT:      -5.5      2.620      3.801
REMARK  Name = 
REMARK  4 active torsions:
REMARK  status: ('A' for Active; 'I' for Inactive)
REMARK    1  A    between atoms: C_2  and  C_3
REMARK    2  A    between atoms: C_4  and  C_5
REMARK    3  A    between atoms: N_7  and  C_8
REMARK    4  A    between atoms: C_13  and  C_14
REMARK                            x       y       z     vdW  Elec       q    Type
REMARK                         _______ _______ _______ _____ _____    ______ ____
ROOT
ATOM      1  C   UNL     1      26.575  25.015  26.847  0.00  0.00    +0.000 C 
ATOM      2  O   UNL     1      27.570  25.750  26.704  0.00  0.00    +0.000 OA
ATOM      3  N   UNL     1      26.678  23.683  26.365  0.00  0.00    +0.000 NA
ENDROOT
BRANCH   1   5
ATOM      4  C   UNL     1      25.193  25.743  28.849  0.00  0.00    +0.000 A 
ATOM      5  C   UNL     1      25.357  25.565  27.506  0.00  0.00    +0.000 A 
ATOM      6  C   UNL     1      24.292  25.949  26.726  0.00  0.00    +0.000 A 
ATOM      7  S   UNL     1      23.140  26.524  27.828  0.00  0.00    +0.000 S 
ATOM      8  C   UNL     1      24.009  26.275  29.264  0.00  0.00    +0.000 A 
ATOM      9  C   UNL     1      23.593  26.566  30.689  0.00  0.00    +0.000 C 
BRANCH   4  11
ATOM     10  C   UNL     1      26.114  23.867  30.182  0.00  0.00    +0.000 C 
ATOM     11  C   UNL     1      26.281  25.352  29.841  0.00  0.00    +0.000 C 
ENDBRANCH   4  11
ENDBRANCH   1   5
BRANCH   3  12
ATOM     12  C   UNL     1      27.909  23.238  25.735  0.00  0.00    +0.000 A 
ATOM     13  C   UNL     1      28.912  22.691  26.547  0.00  0.00    +0.000 A 
ATOM     14  C   UNL     1      30.083  22.272  25.979  0.00  0.00    +0.000 A 
ATOM     15  C   UNL     1      30.292  22.380  24.622  0.00  0.00    +0.000 A 
ATOM     16  C   UNL     1      29.290  22.922  23.852  0.00  0.00    +0.000 A 
ATOM     17  C   UNL     1      28.073  23.363  24.388  0.00  0.00    +0.000 A 
BRANCH  17  18
ATOM     18  C   UNL     1      27.049  23.917  23.528  0.00  0.00    +0.000 C 
ATOM     19  N   UNL     1      26.089  23.018  22.931  0.00  0.00    +0.000 NA
ATOM     20  O   UNL     1      26.900  25.120  23.239  0.00  0.00    +0.000 OA
ENDBRANCH  17  18
ENDBRANCH   3  12
TORSDOF 4
ENDMDL
MODEL 4
REMARK VINA RESULT:      -5.5      2.600      6.252
REMARK  Name = 
REMARK  4 active torsions:
REMARK  status: ('A' for Active; 'I' for Inactive)
REMARK    1  A    between atoms: C_2  and  C_3
REMARK    2  A    between atoms: C_4  and  C_5
REMARK    3  A    between atoms: N_7  and  C_8
REMARK    4  A    between atoms: C_13  and  C_14
REMARK                            x       y       z     vdW  Elec       q    Type
REMARK                         _______ _______ _______ _____ _____    ______ ____
ROOT
ATOM      1  C   UNL     1      28.032  23.677  27.133  0.00  0.00    +0.000 C 
ATOM      2  O   UNL     1      28.260  24.786  27.651  0.00  0.00    +0.000 OA
ATOM      3  N   UNL     1      28.451  22.527  27.855  0.00  0.00    +0.000 NA
ENDROOT
BRANCH   1   5
ATOM      4  C   UNL     1      27.952  23.751  24.597  0.00  0.00    +0.000 A 
ATOM      5  C   UNL     1      27.346  23.622  25.812  0.00  0.00    +0.000 A 
ATOM      6  C   UNL     1      25.988  23.411  25.774  0.00  0.00    +0.000 A 
ATOM      7  S   UNL     1      25.603  23.397  24.123  0.00  0.00    +0.000 S 
ATOM      8  C   UNL     1      27.157  23.658  23.494  0.00  0.00    +0.000 A 
ATOM      9  C   UNL     1      27.590  23.767  22.049  0.00  0.00    +0.000 C 
BRANCH   4  11
ATOM     10  C   UNL     1      30.168  22.647  24.475  0.00  0.00    +0.000 C 
ATOM     11  C   UNL     1      29.450  24.002  24.479  0.00  0.00    +0.000 C 
ENDBRANCH   4  11
ENDBRANCH   1   5
BRANCH   3  12
ATOM     12  C   UNL     1      29.115  22.683  29.137  0.00  0.00    +0.000 A 
ATOM     13  C   UNL     1      30.496  22.928  29.146  0.00  0.00    +0.000 A 
ATOM     14  C   UNL     1      31.145  23.072  30.340  0.00  0.00    +0.000 A 
ATOM     15  C   UNL     1      30.466  22.978  31.533  0.00  0.00    +0.000 A 
ATOM     16  C   UNL     1      29.113  22.737  31.493  0.00  0.00    +0.000 A 
ATOM     17  C   UNL     1      28.403  22.584  30.294  0.00  0.00    +0.000 A 
BRANCH  17  18
ATOM     18  C   UNL     1      26.976  22.341  30.310  0.00  0.00    +0.000 C 
ATOM     19  N   UNL     1      26.087  23.459  30.522  0.00  0.00    +0.000 NA
ATOM     20  O   UNL     1      26.414  21.239  30.156  0.00  0.00    +0.000 OA
ENDBRANCH  17  18
ENDBRANCH   3  12
TORSDOF 4
ENDMDL
MODEL 5
REMARK VINA RESULT:      -5.5     31.450     32.253
REMARK  Name = 
REMARK  4 active torsions:
REMARK  status: ('A' for Active; 'I' for Inactive)
REMARK    1  A    between atoms: C_2  and  C_3
REMARK    2  A    between atoms: C_4  and  C_5
REMARK    3  A    between atoms: N_7  and  C_8
REMARK    4  A    between atoms: C_13  and  C_14
REMARK                            x       y       z     vdW  Elec       q    Type
REMARK                         _______ _______ _______ _____ _____    ______ ____
ROOT
ATOM      1  C   UNL     1      21.540  -7.191  25.069  0.00  0.00    +0.000 C 
ATOM      2  O   UNL     1      22.193  -8.036  25.708  0.00  0.00    +0.000 OA
ATOM      3  N   UNL     1      22.088  -6.745  23.837  0.00  0.00    +0.000 NA
ENDROOT
BRANCH   1   5
ATOM      4  C   UNL     1      19.126  -7.469  25.806  0.00  0.00    +0.000 A 
ATOM      5  C   UNL     1      20.244  -6.708  25.622  0.00  0.00    +0.000 A 
ATOM      6  C   UNL     1      20.130  -5.392  26.003  0.00  0.00    +0.000 A 
ATOM      7  S   UNL     1      18.544  -5.251  26.583  0.00  0.00    +0.000 S 
ATOM      8  C   UNL     1      18.036  -6.851  26.340  0.00  0.00    +0.000 A 
ATOM      9  C   UNL     1      16.690  -7.476  26.637  0.00  0.00    +0.000 C 
BRANCH   4  11
ATOM     10  C   UNL     1      19.394  -9.777  26.670  0.00  0.00    +0.000 C 
ATOM     11  C   UNL     1      19.096  -8.942  25.419  0.00  0.00    +0.000 C 
ENDBRANCH   4  11
ENDBRANCH   1   5
BRANCH   3  12
ATOM     12  C   UNL     1      23.361  -7.275  23.381  0.00  0.00    +0.000 A 
ATOM     13  C   UNL     1      24.538  -6.667  23.841  0.00  0.00    +0.000 A 
ATOM     14  C   UNL     1      25.749  -7.142  23.420  0.00  0.00    +0.000 A 
ATOM     15  C   UNL     1      25.830  -8.207  22.551  0.00  0.00    +0.000 A 
ATOM     16  C   UNL     1      24.659  -8.782  22.117  0.00  0.00    +0.000 A 
ATOM     17  C   UNL     1      23.395  -8.331  22.521  0.00  0.00    +0.000 A 
BRANCH  17  18
ATOM     18  C   UNL     1      22.194  -8.981  22.039  0.00  0.00    +0.000 C 
ATOM     19  N   UNL     1      21.677 -10.109  22.776  0.00  0.00    +0.000 NA
ATOM     20  O   UNL     1      21.539  -8.662  21.028  0.00  0.00    +0.000 OA
ENDBRANCH  17  18
ENDBRANCH   3  12
TORSDOF 4
ENDMDL
MODEL 6
REMARK VINA RESULT:      -5.5     19.134     21.119
REMARK  Name = 
REMARK  4 active torsions:
REMARK  status: ('A' for Active; 'I' for Inactive)
REMARK    1  A    between atoms: C_2  and  C_3
REMARK    2  A    between atoms: C_4  and  C_5
REMARK    3  A    between atoms: N_7  and  C_8
REMARK    4  A    between atoms: C_13  and  C_14
REMARK                            x       y       z     vdW  Elec       q    Type
REMARK                         _______ _______ _______ _____ _____    ______ ____
ROOT
ATOM      1  C   UNL     1      17.537  10.194  36.797  0.00  0.00    +0.000 C 
ATOM      2  O   UNL     1      17.795   8.979  36.723  0.00  0.00    +0.000 OA
ATOM      3  N   UNL     1      17.991  10.883  37.954  0.00  0.00    +0.000 NA
ENDROOT
BRANCH   1   5
ATOM      4  C   UNL     1      15.786  11.764  35.840  0.00  0.00    +0.000 A 
ATOM      5  C   UNL     1      16.782  10.843  35.689  0.00  0.00    +0.000 A 
ATOM      6  C   UNL     1      17.097  10.523  34.390  0.00  0.00    +0.000 A 
ATOM      7  S   UNL     1      16.048  11.466  33.450  0.00  0.00    +0.000 S 
ATOM      8  C   UNL     1      15.221  12.258  34.702  0.00  0.00    +0.000 A 
ATOM      9  C   UNL     1      14.110  13.280  34.609  0.00  0.00    +0.000 C 
BRANCH   4  11
ATOM     10  C   UNL     1      14.211  11.260  37.685  0.00  0.00    +0.000 C 
ATOM     11  C   UNL     1      15.319  12.211  37.219  0.00  0.00    +0.000 C 
ENDBRANCH   4  11
ENDBRANCH   1   5
BRANCH   3  12
ATOM     12  C   UNL     1      18.719  10.162  38.982  0.00  0.00    +0.000 A 
ATOM     13  C   UNL     1      17.989   9.568  40.021  0.00  0.00    +0.000 A 
ATOM     14  C   UNL     1      18.652   8.890  41.006  0.00  0.00    +0.000 A 
ATOM     15  C   UNL     1      20.024   8.782  40.994  0.00  0.00    +0.000 A 
ATOM     16  C   UNL     1      20.713   9.376  39.963  0.00  0.00    +0.000 A 
ATOM     17  C   UNL     1      20.078  10.080  38.931  0.00  0.00    +0.000 A 
BRANCH  17  18
ATOM     18  C   UNL     1      20.853  10.678  37.864  0.00  0.00    +0.000 C 
ATOM     19  N   UNL     1      21.213   9.860  36.730  0.00  0.00    +0.000 NA
ATOM     20  O   UNL     1      21.255  11.857  37.816  0.00  0.00    +0.000 OA
ENDBRANCH  17  18
ENDBRANCH   3  12
TORSDOF 4
ENDMDL
MODEL 7
REMARK VINA RESULT:      -5.4     32.247     33.261
REMARK  Name = 
REMARK  4 active torsions:
REMARK  status: ('A' for Active; 'I' for Inactive)
REMARK    1  A    between atoms: C_2  and  C_3
REMARK    2  A    between atoms: C_4  and  C_5
REMARK    3  A    between atoms: N_7  and  C_8
REMARK    4  A    between atoms: C_13  and  C_14
REMARK                            x       y       z     vdW  Elec       q    Type
REMARK                         _______ _______ _______ _____ _____    ______ ____
ROOT
ATOM      1  C   UNL     1      21.390  -8.782  24.523  0.00  0.00    +0.000 C 
ATOM      2  O   UNL     1      20.314  -8.843  23.899  0.00  0.00    +0.000 OA
ATOM      3  N   UNL     1      21.378  -8.104  25.771  0.00  0.00    +0.000 NA
ENDROOT
BRANCH   1   5
ATOM      4  C   UNL     1      23.575  -8.763  23.230  0.00  0.00    +0.000 A 
ATOM      5  C   UNL     1      22.605  -9.413  23.935  0.00  0.00    +0.000 A 
ATOM      6  C   UNL     1      22.806 -10.762  24.108  0.00  0.00    +0.000 A 
ATOM      7  S   UNL     1      24.274 -11.080  23.323  0.00  0.00    +0.000 S 
ATOM      8  C   UNL     1      24.622  -9.511  22.781  0.00  0.00    +0.000 A 
ATOM      9  C   UNL     1      25.812  -9.023  21.984  0.00  0.00    +0.000 C 
BRANCH   4  11
ATOM     10  C   UNL     1      24.206  -6.518  24.071  0.00  0.00    +0.000 C 
ATOM     11  C   UNL     1      23.484  -7.270  22.945  0.00  0.00    +0.000 C 
ENDBRANCH   4  11
ENDBRANCH   1   5
BRANCH   3  12
ATOM     12  C   UNL     1      20.142  -7.519  26.260  0.00  0.00    +0.000 A 
ATOM     13  C   UNL     1      19.822  -6.212  25.864  0.00  0.00    +0.000 A 
ATOM     14  C   UNL     1      18.668  -5.636  26.318  0.00  0.00    +0.000 A 
ATOM     15  C   UNL     1      17.817  -6.318  27.157  0.00  0.00    +0.000 A 
ATOM     16  C   UNL     1      18.158  -7.597  27.529  0.00  0.00    +0.000 A 
ATOM     17  C   UNL     1      19.328  -8.230  27.089  0.00  0.00    +0.000 A 
BRANCH  17  18
ATOM     18  C   UNL     1      19.633  -9.583  27.505  0.00  0.00    +0.000 C 
ATOM     19  N   UNL     1      19.100 -10.679  26.730  0.00  0.00    +0.000 NA
ATOM     20  O   UNL     1      20.325  -9.914  28.486  0.00  0.00    +0.000 OA
ENDBRANCH  17  18
ENDBRANCH   3  12
TORSDOF 4
ENDMDL
MODEL 8
REMARK VINA RESULT:      -5.4     19.098     20.645
REMARK  Name = 
REMARK  4 active torsions:
REMARK  status: ('A' for Active; 'I' for Inactive)
REMARK    1  A    between atoms: C_2  and  C_3
REMARK    2  A    between atoms: C_4  and  C_5
REMARK    3  A    between atoms: N_7  and  C_8
REMARK    4  A    between atoms: C_13  and  C_14
REMARK                            x       y       z     vdW  Elec       q    Type
REMARK                         _______ _______ _______ _____ _____    ______ ____
ROOT
ATOM      1  C   UNL     1      18.232  10.250  37.168  0.00  0.00    +0.000 C 
ATOM      2  O   UNL     1      18.401   9.054  36.867  0.00  0.00    +0.000 OA
ATOM      3  N   UNL     1      19.364  10.966  37.641  0.00  0.00    +0.000 NA
ENDROOT
BRANCH   1   5
ATOM      4  C   UNL     1      16.402  11.464  35.894  0.00  0.00    +0.000 A 
ATOM      5  C   UNL     1      16.877  10.850  37.016  0.00  0.00    +0.000 A 
ATOM      6  C   UNL     1      15.997  10.787  38.071  0.00  0.00    +0.000 A 
ATOM      7  S   UNL     1      14.593  11.549  37.503  0.00  0.00    +0.000 S 
ATOM      8  C   UNL     1      15.126  11.941  35.941  0.00  0.00    +0.000 A 
ATOM      9  C   UNL     1      14.381  12.654  34.834  0.00  0.00    +0.000 C 
BRANCH   4  11
ATOM     10  C   UNL     1      17.077  10.378  33.771  0.00  0.00    +0.000 C 
ATOM     11  C   UNL     1      17.264  11.621  34.649  0.00  0.00    +0.000 C 
ENDBRANCH   4  11
ENDBRANCH   1   5
BRANCH   3  12
ATOM     12  C   UNL     1      20.645  10.292  37.756  0.00  0.00    +0.000 A 
ATOM     13  C   UNL     1      21.413  10.119  36.595  0.00  0.00    +0.000 A 
ATOM     14  C   UNL     1      22.619   9.481  36.675  0.00  0.00    +0.000 A 
ATOM     15  C   UNL     1      23.092   9.006  37.878  0.00  0.00    +0.000 A 
ATOM     16  C   UNL     1      22.317   9.190  38.999  0.00  0.00    +0.000 A 
ATOM     17  C   UNL     1      21.075   9.839  38.967  0.00  0.00    +0.000 A 
BRANCH  17  18
ATOM     18  C   UNL     1      20.305  10.013  40.180  0.00  0.00    +0.000 C 
ATOM     19  N   UNL     1      19.323   9.012  40.525  0.00  0.00    +0.000 NA
ATOM     20  O   UNL     1      20.401  10.961  40.984  0.00  0.00    +0.000 OA
ENDBRANCH  17  18
ENDBRANCH   3  12
TORSDOF 4
ENDMDL
MODEL 9
REMARK VINA RESULT:      -5.4      2.840      4.511
REMARK  Name = 
REMARK  4 active torsions:
REMARK  status: ('A' for Active; 'I' for Inactive)
REMARK    1  A    between atoms: C_2  and  C_3
REMARK    2  A    between atoms: C_4  and  C_5
REMARK    3  A    between atoms: N_7  and  C_8
REMARK    4  A    between atoms: C_13  and  C_14
REMARK                            x       y       z     vdW  Elec       q    Type
REMARK                         _______ _______ _______ _____ _____    ______ ____
ROOT
ATOM      1  C   UNL     1      26.618  25.050  26.902  0.00  0.00    +0.000 C 
ATOM      2  O   UNL     1      27.622  25.772  26.760  0.00  0.00    +0.000 OA
ATOM      3  N   UNL     1      26.700  23.720  26.409  0.00  0.00    +0.000 NA
ENDROOT
BRANCH   1   5
ATOM      4  C   UNL     1      24.283  26.045  26.938  0.00  0.00    +0.000 A 
ATOM      5  C   UNL     1      25.412  25.612  27.571  0.00  0.00    +0.000 A 
ATOM      6  C   UNL     1      25.391  25.705  28.943  0.00  0.00    +0.000 A 
ATOM      7  S   UNL     1      23.871  26.363  29.304  0.00  0.00    +0.000 S 
ATOM      8  C   UNL     1      23.274  26.516  27.724  0.00  0.00    +0.000 A 
ATOM      9  C   UNL     1      21.935  27.048  27.262  0.00  0.00    +0.000 C 
BRANCH   4  11
ATOM     10  C   UNL     1      24.668  27.355  24.869  0.00  0.00    +0.000 C 
ATOM     11  C   UNL     1      24.162  26.016  25.421  0.00  0.00    +0.000 C 
ENDBRANCH   4  11
ENDBRANCH   1   5
BRANCH   3  12
ATOM     12  C   UNL     1      27.922  23.264  25.769  0.00  0.00    +0.000 A 
ATOM     13  C   UNL     1      28.930  22.715  26.575  0.00  0.00    +0.000 A 
ATOM     14  C   UNL     1      30.092  22.285  25.998  0.00  0.00    +0.000 A 
ATOM     15  C   UNL     1      30.288  22.383  24.638  0.00  0.00    +0.000 A 
ATOM     16  C   UNL     1      29.282  22.925  23.875  0.00  0.00    +0.000 A 
ATOM     17  C   UNL     1      28.073  23.378  24.420  0.00  0.00    +0.000 A 
BRANCH  17  18
ATOM     18  C   UNL     1      27.043  23.932  23.566  0.00  0.00    +0.000 C 
ATOM     19  N   UNL     1      26.063  23.038  22.998  0.00  0.00    +0.000 NA
ATOM     20  O   UNL     1      26.906  25.133  23.260  0.00  0.00    +0.000 OA
ENDBRANCH  17  18
ENDBRANCH   3  12
TORSDOF 4
ENDMDL
MODEL 10
REMARK VINA RESULT:      -5.4      1.930      2.284
REMARK  Name = 
REMARK  4 active torsions:
REMARK  status: ('A' for Active; 'I' for Inactive)
REMARK    1  A    between atoms: C_2  and  C_3
REMARK    2  A    between atoms: C_4  and  C_5
REMARK    3  A    between atoms: N_7  and  C_8
REMARK    4  A    between atoms: C_13  and  C_14
REMARK                            x       y       z     vdW  Elec       q    Type
REMARK                         _______ _______ _______ _____ _____    ______ ____
ROOT
ATOM      1  C   UNL     1      27.217  25.198  26.138  0.00  0.00    +0.000 C 
ATOM      2  O   UNL     1      28.401  25.531  25.947  0.00  0.00    +0.000 OA
ATOM      3  N   UNL     1      26.312  25.369  25.057  0.00  0.00    +0.000 NA
ENDROOT
BRANCH   1   5
ATOM      4  C   UNL     1      27.072  23.378  27.904  0.00  0.00    +0.000 A 
ATOM      5  C   UNL     1      26.825  24.647  27.466  0.00  0.00    +0.000 A 
ATOM      6  C   UNL     1      26.170  25.462  28.359  0.00  0.00    +0.000 A 
ATOM      7  S   UNL     1      25.923  24.488  29.725  0.00  0.00    +0.000 S 
ATOM      8  C   UNL     1      26.647  23.062  29.159  0.00  0.00    +0.000 A 
ATOM      9  C   UNL     1      26.802  21.732  29.863  0.00  0.00    +0.000 C 
BRANCH   4  11
ATOM     10  C   UNL     1      29.277  22.398  27.340  0.00  0.00    +0.000 C 
ATOM     11  C   UNL     1      27.778  22.358  27.022  0.00  0.00    +0.000 C 
ENDBRANCH   4  11
ENDBRANCH   1   5
BRANCH   3  12
ATOM     12  C   UNL     1      26.789  25.916  23.799  0.00  0.00    +0.000 A 
ATOM     13  C   UNL     1      26.863  27.310  23.664  0.00  0.00    +0.000 A 
ATOM     14  C   UNL     1      27.301  27.850  22.487  0.00  0.00    +0.000 A 
ATOM     15  C   UNL     1      27.671  27.046  21.432  0.00  0.00    +0.000 A 
ATOM     16  C   UNL     1      27.587  25.683  21.594  0.00  0.00    +0.000 A 
ATOM     17  C   UNL     1      27.145  25.084  22.780  0.00  0.00    +0.000 A 
BRANCH  17  18
ATOM     18  C   UNL     1      27.086  23.642  22.899  0.00  0.00    +0.000 C 
ATOM     19  N   UNL     1      25.851  22.972  22.566  0.00  0.00    +0.000 NA
ATOM     20  O   UNL     1      28.013  22.894  23.266  0.00  0.00    +0.000 OA
ENDBRANCH  17  18
ENDBRANCH   3  12
TORSDOF 4
ENDMDL
