MODEL 1
REMARK VINA RESULT:      -8.7      0.000      0.000
REMARK  Name = 
REMARK  6 active torsions:
REMARK  status: ('A' for Active; 'I' for Inactive)
REMARK    1  A    between atoms: O_2  and  C_3
REMARK    2  A    between atoms: C_6  and  N_7
REMARK    3  A    between atoms: C_8  and  C_10
REMARK    4  A    between atoms: C_10  and  C_11
REMARK    5  A    between atoms: C_11  and  N_12
REMARK    6  A    between atoms: C_14  and  C_15
REMARK                            x       y       z     vdW  Elec       q    Type
REMARK                         _______ _______ _______ _____ _____    ______ ____
ROOT
ATOM      1  N   UNL     1      36.194   2.024  15.046  0.00  0.00    +0.000 N 
ATOM      2  N   UNL     1      37.184   1.261  14.539  0.00  0.00    +0.000 NA
ATOM      3  C   UNL     1      37.275  -0.024  14.884  0.00  0.00    +0.000 A 
ATOM      4  C   UNL     1      36.372  -0.602  15.757  0.00  0.00    +0.000 A 
ATOM      5  C   UNL     1      36.481  -1.921  16.101  0.00  0.00    +0.000 A 
ATOM      6  C   UNL     1      35.567  -2.467  16.973  0.00  0.00    +0.000 A 
ATOM      7  C   UNL     1      34.556  -1.688  17.490  0.00  0.00    +0.000 A 
ATOM      8  C   UNL     1      34.410  -0.358  17.171  0.00  0.00    +0.000 A 
ATOM      9  C   UNL     1      35.355   0.156  16.285  0.00  0.00    +0.000 A 
ATOM     10  C   UNL     1      35.299   1.496  15.894  0.00  0.00    +0.000 A 
ATOM     11  O   UNL     1      34.347   2.161  16.394  0.00  0.00    +0.000 OA
ENDROOT
BRANCH   3  12
ATOM     12  C   UNL     1      38.353  -0.868  14.337  0.00  0.00    +0.000 A 
ATOM     13  C   UNL     1      39.554  -0.958  14.993  0.00  0.00    +0.000 A 
ATOM     14  C   UNL     1      40.600  -1.746  14.509  0.00  0.00    +0.000 A 
ATOM     15  C   UNL     1      40.434  -2.460  13.340  0.00  0.00    +0.000 A 
ATOM     16  C   UNL     1      41.565  -3.297  12.840  0.00  0.00    +0.000 C 
ATOM     17  C   UNL     1      39.230  -2.371  12.682  0.00  0.00    +0.000 A 
ATOM     18  C   UNL     1      38.200  -1.586  13.170  0.00  0.00    +0.000 A 
ENDBRANCH   3  12
BRANCH   1  19
ATOM     19  C   UNL     1      36.133   3.427  14.706  0.00  0.00    +0.000 C 
BRANCH  19  20
ATOM     20  C   UNL     1      37.396   4.097  14.723  0.00  0.00    +0.000 C 
BRANCH  20  22
ATOM     21  N   UNL     1      38.615   5.773  16.126  0.00  0.00    +0.000 NA
ATOM     22  C   UNL     1      38.171   4.410  15.885  0.00  0.00    +0.000 C 
ATOM     23  O   UNL     1      38.517   3.586  16.747  0.00  0.00    +0.000 OA
BRANCH  21  27
ATOM     24  C   UNL     1      40.932   6.602  19.588  0.00  0.00    +0.000 A 
ATOM     25  C   UNL     1      41.517   6.406  18.356  0.00  0.00    +0.000 A 
ATOM     26  C   UNL     1      40.767   6.137  17.231  0.00  0.00    +0.000 A 
ATOM     27  C   UNL     1      39.393   6.054  17.303  0.00  0.00    +0.000 A 
ATOM     28  C   UNL     1      38.796   6.246  18.521  0.00  0.00    +0.000 A 
ATOM     29  C   UNL     1      39.558   6.515  19.638  0.00  0.00    +0.000 A 
BRANCH  24  31
ATOM     30  C   UNL     1      42.935   6.236  20.964  0.00  0.00    +0.000 C 
ATOM     31  O   UNL     1      41.708   6.874  20.719  0.00  0.00    +0.000 OA
ENDBRANCH  24  31
ENDBRANCH  21  27
ENDBRANCH  20  22
ENDBRANCH  19  20
ENDBRANCH   1  19
TORSDOF 6
ENDMDL
MODEL 2
REMARK VINA RESULT:      -8.5      1.762      2.069
REMARK  Name = 
REMARK  6 active torsions:
REMARK  status: ('A' for Active; 'I' for Inactive)
REMARK    1  A    between atoms: O_2  and  C_3
REMARK    2  A    between atoms: C_6  and  N_7
REMARK    3  A    between atoms: C_8  and  C_10
REMARK    4  A    between atoms: C_10  and  C_11
REMARK    5  A    between atoms: C_11  and  N_12
REMARK    6  A    between atoms: C_14  and  C_15
REMARK                            x       y       z     vdW  Elec       q    Type
REMARK                         _______ _______ _______ _____ _____    ______ ____
ROOT
ATOM      1  N   UNL     1      36.278   0.580  16.161  0.00  0.00    +0.000 N 
ATOM      2  N   UNL     1      37.135   0.022  15.283  0.00  0.00    +0.000 NA
ATOM      3  C   UNL     1      37.910  -0.993  15.664  0.00  0.00    +0.000 A 
ATOM      4  C   UNL     1      37.857  -1.496  16.951  0.00  0.00    +0.000 A 
ATOM      5  C   UNL     1      38.660  -2.539  17.327  0.00  0.00    +0.000 A 
ATOM      6  C   UNL     1      38.585  -3.016  18.615  0.00  0.00    +0.000 A 
ATOM      7  C   UNL     1      37.708  -2.447  19.512  0.00  0.00    +0.000 A 
ATOM      8  C   UNL     1      36.883  -1.398  19.176  0.00  0.00    +0.000 A 
ATOM      9  C   UNL     1      36.990  -0.944  17.862  0.00  0.00    +0.000 A 
ATOM     10  C   UNL     1      36.199   0.117  17.417  0.00  0.00    +0.000 A 
ATOM     11  O   UNL     1      35.408   0.595  18.280  0.00  0.00    +0.000 OA
ENDROOT
BRANCH   3  12
ATOM     12  C   UNL     1      38.852  -1.612  14.713  0.00  0.00    +0.000 A 
ATOM     13  C   UNL     1      40.201  -1.407  14.852  0.00  0.00    +0.000 A 
ATOM     14  C   UNL     1      41.126  -1.974  13.974  0.00  0.00    +0.000 A 
ATOM     15  C   UNL     1      40.686  -2.765  12.933  0.00  0.00    +0.000 A 
ATOM     16  C   UNL     1      41.692  -3.362  12.005  0.00  0.00    +0.000 C 
ATOM     17  C   UNL     1      39.334  -2.971  12.793  0.00  0.00    +0.000 A 
ATOM     18  C   UNL     1      38.425  -2.404  13.669  0.00  0.00    +0.000 A 
ENDBRANCH   3  12
BRANCH   1  19
ATOM     19  C   UNL     1      35.479   1.712  15.752  0.00  0.00    +0.000 C 
BRANCH  19  20
ATOM     20  C   UNL     1      36.197   2.716  15.030  0.00  0.00    +0.000 C 
BRANCH  20  22
ATOM     21  N   UNL     1      38.068   3.474  16.509  0.00  0.00    +0.000 NA
ATOM     22  C   UNL     1      36.974   3.775  15.601  0.00  0.00    +0.000 C 
ATOM     23  O   UNL     1      36.791   4.983  15.383  0.00  0.00    +0.000 OA
BRANCH  21  27
ATOM     24  C   UNL     1      40.328   6.684  18.131  0.00  0.00    +0.000 A 
ATOM     25  C   UNL     1      40.423   6.331  16.803  0.00  0.00    +0.000 A 
ATOM     26  C   UNL     1      39.690   5.291  16.274  0.00  0.00    +0.000 A 
ATOM     27  C   UNL     1      38.830   4.560  17.066  0.00  0.00    +0.000 A 
ATOM     28  C   UNL     1      38.724   4.898  18.389  0.00  0.00    +0.000 A 
ATOM     29  C   UNL     1      39.463   5.941  18.906  0.00  0.00    +0.000 A 
BRANCH  24  31
ATOM     30  C   UNL     1      40.697   8.440  19.811  0.00  0.00    +0.000 C 
ATOM     31  O   UNL     1      41.078   7.742  18.652  0.00  0.00    +0.000 OA
ENDBRANCH  24  31
ENDBRANCH  21  27
ENDBRANCH  20  22
ENDBRANCH  19  20
ENDBRANCH   1  19
TORSDOF 6
ENDMDL
MODEL 3
REMARK VINA RESULT:      -8.2      3.863      5.478
REMARK  Name = 
REMARK  6 active torsions:
REMARK  status: ('A' for Active; 'I' for Inactive)
REMARK    1  A    between atoms: O_2  and  C_3
REMARK    2  A    between atoms: C_6  and  N_7
REMARK    3  A    between atoms: C_8  and  C_10
REMARK    4  A    between atoms: C_10  and  C_11
REMARK    5  A    between atoms: C_11  and  N_12
REMARK    6  A    between atoms: C_14  and  C_15
REMARK                            x       y       z     vdW  Elec       q    Type
REMARK                         _______ _______ _______ _____ _____    ______ ____
ROOT
ATOM      1  N   UNL     1      36.411   0.431  17.150  0.00  0.00    +0.000 N 
ATOM      2  N   UNL     1      37.130  -0.015  16.100  0.00  0.00    +0.000 NA
ATOM      3  C   UNL     1      37.895  -1.099  16.231  0.00  0.00    +0.000 A 
ATOM      4  C   UNL     1      37.970  -1.787  17.428  0.00  0.00    +0.000 A 
ATOM      5  C   UNL     1      38.761  -2.898  17.545  0.00  0.00    +0.000 A 
ATOM      6  C   UNL     1      38.816  -3.561  18.749  0.00  0.00    +0.000 A 
ATOM      7  C   UNL     1      38.080  -3.107  19.822  0.00  0.00    +0.000 A 
ATOM      8  C   UNL     1      37.273  -1.994  19.747  0.00  0.00    +0.000 A 
ATOM      9  C   UNL     1      37.245  -1.352  18.510  0.00  0.00    +0.000 A 
ATOM     10  C   UNL     1      36.459  -0.213  18.325  0.00  0.00    +0.000 A 
ATOM     11  O   UNL     1      35.800   0.154  19.341  0.00  0.00    +0.000 OA
ENDROOT
BRANCH   3  12
ATOM     12  C   UNL     1      38.686  -1.596  15.090  0.00  0.00    +0.000 A 
ATOM     13  C   UNL     1      39.994  -1.211  14.943  0.00  0.00    +0.000 A 
ATOM     14  C   UNL     1      40.778  -1.658  13.878  0.00  0.00    +0.000 A 
ATOM     15  C   UNL     1      40.235  -2.512  12.941  0.00  0.00    +0.000 A 
ATOM     16  C   UNL     1      41.090  -2.979  11.809  0.00  0.00    +0.000 C 
ATOM     17  C   UNL     1      38.924  -2.900  13.087  0.00  0.00    +0.000 A 
ATOM     18  C   UNL     1      38.155  -2.450  14.147  0.00  0.00    +0.000 A 
ENDBRANCH   3  12
BRANCH   1  19
ATOM     19  C   UNL     1      35.624   1.635  17.012  0.00  0.00    +0.000 C 
BRANCH  19  20
ATOM     20  C   UNL     1      36.261   2.678  16.271  0.00  0.00    +0.000 C 
BRANCH  20  22
ATOM     21  N   UNL     1      36.261   4.710  14.809  0.00  0.00    +0.000 NA
ATOM     22  C   UNL     1      35.675   3.442  15.212  0.00  0.00    +0.000 C 
ATOM     23  O   UNL     1      34.663   3.108  14.575  0.00  0.00    +0.000 OA
BRANCH  21  27
ATOM     24  C   UNL     1      34.467   6.899  11.642  0.00  0.00    +0.000 A 
ATOM     25  C   UNL     1      35.593   6.130  11.443  0.00  0.00    +0.000 A 
ATOM     26  C   UNL     1      36.177   5.418  12.469  0.00  0.00    +0.000 A 
ATOM     27  C   UNL     1      35.648   5.454  13.741  0.00  0.00    +0.000 A 
ATOM     28  C   UNL     1      34.528   6.214  13.956  0.00  0.00    +0.000 A 
ATOM     29  C   UNL     1      33.955   6.921  12.921  0.00  0.00    +0.000 A 
BRANCH  24  31
ATOM     30  C   UNL     1      34.036   7.235   9.246  0.00  0.00    +0.000 C 
ATOM     31  O   UNL     1      33.888   7.615  10.590  0.00  0.00    +0.000 OA
ENDBRANCH  24  31
ENDBRANCH  21  27
ENDBRANCH  20  22
ENDBRANCH  19  20
ENDBRANCH   1  19
TORSDOF 6
ENDMDL
MODEL 4
REMARK VINA RESULT:      -8.1      2.052      3.791
REMARK  Name = 
REMARK  6 active torsions:
REMARK  status: ('A' for Active; 'I' for Inactive)
REMARK    1  A    between atoms: O_2  and  C_3
REMARK    2  A    between atoms: C_6  and  N_7
REMARK    3  A    between atoms: C_8  and  C_10
REMARK    4  A    between atoms: C_10  and  C_11
REMARK    5  A    between atoms: C_11  and  N_12
REMARK    6  A    between atoms: C_14  and  C_15
REMARK                            x       y       z     vdW  Elec       q    Type
REMARK                         _______ _______ _______ _____ _____    ______ ____
ROOT
ATOM      1  N   UNL     1      37.851   2.010  14.953  0.00  0.00    +0.000 N 
ATOM      2  N   UNL     1      37.610   0.749  15.365  0.00  0.00    +0.000 NA
ATOM      3  C   UNL     1      38.530  -0.198  15.182  0.00  0.00    +0.000 A 
ATOM      4  C   UNL     1      39.740   0.082  14.574  0.00  0.00    +0.000 A 
ATOM      5  C   UNL     1      40.674  -0.902  14.393  0.00  0.00    +0.000 A 
ATOM      6  C   UNL     1      41.868  -0.592  13.783  0.00  0.00    +0.000 A 
ATOM      7  C   UNL     1      42.115   0.696  13.363  0.00  0.00    +0.000 A 
ATOM      8  C   UNL     1      41.204   1.714  13.525  0.00  0.00    +0.000 A 
ATOM      9  C   UNL     1      40.008   1.360  14.147  0.00  0.00    +0.000 A 
ATOM     10  C   UNL     1      39.014   2.317  14.361  0.00  0.00    +0.000 A 
ATOM     11  O   UNL     1      39.298   3.483  13.961  0.00  0.00    +0.000 OA
ENDROOT
BRANCH   3  12
ATOM     12  C   UNL     1      38.279  -1.580  15.629  0.00  0.00    +0.000 A 
ATOM     13  C   UNL     1      38.758  -2.007  16.841  0.00  0.00    +0.000 A 
ATOM     14  C   UNL     1      38.542  -3.307  17.302  0.00  0.00    +0.000 A 
ATOM     15  C   UNL     1      37.828  -4.197  16.527  0.00  0.00    +0.000 A 
ATOM     16  C   UNL     1      37.608  -5.583  17.039  0.00  0.00    +0.000 C 
ATOM     17  C   UNL     1      37.346  -3.770  15.313  0.00  0.00    +0.000 A 
ATOM     18  C   UNL     1      37.566  -2.479  14.865  0.00  0.00    +0.000 A 
ENDBRANCH   3  12
BRANCH   1  19
ATOM     19  C   UNL     1      36.827   3.017  15.111  0.00  0.00    +0.000 C 
BRANCH  19  20
ATOM     20  C   UNL     1      36.685   3.515  16.443  0.00  0.00    +0.000 C 
BRANCH  20  22
ATOM     21  N   UNL     1      38.460   5.229  16.860  0.00  0.00    +0.000 NA
ATOM     22  C   UNL     1      37.733   4.038  17.266  0.00  0.00    +0.000 C 
ATOM     23  O   UNL     1      38.097   3.546  18.346  0.00  0.00    +0.000 OA
BRANCH  21  27
ATOM     24  C   UNL     1      41.538   6.710  19.385  0.00  0.00    +0.000 A 
ATOM     25  C   UNL     1      40.272   6.448  19.863  0.00  0.00    +0.000 A 
ATOM     26  C   UNL     1      39.272   5.967  19.046  0.00  0.00    +0.000 A 
ATOM     27  C   UNL     1      39.507   5.730  17.709  0.00  0.00    +0.000 A 
ATOM     28  C   UNL     1      40.760   5.986  17.216  0.00  0.00    +0.000 A 
ATOM     29  C   UNL     1      41.752   6.467  18.045  0.00  0.00    +0.000 A 
BRANCH  24  31
ATOM     30  C   UNL     1      43.064   6.445  21.293  0.00  0.00    +0.000 C 
ATOM     31  O   UNL     1      42.541   7.197  20.227  0.00  0.00    +0.000 OA
ENDBRANCH  24  31
ENDBRANCH  21  27
ENDBRANCH  20  22
ENDBRANCH  19  20
ENDBRANCH   1  19
TORSDOF 6
ENDMDL
MODEL 5
REMARK VINA RESULT:      -8.1      1.484      1.986
REMARK  Name = 
REMARK  6 active torsions:
REMARK  status: ('A' for Active; 'I' for Inactive)
REMARK    1  A    between atoms: O_2  and  C_3
REMARK    2  A    between atoms: C_6  and  N_7
REMARK    3  A    between atoms: C_8  and  C_10
REMARK    4  A    between atoms: C_10  and  C_11
REMARK    5  A    between atoms: C_11  and  N_12
REMARK    6  A    between atoms: C_14  and  C_15
REMARK                            x       y       z     vdW  Elec       q    Type
REMARK                         _______ _______ _______ _____ _____    ______ ____
ROOT
ATOM      1  N   UNL     1      36.708   3.316  13.450  0.00  0.00    +0.000 N 
ATOM      2  N   UNL     1      37.611   2.331  13.268  0.00  0.00    +0.000 NA
ATOM      3  C   UNL     1      37.582   1.249  14.047  0.00  0.00    +0.000 A 
ATOM      4  C   UNL     1      36.639   1.108  15.048  0.00  0.00    +0.000 A 
ATOM      5  C   UNL     1      36.623  -0.008  15.840  0.00  0.00    +0.000 A 
ATOM      6  C   UNL     1      35.672  -0.118  16.828  0.00  0.00    +0.000 A 
ATOM      7  C   UNL     1      34.749   0.887  17.014  0.00  0.00    +0.000 A 
ATOM      8  C   UNL     1      34.730   2.025  16.241  0.00  0.00    +0.000 A 
ATOM      9  C   UNL     1      35.708   2.098  15.251  0.00  0.00    +0.000 A 
ATOM     10  C   UNL     1      35.778   3.211  14.411  0.00  0.00    +0.000 A 
ATOM     11  O   UNL     1      34.903   4.099  14.622  0.00  0.00    +0.000 OA
ENDROOT
BRANCH   3  12
ATOM     12  C   UNL     1      38.563   0.166  13.857  0.00  0.00    +0.000 A 
ATOM     13  C   UNL     1      38.316  -0.834  12.951  0.00  0.00    +0.000 A 
ATOM     14  C   UNL     1      39.218  -1.878  12.741  0.00  0.00    +0.000 A 
ATOM     15  C   UNL     1      40.397  -1.917  13.457  0.00  0.00    +0.000 A 
ATOM     16  C   UNL     1      41.349  -3.042  13.217  0.00  0.00    +0.000 C 
ATOM     17  C   UNL     1      40.647  -0.915  14.365  0.00  0.00    +0.000 A 
ATOM     18  C   UNL     1      39.745   0.115  14.566  0.00  0.00    +0.000 A 
ENDBRANCH   3  12
BRANCH   1  19
ATOM     19  C   UNL     1      36.780   4.505  12.634  0.00  0.00    +0.000 C 
BRANCH  19  20
ATOM     20  C   UNL     1      37.840   5.400  12.981  0.00  0.00    +0.000 C 
BRANCH  20  22
ATOM     21  N   UNL     1      39.222   4.966  15.022  0.00  0.00    +0.000 NA
ATOM     22  C   UNL     1      38.239   5.764  14.307  0.00  0.00    +0.000 C 
ATOM     23  O   UNL     1      37.803   6.742  14.934  0.00  0.00    +0.000 OA
BRANCH  21  27
ATOM     24  C   UNL     1      40.364   6.131  18.943  0.00  0.00    +0.000 A 
ATOM     25  C   UNL     1      41.112   6.477  17.838  0.00  0.00    +0.000 A 
ATOM     26  C   UNL     1      40.742   6.102  16.565  0.00  0.00    +0.000 A 
ATOM     27  C   UNL     1      39.602   5.357  16.353  0.00  0.00    +0.000 A 
ATOM     28  C   UNL     1      38.848   5.003  17.441  0.00  0.00    +0.000 A 
ATOM     29  C   UNL     1      39.228   5.386  18.709  0.00  0.00    +0.000 A 
BRANCH  24  31
ATOM     30  C   UNL     1      42.101   6.651  20.602  0.00  0.00    +0.000 C 
ATOM     31  O   UNL     1      40.753   6.521  20.228  0.00  0.00    +0.000 OA
ENDBRANCH  24  31
ENDBRANCH  21  27
ENDBRANCH  20  22
ENDBRANCH  19  20
ENDBRANCH   1  19
TORSDOF 6
ENDMDL
MODEL 6
REMARK VINA RESULT:      -7.9     23.243     27.067
REMARK  Name = 
REMARK  6 active torsions:
REMARK  status: ('A' for Active; 'I' for Inactive)
REMARK    1  A    between atoms: O_2  and  C_3
REMARK    2  A    between atoms: C_6  and  N_7
REMARK    3  A    between atoms: C_8  and  C_10
REMARK    4  A    between atoms: C_10  and  C_11
REMARK    5  A    between atoms: C_11  and  N_12
REMARK    6  A    between atoms: C_14  and  C_15
REMARK                            x       y       z     vdW  Elec       q    Type
REMARK                         _______ _______ _______ _____ _____    ______ ____
ROOT
ATOM      1  N   UNL     1      12.250   0.711  26.937  0.00  0.00    +0.000 N 
ATOM      2  N   UNL     1      12.199  -0.584  26.564  0.00  0.00    +0.000 NA
ATOM      3  C   UNL     1      11.168  -1.028  25.846  0.00  0.00    +0.000 A 
ATOM      4  C   UNL     1      10.137  -0.188  25.468  0.00  0.00    +0.000 A 
ATOM      5  C   UNL     1       9.085  -0.660  24.732  0.00  0.00    +0.000 A 
ATOM      6  C   UNL     1       8.074   0.202  24.373  0.00  0.00    +0.000 A 
ATOM      7  C   UNL     1       8.126   1.524  24.753  0.00  0.00    +0.000 A 
ATOM      8  C   UNL     1       9.165   2.040  25.494  0.00  0.00    +0.000 A 
ATOM      9  C   UNL     1      10.169   1.136  25.837  0.00  0.00    +0.000 A 
ATOM     10  C   UNL     1      11.269   1.555  26.587  0.00  0.00    +0.000 A 
ATOM     11  O   UNL     1      11.268   2.780  26.903  0.00  0.00    +0.000 OA
ENDROOT
BRANCH   3  12
ATOM     12  C   UNL     1      11.101  -2.442  25.431  0.00  0.00    +0.000 A 
ATOM     13  C   UNL     1      11.378  -2.790  24.134  0.00  0.00    +0.000 A 
ATOM     14  C   UNL     1      11.327  -4.116  23.700  0.00  0.00    +0.000 A 
ATOM     15  C   UNL     1      10.989  -5.114  24.590  0.00  0.00    +0.000 A 
ATOM     16  C   UNL     1      10.940  -6.526  24.106  0.00  0.00    +0.000 C 
ATOM     17  C   UNL     1      10.711  -4.766  25.891  0.00  0.00    +0.000 A 
ATOM     18  C   UNL     1      10.765  -3.448  26.311  0.00  0.00    +0.000 A 
ENDBRANCH   3  12
BRANCH   1  19
ATOM     19  C   UNL     1      13.347   1.171  27.757  0.00  0.00    +0.000 C 
BRANCH  19  20
ATOM     20  C   UNL     1      14.355   0.188  28.007  0.00  0.00    +0.000 C 
BRANCH  20  22
ATOM     21  N   UNL     1      15.753  -0.220  25.971  0.00  0.00    +0.000 NA
ATOM     22  C   UNL     1      15.640   0.117  27.381  0.00  0.00    +0.000 C 
ATOM     23  O   UNL     1      16.720   0.326  27.956  0.00  0.00    +0.000 OA
BRANCH  21  27
ATOM     24  C   UNL     1      19.609  -0.429  24.203  0.00  0.00    +0.000 A 
ATOM     25  C   UNL     1      18.929  -1.563  24.594  0.00  0.00    +0.000 A 
ATOM     26  C   UNL     1      17.678  -1.497  25.167  0.00  0.00    +0.000 A 
ATOM     27  C   UNL     1      17.059  -0.283  25.371  0.00  0.00    +0.000 A 
ATOM     28  C   UNL     1      17.721   0.854  24.989  0.00  0.00    +0.000 A 
ATOM     29  C   UNL     1      18.973   0.775  24.417  0.00  0.00    +0.000 A 
BRANCH  24  31
ATOM     30  C   UNL     1      21.085  -1.024  22.330  0.00  0.00    +0.000 C 
ATOM     31  O   UNL     1      20.878  -0.514  23.623  0.00  0.00    +0.000 OA
ENDBRANCH  24  31
ENDBRANCH  21  27
ENDBRANCH  20  22
ENDBRANCH  19  20
ENDBRANCH   1  19
TORSDOF 6
ENDMDL
MODEL 7
REMARK VINA RESULT:      -7.8      1.621      2.389
REMARK  Name = 
REMARK  6 active torsions:
REMARK  status: ('A' for Active; 'I' for Inactive)
REMARK    1  A    between atoms: O_2  and  C_3
REMARK    2  A    between atoms: C_6  and  N_7
REMARK    3  A    between atoms: C_8  and  C_10
REMARK    4  A    between atoms: C_10  and  C_11
REMARK    5  A    between atoms: C_11  and  N_12
REMARK    6  A    between atoms: C_14  and  C_15
REMARK                            x       y       z     vdW  Elec       q    Type
REMARK                         _______ _______ _______ _____ _____    ______ ____
ROOT
ATOM      1  N   UNL     1      37.449   0.282  14.610  0.00  0.00    +0.000 N 
ATOM      2  N   UNL     1      38.530  -0.266  14.019  0.00  0.00    +0.000 NA
ATOM      3  C   UNL     1      39.162  -1.285  14.602  0.00  0.00    +0.000 A 
ATOM      4  C   UNL     1      38.733  -1.801  15.811  0.00  0.00    +0.000 A 
ATOM      5  C   UNL     1      39.393  -2.846  16.398  0.00  0.00    +0.000 A 
ATOM      6  C   UNL     1      38.942  -3.337  17.601  0.00  0.00    +0.000 A 
ATOM      7  C   UNL     1      37.838  -2.778  18.205  0.00  0.00    +0.000 A 
ATOM      8  C   UNL     1      37.145  -1.726  17.650  0.00  0.00    +0.000 A 
ATOM      9  C   UNL     1      37.633  -1.259  16.431  0.00  0.00    +0.000 A 
ATOM     10  C   UNL     1      37.005  -0.194  15.782  0.00  0.00    +0.000 A 
ATOM     11  O   UNL     1      35.993   0.275  16.377  0.00  0.00    +0.000 OA
ENDROOT
BRANCH   3  12
ATOM     12  C   UNL     1      40.345  -1.893  13.966  0.00  0.00    +0.000 A 
ATOM     13  C   UNL     1      41.604  -1.539  14.379  0.00  0.00    +0.000 A 
ATOM     14  C   UNL     1      42.750  -2.091  13.804  0.00  0.00    +0.000 A 
ATOM     15  C   UNL     1      42.628  -3.019  12.791  0.00  0.00    +0.000 A 
ATOM     16  C   UNL     1      43.866  -3.597  12.189  0.00  0.00    +0.000 C 
ATOM     17  C   UNL     1      41.366  -3.375  12.376  0.00  0.00    +0.000 A 
ATOM     18  C   UNL     1      40.236  -2.821  12.954  0.00  0.00    +0.000 A 
ENDBRANCH   3  12
BRANCH   1  19
ATOM     19  C   UNL     1      36.802   1.418  13.994  0.00  0.00    +0.000 C 
BRANCH  19  20
ATOM     20  C   UNL     1      37.657   2.544  13.780  0.00  0.00    +0.000 C 
BRANCH  20  22
ATOM     21  N   UNL     1      37.976   4.424  15.400  0.00  0.00    +0.000 NA
ATOM     22  C   UNL     1      38.451   3.202  14.772  0.00  0.00    +0.000 C 
ATOM     23  O   UNL     1      39.561   2.810  15.165  0.00  0.00    +0.000 OA
BRANCH  21  27
ATOM     24  C   UNL     1      40.388   6.299  18.351  0.00  0.00    +0.000 A 
ATOM     25  C   UNL     1      39.326   5.490  18.691  0.00  0.00    +0.000 A 
ATOM     26  C   UNL     1      38.543   4.880  17.736  0.00  0.00    +0.000 A 
ATOM     27  C   UNL     1      38.798   5.062  16.394  0.00  0.00    +0.000 A 
ATOM     28  C   UNL     1      39.850   5.865  16.038  0.00  0.00    +0.000 A 
ATOM     29  C   UNL     1      40.626   6.469  17.004  0.00  0.00    +0.000 A 
BRANCH  24  31
ATOM     30  C   UNL     1      41.654   6.216  20.456  0.00  0.00    +0.000 C 
ATOM     31  O   UNL     1      41.174   6.910  19.333  0.00  0.00    +0.000 OA
ENDBRANCH  24  31
ENDBRANCH  21  27
ENDBRANCH  20  22
ENDBRANCH  19  20
ENDBRANCH   1  19
TORSDOF 6
ENDMDL
MODEL 8
REMARK VINA RESULT:      -7.8      3.761      5.389
REMARK  Name = 
REMARK  6 active torsions:
REMARK  status: ('A' for Active; 'I' for Inactive)
REMARK    1  A    between atoms: O_2  and  C_3
REMARK    2  A    between atoms: C_6  and  N_7
REMARK    3  A    between atoms: C_8  and  C_10
REMARK    4  A    between atoms: C_10  and  C_11
REMARK    5  A    between atoms: C_11  and  N_12
REMARK    6  A    between atoms: C_14  and  C_15
REMARK                            x       y       z     vdW  Elec       q    Type
REMARK                         _______ _______ _______ _____ _____    ______ ____
ROOT
ATOM      1  N   UNL     1      36.224   0.290  16.439  0.00  0.00    +0.000 N 
ATOM      2  N   UNL     1      37.402   0.122  15.803  0.00  0.00    +0.000 NA
ATOM      3  C   UNL     1      37.689  -1.050  15.236  0.00  0.00    +0.000 A 
ATOM      4  C   UNL     1      36.801  -2.110  15.282  0.00  0.00    +0.000 A 
ATOM      5  C   UNL     1      37.112  -3.306  14.695  0.00  0.00    +0.000 A 
ATOM      6  C   UNL     1      36.208  -4.341  14.759  0.00  0.00    +0.000 A 
ATOM      7  C   UNL     1      35.005  -4.169  15.407  0.00  0.00    +0.000 A 
ATOM      8  C   UNL     1      34.653  -2.983  16.010  0.00  0.00    +0.000 A 
ATOM      9  C   UNL     1      35.596  -1.960  15.923  0.00  0.00    +0.000 A 
ATOM     10  C   UNL     1      35.339  -0.715  16.501  0.00  0.00    +0.000 A 
ATOM     11  O   UNL     1      34.218  -0.612  17.076  0.00  0.00    +0.000 OA
ENDROOT
BRANCH   3  12
ATOM     12  C   UNL     1      38.973  -1.247  14.538  0.00  0.00    +0.000 A 
ATOM     13  C   UNL     1      39.104  -0.875  13.225  0.00  0.00    +0.000 A 
ATOM     14  C   UNL     1      40.301  -1.043  12.527  0.00  0.00    +0.000 A 
ATOM     15  C   UNL     1      41.391  -1.598  13.164  0.00  0.00    +0.000 A 
ATOM     16  C   UNL     1      42.663  -1.769  12.401  0.00  0.00    +0.000 C 
ATOM     17  C   UNL     1      41.262  -1.971  14.482  0.00  0.00    +0.000 A 
ATOM     18  C   UNL     1      40.070  -1.799  15.164  0.00  0.00    +0.000 A 
ENDBRANCH   3  12
BRANCH   1  19
ATOM     19  C   UNL     1      35.944   1.548  17.093  0.00  0.00    +0.000 C 
BRANCH  19  20
ATOM     20  C   UNL     1      36.471   2.696  16.423  0.00  0.00    +0.000 C 
BRANCH  20  22
ATOM     21  N   UNL     1      36.352   4.716  14.950  0.00  0.00    +0.000 NA
ATOM     22  C   UNL     1      35.838   3.420  15.363  0.00  0.00    +0.000 C 
ATOM     23  O   UNL     1      34.843   3.028  14.733  0.00  0.00    +0.000 OA
BRANCH  21  27
ATOM     24  C   UNL     1      34.389   6.799  11.812  0.00  0.00    +0.000 A 
ATOM     25  C   UNL     1      33.900   6.803  13.100  0.00  0.00    +0.000 A 
ATOM     26  C   UNL     1      34.535   6.129  14.120  0.00  0.00    +0.000 A 
ATOM     27  C   UNL     1      35.693   5.419  13.882  0.00  0.00    +0.000 A 
ATOM     28  C   UNL     1      36.193   5.405  12.607  0.00  0.00    +0.000 A 
ATOM     29  C   UNL     1      35.547   6.084  11.595  0.00  0.00    +0.000 A 
BRANCH  24  31
ATOM     30  C   UNL     1      34.074   7.336   9.435  0.00  0.00    +0.000 C 
ATOM     31  O   UNL     1      33.732   7.489  10.789  0.00  0.00    +0.000 OA
ENDBRANCH  24  31
ENDBRANCH  21  27
ENDBRANCH  20  22
ENDBRANCH  19  20
ENDBRANCH   1  19
TORSDOF 6
ENDMDL
MODEL 9
REMARK VINA RESULT:      -7.6      1.732      4.431
REMARK  Name = 
REMARK  6 active torsions:
REMARK  status: ('A' for Active; 'I' for Inactive)
REMARK    1  A    between atoms: O_2  and  C_3
REMARK    2  A    between atoms: C_6  and  N_7
REMARK    3  A    between atoms: C_8  and  C_10
REMARK    4  A    between atoms: C_10  and  C_11
REMARK    5  A    between atoms: C_11  and  N_12
REMARK    6  A    between atoms: C_14  and  C_15
REMARK                            x       y       z     vdW  Elec       q    Type
REMARK                         _______ _______ _______ _____ _____    ______ ____
ROOT
ATOM      1  N   UNL     1      39.006   1.620  13.934  0.00  0.00    +0.000 N 
ATOM      2  N   UNL     1      37.876   1.180  14.526  0.00  0.00    +0.000 NA
ATOM      3  C   UNL     1      37.846  -0.032  15.080  0.00  0.00    +0.000 A 
ATOM      4  C   UNL     1      38.953  -0.859  15.065  0.00  0.00    +0.000 A 
ATOM      5  C   UNL     1      38.905  -2.101  15.638  0.00  0.00    +0.000 A 
ATOM      6  C   UNL     1      40.024  -2.901  15.606  0.00  0.00    +0.000 A 
ATOM      7  C   UNL     1      41.178  -2.451  15.003  0.00  0.00    +0.000 A 
ATOM      8  C   UNL     1      41.269  -1.210  14.415  0.00  0.00    +0.000 A 
ATOM      9  C   UNL     1      40.115  -0.431  14.469  0.00  0.00    +0.000 A 
ATOM     10  C   UNL     1      40.099   0.845  13.903  0.00  0.00    +0.000 A 
ATOM     11  O   UNL     1      41.187   1.209  13.370  0.00  0.00    +0.000 OA
ENDROOT
BRANCH   3  12
ATOM     12  C   UNL     1      36.617  -0.525  15.730  0.00  0.00    +0.000 A 
ATOM     13  C   UNL     1      36.093  -1.741  15.373  0.00  0.00    +0.000 A 
ATOM     14  C   UNL     1      34.933  -2.245  15.963  0.00  0.00    +0.000 A 
ATOM     15  C   UNL     1      34.285  -1.509  16.934  0.00  0.00    +0.000 A 
ATOM     16  C   UNL     1      33.045  -2.065  17.552  0.00  0.00    +0.000 C 
ATOM     17  C   UNL     1      34.809  -0.290  17.293  0.00  0.00    +0.000 A 
ATOM     18  C   UNL     1      35.961   0.200  16.701  0.00  0.00    +0.000 A 
ENDBRANCH   3  12
BRANCH   1  19
ATOM     19  C   UNL     1      39.013   2.915  13.293  0.00  0.00    +0.000 C 
BRANCH  19  20
ATOM     20  C   UNL     1      38.025   3.825  13.782  0.00  0.00    +0.000 C 
BRANCH  20  22
ATOM     21  N   UNL     1      39.060   5.367  15.461  0.00  0.00    +0.000 NA
ATOM     22  C   UNL     1      38.008   4.440  15.075  0.00  0.00    +0.000 C 
ATOM     23  O   UNL     1      37.139   4.246  15.939  0.00  0.00    +0.000 OA
BRANCH  21  27
ATOM     24  C   UNL     1      38.917   7.161  19.308  0.00  0.00    +0.000 A 
ATOM     25  C   UNL     1      38.410   7.795  18.195  0.00  0.00    +0.000 A 
ATOM     26  C   UNL     1      38.454   7.214  16.946  0.00  0.00    +0.000 A 
ATOM     27  C   UNL     1      39.015   5.967  16.767  0.00  0.00    +0.000 A 
ATOM     28  C   UNL     1      39.524   5.323  17.864  0.00  0.00    +0.000 A 
ATOM     29  C   UNL     1      39.473   5.915  19.108  0.00  0.00    +0.000 A 
BRANCH  24  31
ATOM     30  C   UNL     1      38.222   8.994  20.790  0.00  0.00    +0.000 C 
ATOM     31  O   UNL     1      38.863   7.763  20.568  0.00  0.00    +0.000 OA
ENDBRANCH  24  31
ENDBRANCH  21  27
ENDBRANCH  20  22
ENDBRANCH  19  20
ENDBRANCH   1  19
TORSDOF 6
ENDMDL
MODEL 10
REMARK VINA RESULT:      -7.6      2.747      7.656
REMARK  Name = 
REMARK  6 active torsions:
REMARK  status: ('A' for Active; 'I' for Inactive)
REMARK    1  A    between atoms: O_2  and  C_3
REMARK    2  A    between atoms: C_6  and  N_7
REMARK    3  A    between atoms: C_8  and  C_10
REMARK    4  A    between atoms: C_10  and  C_11
REMARK    5  A    between atoms: C_11  and  N_12
REMARK    6  A    between atoms: C_14  and  C_15
REMARK                            x       y       z     vdW  Elec       q    Type
REMARK                         _______ _______ _______ _____ _____    ______ ____
ROOT
ATOM      1  N   UNL     1      35.737   2.701  16.115  0.00  0.00    +0.000 N 
ATOM      2  N   UNL     1      35.478   3.324  14.948  0.00  0.00    +0.000 NA
ATOM      3  C   UNL     1      36.244   4.342  14.553  0.00  0.00    +0.000 A 
ATOM      4  C   UNL     1      37.309   4.780  15.317  0.00  0.00    +0.000 A 
ATOM      5  C   UNL     1      38.085   5.827  14.898  0.00  0.00    +0.000 A 
ATOM      6  C   UNL     1      39.137   6.240  15.681  0.00  0.00    +0.000 A 
ATOM      7  C   UNL     1      39.404   5.603  16.873  0.00  0.00    +0.000 A 
ATOM      8  C   UNL     1      38.649   4.548  17.332  0.00  0.00    +0.000 A 
ATOM      9  C   UNL     1      37.593   4.160  16.509  0.00  0.00    +0.000 A 
ATOM     10  C   UNL     1      36.764   3.099  16.881  0.00  0.00    +0.000 A 
ATOM     11  O   UNL     1      37.058   2.548  17.980  0.00  0.00    +0.000 OA
ENDROOT
BRANCH   3  12
ATOM     12  C   UNL     1      35.970   5.031  13.279  0.00  0.00    +0.000 A 
ATOM     13  C   UNL     1      36.659   4.677  12.146  0.00  0.00    +0.000 A 
ATOM     14  C   UNL     1      36.431   5.304  10.920  0.00  0.00    +0.000 A 
ATOM     15  C   UNL     1      35.489   6.308  10.829  0.00  0.00    +0.000 A 
ATOM     16  C   UNL     1      35.260   6.965   9.508  0.00  0.00    +0.000 C 
ATOM     17  C   UNL     1      34.798   6.663  11.964  0.00  0.00    +0.000 A 
ATOM     18  C   UNL     1      35.033   6.036  13.175  0.00  0.00    +0.000 A 
ENDBRANCH   3  12
BRANCH   1  19
ATOM     19  C   UNL     1      34.871   1.633  16.557  0.00  0.00    +0.000 C 
BRANCH  19  20
ATOM     20  C   UNL     1      35.390   0.319  16.337  0.00  0.00    +0.000 C 
BRANCH  20  22
ATOM     21  N   UNL     1      37.800  -0.327  16.139  0.00  0.00    +0.000 NA
ATOM     22  C   UNL     1      36.519  -0.019  15.525  0.00  0.00    +0.000 C 
ATOM     23  O   UNL     1      36.507  -0.076  14.285  0.00  0.00    +0.000 OA
BRANCH  21  27
ATOM     24  C   UNL     1      41.090  -1.341  13.653  0.00  0.00    +0.000 A 
ATOM     25  C   UNL     1      40.348  -2.305  14.300  0.00  0.00    +0.000 A 
ATOM     26  C   UNL     1      39.280  -1.979  15.106  0.00  0.00    +0.000 A 
ATOM     27  C   UNL     1      38.915  -0.663  15.295  0.00  0.00    +0.000 A 
ATOM     28  C   UNL     1      39.643   0.308  14.659  0.00  0.00    +0.000 A 
ATOM     29  C   UNL     1      40.710  -0.032  13.855  0.00  0.00    +0.000 A 
BRANCH  24  31
ATOM     30  C   UNL     1      42.659  -3.005  12.751  0.00  0.00    +0.000 C 
ATOM     31  O   UNL     1      42.171  -1.690  12.837  0.00  0.00    +0.000 OA
ENDBRANCH  24  31
ENDBRANCH  21  27
ENDBRANCH  20  22
ENDBRANCH  19  20
ENDBRANCH   1  19
TORSDOF 6
ENDMDL
