MODEL 1
REMARK VINA RESULT:      -6.8      0.000      0.000
REMARK  Name = 
REMARK  4 active torsions:
REMARK  status: ('A' for Active; 'I' for Inactive)
REMARK    1  A    between atoms: C_2  and  O_3
REMARK    2  A    between atoms: O_3  and  C_4
REMARK    3  A    between atoms: C_8  and  C_9
REMARK    4  A    between atoms: C_9  and  O_11
REMARK                            x       y       z     vdW  Elec       q    Type
REMARK                         _______ _______ _______ _____ _____    ______ ____
ROOT
ATOM      1  C   UNL     1      16.594  11.248  34.166  0.00  0.00    +0.000 A 
ATOM      2  C   UNL     1      17.625  10.467  34.646  0.00  0.00    +0.000 A 
ATOM      3  C   UNL     1      17.710  10.146  35.992  0.00  0.00    +0.000 A 
ATOM      4  N   UNL     1      18.605   9.409  36.714  0.00  0.00    +0.000 NA
ATOM      5  C   UNL     1      18.255   9.390  38.001  0.00  0.00    +0.000 A 
ATOM      6  C   UNL     1      17.102  10.140  38.099  0.00  0.00    +0.000 A 
ATOM      7  C   UNL     1      16.759  10.610  36.861  0.00  0.00    +0.000 A 
ATOM      8  C   UNL     1      15.718  11.401  36.373  0.00  0.00    +0.000 A 
ATOM      9  C   UNL     1      14.786  11.839  37.302  0.00  0.00    +0.000 A 
ATOM     10  C   UNL     1      13.737  12.618  36.896  0.00  0.00    +0.000 A 
ATOM     11  C   UNL     1      13.641  12.941  35.570  0.00  0.00    +0.000 A 
ATOM     12  C   UNL     1      14.577  12.501  34.631  0.00  0.00    +0.000 A 
ATOM     13  C   UNL     1      15.637  11.716  35.035  0.00  0.00    +0.000 A 
ENDROOT
BRANCH   5  14
ATOM     14  C   UNL     1      18.968   8.701  39.097  0.00  0.00    +0.000 C 
ATOM     15  O   UNL     1      20.170   8.950  39.287  0.00  0.00    +0.000 OA
BRANCH  14  16
ATOM     16  O   UNL     1      18.320   7.797  39.898  0.00  0.00    +0.000 OA
ATOM     17  C   UNL     1      18.740   6.434  40.042  0.00  0.00    +0.000 C 
ENDBRANCH  14  16
ENDBRANCH   5  14
BRANCH   1  18
ATOM     18  O   UNL     1      16.475  11.591  32.820  0.00  0.00    +0.000 OA
BRANCH  18  20
ATOM     19  C   UNL     1      14.798  11.008  31.253  0.00  0.00    +0.000 C 
ATOM     20  C   UNL     1      16.161  10.654  31.817  0.00  0.00    +0.000 C 
ENDBRANCH  18  20
ENDBRANCH   1  18
TORSDOF 4
ENDMDL
MODEL 2
REMARK VINA RESULT:      -6.8      2.010      2.535
REMARK  Name = 
REMARK  4 active torsions:
REMARK  status: ('A' for Active; 'I' for Inactive)
REMARK    1  A    between atoms: C_2  and  O_3
REMARK    2  A    between atoms: O_3  and  C_4
REMARK    3  A    between atoms: C_8  and  C_9
REMARK    4  A    between atoms: C_9  and  O_11
REMARK                            x       y       z     vdW  Elec       q    Type
REMARK                         _______ _______ _______ _____ _____    ______ ____
ROOT
ATOM      1  C   UNL     1      14.591  12.770  35.831  0.00  0.00    +0.000 A 
ATOM      2  C   UNL     1      15.954  12.596  35.948  0.00  0.00    +0.000 A 
ATOM      3  C   UNL     1      16.487  11.753  36.910  0.00  0.00    +0.000 A 
ATOM      4  N   UNL     1      17.768  11.408  37.234  0.00  0.00    +0.000 NA
ATOM      5  C   UNL     1      17.770  10.547  38.253  0.00  0.00    +0.000 A 
ATOM      6  C   UNL     1      16.449  10.339  38.586  0.00  0.00    +0.000 A 
ATOM      7  C   UNL     1      15.649  11.080  37.760  0.00  0.00    +0.000 A 
ATOM      8  C   UNL     1      14.270  11.258  37.640  0.00  0.00    +0.000 A 
ATOM      9  C   UNL     1      13.476  10.550  38.529  0.00  0.00    +0.000 A 
ATOM     10  C   UNL     1      12.114  10.674  38.470  0.00  0.00    +0.000 A 
ATOM     11  C   UNL     1      11.577  11.503  37.525  0.00  0.00    +0.000 A 
ATOM     12  C   UNL     1      12.373  12.218  36.627  0.00  0.00    +0.000 A 
ATOM     13  C   UNL     1      13.747  12.097  36.682  0.00  0.00    +0.000 A 
ENDROOT
BRANCH   5  14
ATOM     14  C   UNL     1      18.958   9.942  38.892  0.00  0.00    +0.000 C 
ATOM     15  O   UNL     1      20.077  10.128  38.386  0.00  0.00    +0.000 OA
BRANCH  14  16
ATOM     16  O   UNL     1      18.836   9.183  40.026  0.00  0.00    +0.000 OA
ATOM     17  C   UNL     1      18.822   7.749  40.013  0.00  0.00    +0.000 C 
ENDBRANCH  14  16
ENDBRANCH   5  14
BRANCH   1  18
ATOM     18  O   UNL     1      14.019  13.609  34.875  0.00  0.00    +0.000 OA
BRANCH  18  20
ATOM     19  C   UNL     1      13.479  14.546  32.769  0.00  0.00    +0.000 C 
ATOM     20  C   UNL     1      14.155  13.396  33.491  0.00  0.00    +0.000 C 
ENDBRANCH  18  20
ENDBRANCH   1  18
TORSDOF 4
ENDMDL
MODEL 3
REMARK VINA RESULT:      -6.6      1.451      3.273
REMARK  Name = 
REMARK  4 active torsions:
REMARK  status: ('A' for Active; 'I' for Inactive)
REMARK    1  A    between atoms: C_2  and  O_3
REMARK    2  A    between atoms: O_3  and  C_4
REMARK    3  A    between atoms: C_8  and  C_9
REMARK    4  A    between atoms: C_9  and  O_11
REMARK                            x       y       z     vdW  Elec       q    Type
REMARK                         _______ _______ _______ _____ _____    ______ ____
ROOT
ATOM      1  C   UNL     1      14.887  11.783  36.077  0.00  0.00    +0.000 A 
ATOM      2  C   UNL     1      15.338  11.413  37.326  0.00  0.00    +0.000 A 
ATOM      3  C   UNL     1      16.478  10.638  37.473  0.00  0.00    +0.000 A 
ATOM      4  N   UNL     1      17.127  10.143  38.567  0.00  0.00    +0.000 NA
ATOM      5  C   UNL     1      18.198   9.442  38.191  0.00  0.00    +0.000 A 
ATOM      6  C   UNL     1      18.229   9.494  36.813  0.00  0.00    +0.000 A 
ATOM      7  C   UNL     1      17.169  10.232  36.362  0.00  0.00    +0.000 A 
ATOM      8  C   UNL     1      16.710  10.608  35.099  0.00  0.00    +0.000 A 
ATOM      9  C   UNL     1      17.453  10.166  34.015  0.00  0.00    +0.000 A 
ATOM     10  C   UNL     1      17.063  10.496  32.745  0.00  0.00    +0.000 A 
ATOM     11  C   UNL     1      15.941  11.261  32.587  0.00  0.00    +0.000 A 
ATOM     12  C   UNL     1      15.190  11.708  33.677  0.00  0.00    +0.000 A 
ATOM     13  C   UNL     1      15.578  11.378  34.959  0.00  0.00    +0.000 A 
ENDROOT
BRANCH   5  14
ATOM     14  C   UNL     1      19.155   8.749  39.080  0.00  0.00    +0.000 C 
ATOM     15  O   UNL     1      20.264   9.266  39.293  0.00  0.00    +0.000 OA
BRANCH  14  16
ATOM     16  O   UNL     1      18.832   7.553  39.664  0.00  0.00    +0.000 OA
ATOM     17  C   UNL     1      17.817   7.419  40.668  0.00  0.00    +0.000 C 
ENDBRANCH  14  16
ENDBRANCH   5  14
BRANCH   1  18
ATOM     18  O   UNL     1      13.745  12.562  35.890  0.00  0.00    +0.000 OA
BRANCH  18  20
ATOM     19  C   UNL     1      11.888  11.597  36.997  0.00  0.00    +0.000 C 
ATOM     20  C   UNL     1      12.807  12.801  36.912  0.00  0.00    +0.000 C 
ENDBRANCH  18  20
ENDBRANCH   1  18
TORSDOF 4
ENDMDL
MODEL 4
REMARK VINA RESULT:      -6.5     18.202     19.858
REMARK  Name = 
REMARK  4 active torsions:
REMARK  status: ('A' for Active; 'I' for Inactive)
REMARK    1  A    between atoms: C_2  and  O_3
REMARK    2  A    between atoms: O_3  and  C_4
REMARK    3  A    between atoms: C_8  and  C_9
REMARK    4  A    between atoms: C_9  and  O_11
REMARK                            x       y       z     vdW  Elec       q    Type
REMARK                         _______ _______ _______ _____ _____    ______ ____
ROOT
ATOM      1  C   UNL     1      29.757  22.639  25.385  0.00  0.00    +0.000 A 
ATOM      2  C   UNL     1      29.748  22.471  26.754  0.00  0.00    +0.000 A 
ATOM      3  C   UNL     1      28.582  22.631  27.486  0.00  0.00    +0.000 A 
ATOM      4  N   UNL     1      28.302  22.526  28.819  0.00  0.00    +0.000 NA
ATOM      5  C   UNL     1      27.011  22.776  29.040  0.00  0.00    +0.000 A 
ATOM      6  C   UNL     1      26.453  23.049  27.809  0.00  0.00    +0.000 A 
ATOM      7  C   UNL     1      27.418  22.960  26.843  0.00  0.00    +0.000 A 
ATOM      8  C   UNL     1      27.429  23.130  25.458  0.00  0.00    +0.000 A 
ATOM      9  C   UNL     1      26.221  23.462  24.866  0.00  0.00    +0.000 A 
ATOM     10  C   UNL     1      26.155  23.644  23.511  0.00  0.00    +0.000 A 
ATOM     11  C   UNL     1      27.299  23.488  22.778  0.00  0.00    +0.000 A 
ATOM     12  C   UNL     1      28.519  23.153  23.371  0.00  0.00    +0.000 A 
ATOM     13  C   UNL     1      28.590  22.969  24.736  0.00  0.00    +0.000 A 
ENDROOT
BRANCH   5  14
ATOM     14  C   UNL     1      26.322  22.763  30.349  0.00  0.00    +0.000 C 
ATOM     15  O   UNL     1      25.959  21.677  30.829  0.00  0.00    +0.000 OA
BRANCH  14  16
ATOM     16  O   UNL     1      26.083  23.928  31.028  0.00  0.00    +0.000 OA
ATOM     17  C   UNL     1      27.117  24.856  31.384  0.00  0.00    +0.000 C 
ENDBRANCH  14  16
ENDBRANCH   5  14
BRANCH   1  18
ATOM     18  O   UNL     1      30.910  22.486  24.617  0.00  0.00    +0.000 OA
BRANCH  18  20
ATOM     19  C   UNL     1      31.595  24.752  24.624  0.00  0.00    +0.000 C 
ATOM     20  C   UNL     1      32.042  23.310  24.764  0.00  0.00    +0.000 C 
ENDBRANCH  18  20
ENDBRANCH   1  18
TORSDOF 4
ENDMDL
MODEL 5
REMARK VINA RESULT:      -6.4     28.664     31.286
REMARK  Name = 
REMARK  4 active torsions:
REMARK  status: ('A' for Active; 'I' for Inactive)
REMARK    1  A    between atoms: C_2  and  O_3
REMARK    2  A    between atoms: O_3  and  C_4
REMARK    3  A    between atoms: C_8  and  C_9
REMARK    4  A    between atoms: C_9  and  O_11
REMARK                            x       y       z     vdW  Elec       q    Type
REMARK                         _______ _______ _______ _____ _____    ______ ____
ROOT
ATOM      1  C   UNL     1      31.204  20.773   9.028  0.00  0.00    +0.000 A 
ATOM      2  C   UNL     1      30.012  21.365   9.390  0.00  0.00    +0.000 A 
ATOM      3  C   UNL     1      29.801  21.815  10.684  0.00  0.00    +0.000 A 
ATOM      4  N   UNL     1      28.741  22.422  11.293  0.00  0.00    +0.000 NA
ATOM      5  C   UNL     1      29.022  22.666  12.574  0.00  0.00    +0.000 A 
ATOM      6  C   UNL     1      30.302  22.198  12.784  0.00  0.00    +0.000 A 
ATOM      7  C   UNL     1      30.790  21.671  11.620  0.00  0.00    +0.000 A 
ATOM      8  C   UNL     1      31.996  21.071  11.252  0.00  0.00    +0.000 A 
ATOM      9  C   UNL     1      32.957  20.955  12.244  0.00  0.00    +0.000 A 
ATOM     10  C   UNL     1      34.164  20.378  11.956  0.00  0.00    +0.000 A 
ATOM     11  C   UNL     1      34.384  19.931  10.683  0.00  0.00    +0.000 A 
ATOM     12  C   UNL     1      33.418  20.046   9.680  0.00  0.00    +0.000 A 
ATOM     13  C   UNL     1      32.199  20.627   9.965  0.00  0.00    +0.000 A 
ENDROOT
BRANCH   5  14
ATOM     14  C   UNL     1      28.133  23.309  13.564  0.00  0.00    +0.000 C 
ATOM     15  O   UNL     1      26.903  23.244  13.404  0.00  0.00    +0.000 OA
BRANCH  14  16
ATOM     16  O   UNL     1      28.649  23.972  14.647  0.00  0.00    +0.000 OA
ATOM     17  C   UNL     1      28.666  25.401  14.757  0.00  0.00    +0.000 C 
ENDBRANCH  14  16
ENDBRANCH   5  14
BRANCH   1  18
ATOM     18  O   UNL     1      31.451  20.308   7.737  0.00  0.00    +0.000 OA
BRANCH  18  20
ATOM     19  C   UNL     1      30.240  20.534   5.715  0.00  0.00    +0.000 C 
ATOM     20  C   UNL     1      30.468  19.681   6.948  0.00  0.00    +0.000 C 
ENDBRANCH  18  20
ENDBRANCH   1  18
TORSDOF 4
ENDMDL
MODEL 6
REMARK VINA RESULT:      -6.4     19.058     21.217
REMARK  Name = 
REMARK  4 active torsions:
REMARK  status: ('A' for Active; 'I' for Inactive)
REMARK    1  A    between atoms: C_2  and  O_3
REMARK    2  A    between atoms: O_3  and  C_4
REMARK    3  A    between atoms: C_8  and  C_9
REMARK    4  A    between atoms: C_9  and  O_11
REMARK                            x       y       z     vdW  Elec       q    Type
REMARK                         _______ _______ _______ _____ _____    ______ ____
ROOT
ATOM      1  C   UNL     1      30.190  22.385  27.765  0.00  0.00    +0.000 A 
ATOM      2  C   UNL     1      30.554  22.438  26.436  0.00  0.00    +0.000 A 
ATOM      3  C   UNL     1      29.643  22.814  25.460  0.00  0.00    +0.000 A 
ATOM      4  N   UNL     1      29.740  22.947  24.105  0.00  0.00    +0.000 NA
ATOM      5  C   UNL     1      28.572  23.342  23.596  0.00  0.00    +0.000 A 
ATOM      6  C   UNL     1      27.707  23.463  24.662  0.00  0.00    +0.000 A 
ATOM      7  C   UNL     1      28.362  23.139  25.819  0.00  0.00    +0.000 A 
ATOM      8  C   UNL     1      27.996  23.084  27.164  0.00  0.00    +0.000 A 
ATOM      9  C   UNL     1      26.686  23.425  27.463  0.00  0.00    +0.000 A 
ATOM     10  C   UNL     1      26.255  23.395  28.762  0.00  0.00    +0.000 A 
ATOM     11  C   UNL     1      27.144  23.026  29.733  0.00  0.00    +0.000 A 
ATOM     12  C   UNL     1      28.465  22.682  29.437  0.00  0.00    +0.000 A 
ATOM     13  C   UNL     1      28.904  22.710  28.129  0.00  0.00    +0.000 A 
ENDROOT
BRANCH   5  14
ATOM     14  C   UNL     1      28.273  23.595  22.170  0.00  0.00    +0.000 C 
ATOM     15  O   UNL     1      27.120  23.400  21.751  0.00  0.00    +0.000 OA
BRANCH  14  16
ATOM     16  O   UNL     1      29.248  24.038  21.316  0.00  0.00    +0.000 OA
ATOM     17  C   UNL     1      29.362  25.405  20.897  0.00  0.00    +0.000 C 
ENDBRANCH  14  16
ENDBRANCH   5  14
BRANCH   1  18
ATOM     18  O   UNL     1      31.077  22.011  28.773  0.00  0.00    +0.000 OA
BRANCH  18  20
ATOM     19  C   UNL     1      33.259  21.526  29.555  0.00  0.00    +0.000 C 
ATOM     20  C   UNL     1      32.366  22.562  28.900  0.00  0.00    +0.000 C 
ENDBRANCH  18  20
ENDBRANCH   1  18
TORSDOF 4
ENDMDL
MODEL 7
REMARK VINA RESULT:      -6.3     20.284     22.045
REMARK  Name = 
REMARK  4 active torsions:
REMARK  status: ('A' for Active; 'I' for Inactive)
REMARK    1  A    between atoms: C_2  and  O_3
REMARK    2  A    between atoms: O_3  and  C_4
REMARK    3  A    between atoms: C_8  and  C_9
REMARK    4  A    between atoms: C_9  and  O_11
REMARK                            x       y       z     vdW  Elec       q    Type
REMARK                         _______ _______ _______ _____ _____    ______ ____
ROOT
ATOM      1  C   UNL     1      19.713  -9.018  26.966  0.00  0.00    +0.000 A 
ATOM      2  C   UNL     1      20.882  -9.455  26.379  0.00  0.00    +0.000 A 
ATOM      3  C   UNL     1      21.659  -8.601  25.611  0.00  0.00    +0.000 A 
ATOM      4  N   UNL     1      22.832  -8.772  24.934  0.00  0.00    +0.000 NA
ATOM      5  C   UNL     1      23.189  -7.635  24.335  0.00  0.00    +0.000 A 
ATOM      6  C   UNL     1      22.211  -6.713  24.643  0.00  0.00    +0.000 A 
ATOM      7  C   UNL     1      21.262  -7.303  25.431  0.00  0.00    +0.000 A 
ATOM      8  C   UNL     1      20.079  -6.863  26.026  0.00  0.00    +0.000 A 
ATOM      9  C   UNL     1      19.731  -5.538  25.808  0.00  0.00    +0.000 A 
ATOM     10  C   UNL     1      18.584  -5.037  26.360  0.00  0.00    +0.000 A 
ATOM     11  C   UNL     1      17.810  -5.869  27.120  0.00  0.00    +0.000 A 
ATOM     12  C   UNL     1      18.156  -7.204  27.343  0.00  0.00    +0.000 A 
ATOM     13  C   UNL     1      19.312  -7.715  26.788  0.00  0.00    +0.000 A 
ENDROOT
BRANCH   5  14
ATOM     14  C   UNL     1      24.395  -7.416  23.508  0.00  0.00    +0.000 C 
ATOM     15  O   UNL     1      25.227  -6.567  23.866  0.00  0.00    +0.000 OA
BRANCH  14  16
ATOM     16  O   UNL     1      24.598  -8.135  22.359  0.00  0.00    +0.000 OA
ATOM     17  C   UNL     1      23.535  -8.530  21.482  0.00  0.00    +0.000 C 
ENDBRANCH  14  16
ENDBRANCH   5  14
BRANCH   1  18
ATOM     18  O   UNL     1      18.907  -9.848  27.744  0.00  0.00    +0.000 OA
BRANCH  18  20
ATOM     19  C   UNL     1      18.937  -9.567  30.095  0.00  0.00    +0.000 C 
ATOM     20  C   UNL     1      19.354 -10.451  28.935  0.00  0.00    +0.000 C 
ENDBRANCH  18  20
ENDBRANCH   1  18
TORSDOF 4
ENDMDL
MODEL 8
REMARK VINA RESULT:      -6.2     18.121     19.903
REMARK  Name = 
REMARK  4 active torsions:
REMARK  status: ('A' for Active; 'I' for Inactive)
REMARK    1  A    between atoms: C_2  and  O_3
REMARK    2  A    between atoms: O_3  and  C_4
REMARK    3  A    between atoms: C_8  and  C_9
REMARK    4  A    between atoms: C_9  and  O_11
REMARK                            x       y       z     vdW  Elec       q    Type
REMARK                         _______ _______ _______ _____ _____    ______ ____
ROOT
ATOM      1  C   UNL     1      24.863  25.804  28.168  0.00  0.00    +0.000 A 
ATOM      2  C   UNL     1      24.701  25.881  26.800  0.00  0.00    +0.000 A 
ATOM      3  C   UNL     1      25.251  24.925  25.961  0.00  0.00    +0.000 A 
ATOM      4  N   UNL     1      25.242  24.767  24.605  0.00  0.00    +0.000 NA
ATOM      5  C   UNL     1      25.923  23.671  24.263  0.00  0.00    +0.000 A 
ATOM      6  C   UNL     1      26.378  23.117  25.441  0.00  0.00    +0.000 A 
ATOM      7  C   UNL     1      25.966  23.886  26.494  0.00  0.00    +0.000 A 
ATOM      8  C   UNL     1      26.129  23.811  27.878  0.00  0.00    +0.000 A 
ATOM      9  C   UNL     1      26.863  22.736  28.357  0.00  0.00    +0.000 A 
ATOM     10  C   UNL     1      27.063  22.596  29.704  0.00  0.00    +0.000 A 
ATOM     11  C   UNL     1      26.525  23.533  30.542  0.00  0.00    +0.000 A 
ATOM     12  C   UNL     1      25.785  24.617  30.064  0.00  0.00    +0.000 A 
ATOM     13  C   UNL     1      25.581  24.763  28.707  0.00  0.00    +0.000 A 
ENDROOT
BRANCH   5  14
ATOM     14  C   UNL     1      26.141  23.161  22.893  0.00  0.00    +0.000 C 
ATOM     15  O   UNL     1      25.182  22.678  22.269  0.00  0.00    +0.000 OA
BRANCH  14  16
ATOM     16  O   UNL     1      27.381  23.215  22.313  0.00  0.00    +0.000 OA
ATOM     17  C   UNL     1      28.312  24.280  22.549  0.00  0.00    +0.000 C 
ENDBRANCH  14  16
ENDBRANCH   5  14
BRANCH   1  18
ATOM     18  O   UNL     1      24.325  26.747  29.042  0.00  0.00    +0.000 OA
BRANCH  18  20
ATOM     19  C   UNL     1      22.769  26.866  30.823  0.00  0.00    +0.000 C 
ATOM     20  C   UNL     1      22.947  26.837  29.317  0.00  0.00    +0.000 C 
ENDBRANCH  18  20
ENDBRANCH   1  18
TORSDOF 4
ENDMDL
MODEL 9
REMARK VINA RESULT:      -6.1     18.307     20.280
REMARK  Name = 
REMARK  4 active torsions:
REMARK  status: ('A' for Active; 'I' for Inactive)
REMARK    1  A    between atoms: C_2  and  O_3
REMARK    2  A    between atoms: O_3  and  C_4
REMARK    3  A    between atoms: C_8  and  C_9
REMARK    4  A    between atoms: C_9  and  O_11
REMARK                            x       y       z     vdW  Elec       q    Type
REMARK                         _______ _______ _______ _____ _____    ______ ____
ROOT
ATOM      1  C   UNL     1      26.205  23.851  28.734  0.00  0.00    +0.000 A 
ATOM      2  C   UNL     1      25.470  23.967  27.573  0.00  0.00    +0.000 A 
ATOM      3  C   UNL     1      26.032  23.672  26.340  0.00  0.00    +0.000 A 
ATOM      4  N   UNL     1      25.540  23.702  25.066  0.00  0.00    +0.000 NA
ATOM      5  C   UNL     1      26.481  23.325  24.200  0.00  0.00    +0.000 A 
ATOM      6  C   UNL     1      27.606  23.047  24.947  0.00  0.00    +0.000 A 
ATOM      7  C   UNL     1      27.336  23.259  26.271  0.00  0.00    +0.000 A 
ATOM      8  C   UNL     1      28.077  23.142  27.448  0.00  0.00    +0.000 A 
ATOM      9  C   UNL     1      29.390  22.719  27.312  0.00  0.00    +0.000 A 
ATOM     10  C   UNL     1      30.177  22.581  28.423  0.00  0.00    +0.000 A 
ATOM     11  C   UNL     1      29.635  22.868  29.645  0.00  0.00    +0.000 A 
ATOM     12  C   UNL     1      28.312  23.295  29.786  0.00  0.00    +0.000 A 
ATOM     13  C   UNL     1      27.514  23.436  28.669  0.00  0.00    +0.000 A 
ENDROOT
BRANCH   5  14
ATOM     14  C   UNL     1      26.338  23.228  22.731  0.00  0.00    +0.000 C 
ATOM     15  O   UNL     1      25.284  22.775  22.256  0.00  0.00    +0.000 OA
BRANCH  14  16
ATOM     16  O   UNL     1      27.351  23.628  21.899  0.00  0.00    +0.000 OA
ATOM     17  C   UNL     1      27.694  25.004  21.687  0.00  0.00    +0.000 C 
ENDBRANCH  14  16
ENDBRANCH   5  14
BRANCH   1  18
ATOM     18  O   UNL     1      25.674  24.138  29.991  0.00  0.00    +0.000 OA
BRANCH  18  20
ATOM     19  C   UNL     1      25.879  25.655  31.797  0.00  0.00    +0.000 C 
ATOM     20  C   UNL     1      25.334  25.442  30.398  0.00  0.00    +0.000 C 
ENDBRANCH  18  20
ENDBRANCH   1  18
TORSDOF 4
ENDMDL
MODEL 10
REMARK VINA RESULT:      -6.0     19.460     20.952
REMARK  Name = 
REMARK  4 active torsions:
REMARK  status: ('A' for Active; 'I' for Inactive)
REMARK    1  A    between atoms: C_2  and  O_3
REMARK    2  A    between atoms: O_3  and  C_4
REMARK    3  A    between atoms: C_8  and  C_9
REMARK    4  A    between atoms: C_9  and  O_11
REMARK                            x       y       z     vdW  Elec       q    Type
REMARK                         _______ _______ _______ _____ _____    ______ ____
ROOT
ATOM      1  C   UNL     1      29.296  23.670  23.202  0.00  0.00    +0.000 A 
ATOM      2  C   UNL     1      30.435  23.513  23.965  0.00  0.00    +0.000 A 
ATOM      3  C   UNL     1      30.357  23.125  25.293  0.00  0.00    +0.000 A 
ATOM      4  N   UNL     1      31.304  22.901  26.250  0.00  0.00    +0.000 NA
ATOM      5  C   UNL     1      30.726  22.538  27.396  0.00  0.00    +0.000 A 
ATOM      6  C   UNL     1      29.368  22.532  27.159  0.00  0.00    +0.000 A 
ATOM      7  C   UNL     1      29.132  22.893  25.861  0.00  0.00    +0.000 A 
ATOM      8  C   UNL     1      27.981  23.054  25.087  0.00  0.00    +0.000 A 
ATOM      9  C   UNL     1      26.772  22.804  25.719  0.00  0.00    +0.000 A 
ATOM     10  C   UNL     1      25.602  22.940  25.022  0.00  0.00    +0.000 A 
ATOM     11  C   UNL     1      25.666  23.322  23.711  0.00  0.00    +0.000 A 
ATOM     12  C   UNL     1      26.882  23.574  23.071  0.00  0.00    +0.000 A 
ATOM     13  C   UNL     1      28.065  23.438  23.769  0.00  0.00    +0.000 A 
ENDROOT
BRANCH   5  14
ATOM     14  C   UNL     1      31.412  22.211  28.664  0.00  0.00    +0.000 C 
ATOM     15  O   UNL     1      32.212  21.261  28.690  0.00  0.00    +0.000 OA
BRANCH  14  16
ATOM     16  O   UNL     1      31.174  22.939  29.800  0.00  0.00    +0.000 OA
ATOM     17  C   UNL     1      30.307  22.492  30.851  0.00  0.00    +0.000 C 
ENDBRANCH  14  16
ENDBRANCH   5  14
BRANCH   1  18
ATOM     18  O   UNL     1      29.336  24.058  21.864  0.00  0.00    +0.000 OA
BRANCH  18  20
ATOM     19  C   UNL     1      28.424  26.145  21.217  0.00  0.00    +0.000 C 
ATOM     20  C   UNL     1      29.697  25.356  21.454  0.00  0.00    +0.000 C 
ENDBRANCH  18  20
ENDBRANCH   1  18
TORSDOF 4
ENDMDL
