MODEL 1
REMARK VINA RESULT:      -7.9      0.000      0.000
REMARK  Name = 
REMARK  1 active torsions:
REMARK  status: ('A' for Active; 'I' for Inactive)
REMARK    1  A    between atoms: C_19  and  C_21
REMARK                            x       y       z     vdW  Elec       q    Type
REMARK                         _______ _______ _______ _____ _____    ______ ____
ROOT
ATOM      1  C   UNL     1      29.276  24.462  27.079  0.00  0.00    +0.000 C 
ATOM      2  C   UNL     1      29.043  23.123  26.721  0.00  0.00    +0.000 C 
ATOM      3  C   UNL     1      28.099  22.298  27.533  0.00  0.00    +0.000 C 
ATOM      4  C   UNL     1      28.419  22.659  28.992  0.00  0.00    +0.000 C 
ATOM      5  C   UNL     1      29.898  22.566  29.103  0.00  0.00    +0.000 A 
ATOM      6  O   UNL     1      30.580  22.644  30.248  0.00  0.00    +0.000 OA
ATOM      7  C   UNL     1      31.851  22.534  30.076  0.00  0.00    +0.000 A 
ATOM      8  C   UNL     1      32.037  22.366  28.684  0.00  0.00    +0.000 A 
ATOM      9  C   UNL     1      30.797  22.393  28.133  0.00  0.00    +0.000 A 
ATOM     10  C   UNL     1      30.434  22.238  26.625  0.00  0.00    +0.000 C 
ATOM     11  C   UNL     1      31.336  23.474  26.082  0.00  0.00    +0.000 C 
ATOM     12  C   UNL     1      30.726  24.265  25.124  0.00  0.00    +0.000 C 
ATOM     13  C   UNL     1      29.399  24.162  24.570  0.00  0.00    +0.000 C 
ATOM     14  C   UNL     1      28.684  25.404  24.568  0.00  0.00    +0.000 C 
ATOM     15  C   UNL     1      27.554  25.261  23.405  0.00  0.00    +0.000 C 
ATOM     16  C   UNL     1      26.634  24.141  24.150  0.00  0.00    +0.000 C 
ATOM     17  C   UNL     1      27.161  23.722  25.418  0.00  0.00    +0.000 C 
ATOM     18  C   UNL     1      28.564  22.924  25.185  0.00  0.00    +0.000 C 
ATOM     19  C   UNL     1      28.369  24.214  22.471  0.00  0.00    +0.000 C 
ATOM     20  O   UNL     1      27.516  23.243  22.030  0.00  0.00    +0.000 OA
ATOM     21  C   UNL     1      29.580  23.889  23.103  0.00  0.00    +0.000 C 
ENDROOT
BRANCH  19  22
ATOM     22  C   UNL     1      28.633  25.106  21.243  0.00  0.00    +0.000 C 
ATOM     23  O   UNL     1      29.775  24.725  20.577  0.00  0.00    +0.000 OA
ENDBRANCH  19  22
TORSDOF 1
ENDMDL
MODEL 2
REMARK VINA RESULT:      -7.6      1.349      1.434
REMARK  Name = 
REMARK  1 active torsions:
REMARK  status: ('A' for Active; 'I' for Inactive)
REMARK    1  A    between atoms: C_19  and  C_21
REMARK                            x       y       z     vdW  Elec       q    Type
REMARK                         _______ _______ _______ _____ _____    ______ ____
ROOT
ATOM      1  C   UNL     1      29.171  24.416  27.266  0.00  0.00    +0.000 C 
ATOM      2  C   UNL     1      28.694  23.094  27.285  0.00  0.00    +0.000 C 
ATOM      3  C   UNL     1      27.964  22.594  28.489  0.00  0.00    +0.000 C 
ATOM      4  C   UNL     1      28.759  23.142  29.684  0.00  0.00    +0.000 C 
ATOM      5  C   UNL     1      30.179  22.820  29.391  0.00  0.00    +0.000 A 
ATOM      6  O   UNL     1      31.188  22.979  30.252  0.00  0.00    +0.000 OA
ATOM      7  C   UNL     1      32.322  22.627  29.756  0.00  0.00    +0.000 A 
ATOM      8  C   UNL     1      32.047  22.192  28.439  0.00  0.00    +0.000 A 
ATOM      9  C   UNL     1      30.709  22.333  28.267  0.00  0.00    +0.000 A 
ATOM     10  C   UNL     1      29.881  21.983  26.994  0.00  0.00    +0.000 C 
ATOM     11  C   UNL     1      30.699  22.936  25.965  0.00  0.00    +0.000 C 
ATOM     12  C   UNL     1      29.912  23.641  25.071  0.00  0.00    +0.000 C 
ATOM     13  C   UNL     1      28.476  23.670  24.950  0.00  0.00    +0.000 C 
ATOM     14  C   UNL     1      27.936  24.995  24.882  0.00  0.00    +0.000 C 
ATOM     15  C   UNL     1      26.492  24.846  24.145  0.00  0.00    +0.000 C 
ATOM     16  C   UNL     1      25.732  24.045  25.342  0.00  0.00    +0.000 C 
ATOM     17  C   UNL     1      26.577  23.768  26.470  0.00  0.00    +0.000 C 
ATOM     18  C   UNL     1      27.743  22.716  26.028  0.00  0.00    +0.000 C 
ATOM     19  C   UNL     1      26.858  23.532  23.268  0.00  0.00    +0.000 C 
ATOM     20  O   UNL     1      25.808  22.658  23.306  0.00  0.00    +0.000 OA
ATOM     21  C   UNL     1      28.161  23.121  23.587  0.00  0.00    +0.000 C 
ENDROOT
BRANCH  19  22
ATOM     22  C   UNL     1      26.823  24.140  21.852  0.00  0.00    +0.000 C 
ATOM     23  O   UNL     1      25.882  23.524  21.060  0.00  0.00    +0.000 OA
ENDBRANCH  19  22
TORSDOF 1
ENDMDL
MODEL 3
REMARK VINA RESULT:      -7.4      2.484      6.369
REMARK  Name = 
REMARK  1 active torsions:
REMARK  status: ('A' for Active; 'I' for Inactive)
REMARK    1  A    between atoms: C_19  and  C_21
REMARK                            x       y       z     vdW  Elec       q    Type
REMARK                         _______ _______ _______ _____ _____    ______ ____
ROOT
ATOM      1  C   UNL     1      28.698  24.776  26.185  0.00  0.00    +0.000 C 
ATOM      2  C   UNL     1      28.187  23.471  26.279  0.00  0.00    +0.000 C 
ATOM      3  C   UNL     1      29.106  22.307  26.093  0.00  0.00    +0.000 C 
ATOM      4  C   UNL     1      29.999  22.699  24.907  0.00  0.00    +0.000 C 
ATOM      5  C   UNL     1      29.066  23.186  23.858  0.00  0.00    +0.000 A 
ATOM      6  O   UNL     1      29.418  23.474  22.602  0.00  0.00    +0.000 OA
ATOM      7  C   UNL     1      28.425  23.877  21.890  0.00  0.00    +0.000 A 
ATOM      8  C   UNL     1      27.302  23.857  22.749  0.00  0.00    +0.000 A 
ATOM      9  C   UNL     1      27.757  23.422  23.952  0.00  0.00    +0.000 A 
ATOM     10  C   UNL     1      26.922  23.205  25.251  0.00  0.00    +0.000 C 
ATOM     11  C   UNL     1      26.344  24.718  25.363  0.00  0.00    +0.000 C 
ATOM     12  C   UNL     1      26.346  25.249  26.642  0.00  0.00    +0.000 C 
ATOM     13  C   UNL     1      26.815  24.660  27.870  0.00  0.00    +0.000 C 
ATOM     14  C   UNL     1      27.678  25.523  28.623  0.00  0.00    +0.000 C 
ATOM     15  C   UNL     1      27.590  25.001  30.162  0.00  0.00    +0.000 C 
ATOM     16  C   UNL     1      28.354  23.579  29.942  0.00  0.00    +0.000 C 
ATOM     17  C   UNL     1      28.735  23.343  28.577  0.00  0.00    +0.000 C 
ATOM     18  C   UNL     1      27.397  23.168  27.662  0.00  0.00    +0.000 C 
ATOM     19  C   UNL     1      26.086  24.399  30.077  0.00  0.00    +0.000 C 
ATOM     20  O   UNL     1      26.046  23.192  30.716  0.00  0.00    +0.000 OA
ATOM     21  C   UNL     1      25.612  24.545  28.764  0.00  0.00    +0.000 C 
ENDROOT
BRANCH  19  22
ATOM     22  C   UNL     1      25.356  25.377  31.018  0.00  0.00    +0.000 C 
ATOM     23  O   UNL     1      25.835  25.294  32.305  0.00  0.00    +0.000 OA
ENDBRANCH  19  22
TORSDOF 1
ENDMDL
MODEL 4
REMARK VINA RESULT:      -7.2      2.100      3.578
REMARK  Name = 
REMARK  1 active torsions:
REMARK  status: ('A' for Active; 'I' for Inactive)
REMARK    1  A    between atoms: C_19  and  C_21
REMARK                            x       y       z     vdW  Elec       q    Type
REMARK                         _______ _______ _______ _____ _____    ______ ____
ROOT
ATOM      1  C   UNL     1      31.579  23.470  24.658  0.00  0.00    +0.000 C 
ATOM      2  C   UNL     1      31.143  24.688  25.208  0.00  0.00    +0.000 C 
ATOM      3  C   UNL     1      31.914  25.937  24.929  0.00  0.00    +0.000 C 
ATOM      4  C   UNL     1      33.388  25.523  25.051  0.00  0.00    +0.000 C 
ATOM      5  C   UNL     1      33.479  24.768  26.328  0.00  0.00    +0.000 A 
ATOM      6  O   UNL     1      34.619  24.367  26.895  0.00  0.00    +0.000 OA
ATOM      7  C   UNL     1      34.428  23.731  27.997  0.00  0.00    +0.000 A 
ATOM      8  C   UNL     1      33.027  23.703  28.186  0.00  0.00    +0.000 A 
ATOM      9  C   UNL     1      32.491  24.358  27.125  0.00  0.00    +0.000 A 
ATOM     10  C   UNL     1      30.980  24.625  26.850  0.00  0.00    +0.000 C 
ATOM     11  C   UNL     1      30.503  23.072  26.872  0.00  0.00    +0.000 C 
ATOM     12  C   UNL     1      29.601  22.725  25.882  0.00  0.00    +0.000 C 
ATOM     13  C   UNL     1      29.055  23.536  24.823  0.00  0.00    +0.000 C 
ATOM     14  C   UNL     1      29.135  22.919  23.533  0.00  0.00    +0.000 C 
ATOM     15  C   UNL     1      27.977  23.626  22.633  0.00  0.00    +0.000 C 
ATOM     16  C   UNL     1      28.662  25.101  22.538  0.00  0.00    +0.000 C 
ATOM     17  C   UNL     1      29.897  25.203  23.263  0.00  0.00    +0.000 C 
ATOM     18  C   UNL     1      29.602  25.056  24.860  0.00  0.00    +0.000 C 
ATOM     19  C   UNL     1      26.974  23.984  23.856  0.00  0.00    +0.000 C 
ATOM     20  O   UNL     1      26.483  25.247  23.682  0.00  0.00    +0.000 OA
ATOM     21  C   UNL     1      27.573  23.594  25.064  0.00  0.00    +0.000 C 
ENDROOT
BRANCH  19  22
ATOM     22  C   UNL     1      25.798  23.047  23.518  0.00  0.00    +0.000 C 
ATOM     23  O   UNL     1      25.614  22.936  22.160  0.00  0.00    +0.000 OA
ENDBRANCH  19  22
TORSDOF 1
ENDMDL
MODEL 5
REMARK VINA RESULT:      -7.0      2.283      3.607
REMARK  Name = 
REMARK  1 active torsions:
REMARK  status: ('A' for Active; 'I' for Inactive)
REMARK    1  A    between atoms: C_19  and  C_21
REMARK                            x       y       z     vdW  Elec       q    Type
REMARK                         _______ _______ _______ _____ _____    ______ ____
ROOT
ATOM      1  C   UNL     1      26.378  23.656  26.763  0.00  0.00    +0.000 C 
ATOM      2  C   UNL     1      27.658  24.009  27.225  0.00  0.00    +0.000 C 
ATOM      3  C   UNL     1      28.345  23.136  28.223  0.00  0.00    +0.000 C 
ATOM      4  C   UNL     1      27.247  22.747  29.224  0.00  0.00    +0.000 C 
ATOM      5  C   UNL     1      26.567  24.021  29.576  0.00  0.00    +0.000 A 
ATOM      6  O   UNL     1      25.655  24.155  30.541  0.00  0.00    +0.000 OA
ATOM      7  C   UNL     1      25.218  25.361  30.646  0.00  0.00    +0.000 A 
ATOM      8  C   UNL     1      25.902  26.105  29.656  0.00  0.00    +0.000 A 
ATOM      9  C   UNL     1      26.722  25.227  29.026  0.00  0.00    +0.000 A 
ATOM     10  C   UNL     1      27.710  25.533  27.859  0.00  0.00    +0.000 C 
ATOM     11  C   UNL     1      26.609  26.138  26.830  0.00  0.00    +0.000 C 
ATOM     12  C   UNL     1      26.749  25.724  25.516  0.00  0.00    +0.000 C 
ATOM     13  C   UNL     1      27.709  24.812  24.948  0.00  0.00    +0.000 C 
ATOM     14  C   UNL     1      27.117  23.802  24.122  0.00  0.00    +0.000 C 
ATOM     15  C   UNL     1      28.297  23.305  23.117  0.00  0.00    +0.000 C 
ATOM     16  C   UNL     1      29.225  22.571  24.236  0.00  0.00    +0.000 C 
ATOM     17  C   UNL     1      28.702  22.679  25.569  0.00  0.00    +0.000 C 
ATOM     18  C   UNL     1      28.746  24.238  26.045  0.00  0.00    +0.000 C 
ATOM     19  C   UNL     1      29.130  24.697  23.094  0.00  0.00    +0.000 C 
ATOM     20  O   UNL     1      30.465  24.425  23.188  0.00  0.00    +0.000 OA
ATOM     21  C   UNL     1      28.509  25.612  23.959  0.00  0.00    +0.000 C 
ENDROOT
BRANCH  19  22
ATOM     22  C   UNL     1      28.907  25.115  21.628  0.00  0.00    +0.000 C 
ATOM     23  O   UNL     1      29.716  24.407  20.771  0.00  0.00    +0.000 OA
ENDBRANCH  19  22
TORSDOF 1
ENDMDL
MODEL 6
REMARK VINA RESULT:      -6.9      1.374      3.128
REMARK  Name = 
REMARK  1 active torsions:
REMARK  status: ('A' for Active; 'I' for Inactive)
REMARK    1  A    between atoms: C_19  and  C_21
REMARK                            x       y       z     vdW  Elec       q    Type
REMARK                         _______ _______ _______ _____ _____    ______ ____
ROOT
ATOM      1  C   UNL     1      30.881  21.864  27.535  0.00  0.00    +0.000 C 
ATOM      2  C   UNL     1      31.025  23.233  27.821  0.00  0.00    +0.000 C 
ATOM      3  C   UNL     1      32.376  23.774  28.161  0.00  0.00    +0.000 C 
ATOM      4  C   UNL     1      32.993  22.725  29.097  0.00  0.00    +0.000 C 
ATOM      5  C   UNL     1      31.944  22.436  30.109  0.00  0.00    +0.000 A 
ATOM      6  O   UNL     1      32.127  21.696  31.205  0.00  0.00    +0.000 OA
ATOM      7  C   UNL     1      31.062  21.597  31.920  0.00  0.00    +0.000 A 
ATOM      8  C   UNL     1      30.071  22.341  31.238  0.00  0.00    +0.000 A 
ATOM      9  C   UNL     1      30.671  22.837  30.127  0.00  0.00    +0.000 A 
ATOM     10  C   UNL     1      30.026  23.741  29.033  0.00  0.00    +0.000 C 
ATOM     11  C   UNL     1      28.818  22.730  28.637  0.00  0.00    +0.000 C 
ATOM     12  C   UNL     1      28.573  22.620  27.279  0.00  0.00    +0.000 C 
ATOM     13  C   UNL     1      29.256  23.248  26.177  0.00  0.00    +0.000 C 
ATOM     14  C   UNL     1      29.626  22.333  25.138  0.00  0.00    +0.000 C 
ATOM     15  C   UNL     1      29.783  23.233  23.791  0.00  0.00    +0.000 C 
ATOM     16  C   UNL     1      31.114  24.054  24.247  0.00  0.00    +0.000 C 
ATOM     17  C   UNL     1      31.565  23.720  25.569  0.00  0.00    +0.000 C 
ATOM     18  C   UNL     1      30.458  24.213  26.660  0.00  0.00    +0.000 C 
ATOM     19  C   UNL     1      28.722  24.388  24.206  0.00  0.00    +0.000 C 
ATOM     20  O   UNL     1      29.238  25.612  23.883  0.00  0.00    +0.000 OA
ATOM     21  C   UNL     1      28.238  24.118  25.495  0.00  0.00    +0.000 C 
ENDROOT
BRANCH  19  22
ATOM     22  C   UNL     1      27.622  24.127  23.159  0.00  0.00    +0.000 C 
ATOM     23  O   UNL     1      28.074  23.316  22.143  0.00  0.00    +0.000 OA
ENDBRANCH  19  22
TORSDOF 1
ENDMDL
MODEL 7
REMARK VINA RESULT:      -6.8      1.694      6.542
REMARK  Name = 
REMARK  1 active torsions:
REMARK  status: ('A' for Active; 'I' for Inactive)
REMARK    1  A    between atoms: C_19  and  C_21
REMARK                            x       y       z     vdW  Elec       q    Type
REMARK                         _______ _______ _______ _____ _____    ______ ____
ROOT
ATOM      1  C   UNL     1      29.194  24.387  26.477  0.00  0.00    +0.000 C 
ATOM      2  C   UNL     1      29.335  22.991  26.397  0.00  0.00    +0.000 C 
ATOM      3  C   UNL     1      29.994  22.386  25.200  0.00  0.00    +0.000 C 
ATOM      4  C   UNL     1      29.430  23.171  24.005  0.00  0.00    +0.000 C 
ATOM      5  C   UNL     1      27.958  23.194  24.211  0.00  0.00    +0.000 A 
ATOM      6  O   UNL     1      27.073  23.638  23.316  0.00  0.00    +0.000 OA
ATOM      7  C   UNL     1      25.859  23.552  23.735  0.00  0.00    +0.000 A 
ATOM      8  C   UNL     1      25.940  22.999  25.034  0.00  0.00    +0.000 A 
ATOM      9  C   UNL     1      27.260  22.798  25.276  0.00  0.00    +0.000 A 
ATOM     10  C   UNL     1      27.899  22.193  26.563  0.00  0.00    +0.000 C 
ATOM     11  C   UNL     1      27.276  23.266  27.610  0.00  0.00    +0.000 C 
ATOM     12  C   UNL     1      28.155  23.711  28.582  0.00  0.00    +0.000 C 
ATOM     13  C   UNL     1      29.545  23.380  28.771  0.00  0.00    +0.000 C 
ATOM     14  C   UNL     1      30.386  24.527  28.947  0.00  0.00    +0.000 C 
ATOM     15  C   UNL     1      31.703  23.992  29.740  0.00  0.00    +0.000 C 
ATOM     16  C   UNL     1      32.317  23.087  28.532  0.00  0.00    +0.000 C 
ATOM     17  C   UNL     1      31.499  23.082  27.351  0.00  0.00    +0.000 C 
ATOM     18  C   UNL     1      30.088  22.329  27.672  0.00  0.00    +0.000 C 
ATOM     19  C   UNL     1      30.977  22.766  30.515  0.00  0.00    +0.000 C 
ATOM     20  O   UNL     1      31.783  21.664  30.472  0.00  0.00    +0.000 OA
ATOM     21  C   UNL     1      29.634  22.704  30.111  0.00  0.00    +0.000 C 
ENDROOT
BRANCH  19  22
ATOM     22  C   UNL     1      31.072  23.277  31.966  0.00  0.00    +0.000 C 
ATOM     23  O   UNL     1      29.860  23.742  32.419  0.00  0.00    +0.000 OA
ENDBRANCH  19  22
TORSDOF 1
ENDMDL
MODEL 8
REMARK VINA RESULT:      -6.7      1.720      2.126
REMARK  Name = 
REMARK  1 active torsions:
REMARK  status: ('A' for Active; 'I' for Inactive)
REMARK    1  A    between atoms: C_19  and  C_21
REMARK                            x       y       z     vdW  Elec       q    Type
REMARK                         _______ _______ _______ _____ _____    ______ ____
ROOT
ATOM      1  C   UNL     1      27.564  24.915  26.027  0.00  0.00    +0.000 C 
ATOM      2  C   UNL     1      28.537  23.921  25.822  0.00  0.00    +0.000 C 
ATOM      3  C   UNL     1      28.234  22.508  26.201  0.00  0.00    +0.000 C 
ATOM      4  C   UNL     1      27.513  22.611  27.553  0.00  0.00    +0.000 C 
ATOM      5  C   UNL     1      28.351  23.522  28.376  0.00  0.00    +0.000 A 
ATOM      6  O   UNL     1      28.168  23.753  29.678  0.00  0.00    +0.000 OA
ATOM      7  C   UNL     1      29.028  24.582  30.159  0.00  0.00    +0.000 A 
ATOM      8  C   UNL     1      29.864  24.940  29.076  0.00  0.00    +0.000 A 
ATOM      9  C   UNL     1      29.400  24.255  28.000  0.00  0.00    +0.000 A 
ATOM     10  C   UNL     1      29.975  24.277  26.551  0.00  0.00    +0.000 C 
ATOM     11  C   UNL     1      29.844  25.879  26.318  0.00  0.00    +0.000 C 
ATOM     12  C   UNL     1      29.372  26.250  25.071  0.00  0.00    +0.000 C 
ATOM     13  C   UNL     1      28.953  25.417  23.973  0.00  0.00    +0.000 C 
ATOM     14  C   UNL     1      27.682  25.791  23.426  0.00  0.00    +0.000 C 
ATOM     15  C   UNL     1      27.669  25.215  21.904  0.00  0.00    +0.000 C 
ATOM     16  C   UNL     1      27.618  23.631  22.283  0.00  0.00    +0.000 C 
ATOM     17  C   UNL     1      27.646  23.383  23.697  0.00  0.00    +0.000 C 
ATOM     18  C   UNL     1      29.090  23.842  24.300  0.00  0.00    +0.000 C 
ATOM     19  C   UNL     1      29.272  25.278  21.660  0.00  0.00    +0.000 C 
ATOM     20  O   UNL     1      29.677  24.138  21.026  0.00  0.00    +0.000 OA
ATOM     21  C   UNL     1      29.894  25.717  22.840  0.00  0.00    +0.000 C 
ENDROOT
BRANCH  19  22
ATOM     22  C   UNL     1      29.333  26.380  20.585  0.00  0.00    +0.000 C 
ATOM     23  O   UNL     1      29.955  25.936  19.441  0.00  0.00    +0.000 OA
ENDBRANCH  19  22
TORSDOF 1
ENDMDL
MODEL 9
REMARK VINA RESULT:      -6.7     21.319     22.631
REMARK  Name = 
REMARK  1 active torsions:
REMARK  status: ('A' for Active; 'I' for Inactive)
REMARK    1  A    between atoms: C_19  and  C_21
REMARK                            x       y       z     vdW  Elec       q    Type
REMARK                         _______ _______ _______ _____ _____    ______ ____
ROOT
ATOM      1  C   UNL     1      24.153   3.623  15.885  0.00  0.00    +0.000 C 
ATOM      2  C   UNL     1      24.875   2.682  16.640  0.00  0.00    +0.000 C 
ATOM      3  C   UNL     1      25.170   1.340  16.053  0.00  0.00    +0.000 C 
ATOM      4  C   UNL     1      23.868   0.926  15.351  0.00  0.00    +0.000 C 
ATOM      5  C   UNL     1      22.791   1.171  16.346  0.00  0.00    +0.000 A 
ATOM      6  O   UNL     1      21.519   0.792  16.198  0.00  0.00    +0.000 OA
ATOM      7  C   UNL     1      20.784   1.123  17.201  0.00  0.00    +0.000 A 
ATOM      8  C   UNL     1      21.645   1.787  18.106  0.00  0.00    +0.000 A 
ATOM      9  C   UNL     1      22.872   1.787  17.526  0.00  0.00    +0.000 A 
ATOM     10  C   UNL     1      24.189   2.382  18.111  0.00  0.00    +0.000 C 
ATOM     11  C   UNL     1      23.643   3.898  18.310  0.00  0.00    +0.000 C 
ATOM     12  C   UNL     1      24.531   4.892  17.937  0.00  0.00    +0.000 C 
ATOM     13  C   UNL     1      25.851   4.766  17.372  0.00  0.00    +0.000 C 
ATOM     14  C   UNL     1      26.053   5.580  16.210  0.00  0.00    +0.000 C 
ATOM     15  C   UNL     1      27.662   5.801  16.099  0.00  0.00    +0.000 C 
ATOM     16  C   UNL     1      28.055   4.265  15.724  0.00  0.00    +0.000 C 
ATOM     17  C   UNL     1      26.925   3.381  15.684  0.00  0.00    +0.000 C 
ATOM     18  C   UNL     1      26.302   3.227  17.184  0.00  0.00    +0.000 C 
ATOM     19  C   UNL     1      27.983   5.675  17.684  0.00  0.00    +0.000 C 
ATOM     20  O   UNL     1      29.105   4.914  17.858  0.00  0.00    +0.000 OA
ATOM     21  C   UNL     1      26.792   5.385  18.368  0.00  0.00    +0.000 C 
ENDROOT
BRANCH  19  22
ATOM     22  C   UNL     1      28.428   7.120  17.980  0.00  0.00    +0.000 C 
ATOM     23  O   UNL     1      28.048   7.518  19.241  0.00  0.00    +0.000 OA
ENDBRANCH  19  22
TORSDOF 1
ENDMDL
MODEL 10
REMARK VINA RESULT:      -6.7      2.000      6.257
REMARK  Name = 
REMARK  1 active torsions:
REMARK  status: ('A' for Active; 'I' for Inactive)
REMARK    1  A    between atoms: C_19  and  C_21
REMARK                            x       y       z     vdW  Elec       q    Type
REMARK                         _______ _______ _______ _____ _____    ______ ____
ROOT
ATOM      1  C   UNL     1      26.850  24.738  25.107  0.00  0.00    +0.000 C 
ATOM      2  C   UNL     1      28.081  25.206  25.598  0.00  0.00    +0.000 C 
ATOM      3  C   UNL     1      28.398  26.664  25.515  0.00  0.00    +0.000 C 
ATOM      4  C   UNL     1      27.916  27.090  24.120  0.00  0.00    +0.000 C 
ATOM      5  C   UNL     1      28.466  26.073  23.187  0.00  0.00    +0.000 A 
ATOM      6  O   UNL     1      28.418  26.159  21.855  0.00  0.00    +0.000 OA
ATOM      7  C   UNL     1      28.965  25.149  21.274  0.00  0.00    +0.000 A 
ATOM      8  C   UNL     1      29.422  24.308  22.315  0.00  0.00    +0.000 A 
ATOM      9  C   UNL     1      29.087  24.928  23.475  0.00  0.00    +0.000 A 
ATOM     10  C   UNL     1      29.374  24.431  24.924  0.00  0.00    +0.000 C 
ATOM     11  C   UNL     1      28.613  23.003  24.791  0.00  0.00    +0.000 C 
ATOM     12  C   UNL     1      27.844  22.648  25.886  0.00  0.00    +0.000 C 
ATOM     13  C   UNL     1      27.603  23.380  27.104  0.00  0.00    +0.000 C 
ATOM     14  C   UNL     1      26.216  23.462  27.454  0.00  0.00    +0.000 C 
ATOM     15  C   UNL     1      26.181  23.727  29.060  0.00  0.00    +0.000 C 
ATOM     16  C   UNL     1      26.792  25.237  29.033  0.00  0.00    +0.000 C 
ATOM     17  C   UNL     1      27.135  25.689  27.713  0.00  0.00    +0.000 C 
ATOM     18  C   UNL     1      28.375  24.798  27.140  0.00  0.00    +0.000 C 
ATOM     19  C   UNL     1      27.580  22.985  29.409  0.00  0.00    +0.000 C 
ATOM     20  O   UNL     1      28.280  23.741  30.306  0.00  0.00    +0.000 OA
ATOM     21  C   UNL     1      28.168  22.540  28.215  0.00  0.00    +0.000 C 
ENDROOT
BRANCH  19  22
ATOM     22  C   UNL     1      27.050  21.787  30.220  0.00  0.00    +0.000 C 
ATOM     23  O   UNL     1      25.790  22.029  30.714  0.00  0.00    +0.000 OA
ENDBRANCH  19  22
TORSDOF 1
ENDMDL
