MODEL 1
REMARK VINA RESULT:      -8.6      0.000      0.000
REMARK  Name = 
REMARK  6 active torsions:
REMARK  status: ('A' for Active; 'I' for Inactive)
REMARK    1  A    between atoms: C_2  and  O_3
REMARK    2  A    between atoms: O_3  and  C_4
REMARK    3  A    between atoms: C_9  and  C_10
REMARK    4  A    between atoms: C_15  and  C_16
REMARK    5  A    between atoms: N_20  and  C_21
REMARK    6  A    between atoms: C_21  and  C_22
REMARK                            x       y       z     vdW  Elec       q    Type
REMARK                         _______ _______ _______ _____ _____    ______ ____
ROOT
ATOM      1  C   UNL     1      38.855   5.201  18.117  0.00  0.00    +0.000 C 
ATOM      2  O   UNL     1      38.561   4.088  18.623  0.00  0.00    +0.000 OA
ATOM      3  N   UNL     1      38.469   5.418  16.772  0.00  0.00    +0.000 NA
ATOM      4  C   UNL     1      37.767   4.392  16.027  0.00  0.00    +0.000 A 
ATOM      5  N   UNL     1      37.396   3.191  16.421  0.00  0.00    +0.000 NA
ATOM      6  C   UNL     1      36.769   2.409  15.595  0.00  0.00    +0.000 A 
ATOM      7  C   UNL     1      36.528   2.899  14.332  0.00  0.00    +0.000 A 
ATOM      8  S   UNL     1      37.222   4.455  14.418  0.00  0.00    +0.000 S 
ENDROOT
BRANCH   6   9
ATOM      9  C   UNL     1      36.318   1.038  15.965  0.00  0.00    +0.000 A 
ATOM     10  C   UNL     1      35.145   0.694  16.599  0.00  0.00    +0.000 A 
ATOM     11  C   UNL     1      35.120  -0.678  16.749  0.00  0.00    +0.000 A 
ATOM     12  C   UNL     1      34.002  -1.406  17.395  0.00  0.00    +0.000 C 
ATOM     13  N   UNL     1      36.250  -1.179  16.223  0.00  0.00    +0.000 N 
ATOM     14  C   UNL     1      36.969  -0.150  15.750  0.00  0.00    +0.000 A 
ATOM     15  C   UNL     1      38.305  -0.285  15.080  0.00  0.00    +0.000 C 
BRANCH  13  16
ATOM     16  C   UNL     1      36.582  -2.574  16.192  0.00  0.00    +0.000 C 
BRANCH  16  17
ATOM     17  C   UNL     1      37.357  -2.978  17.394  0.00  0.00    +0.000 A 
ATOM     18  C   UNL     1      38.044  -4.171  17.351  0.00  0.00    +0.000 A 
ATOM     19  C   UNL     1      38.774  -4.564  18.468  0.00  0.00    +0.000 A 
ATOM     20  C   UNL     1      38.832  -3.808  19.604  0.00  0.00    +0.000 A 
ATOM     21  C   UNL     1      38.144  -2.619  19.634  0.00  0.00    +0.000 A 
ATOM     22  C   UNL     1      37.413  -2.213  18.536  0.00  0.00    +0.000 A 
ENDBRANCH  16  17
ENDBRANCH  13  16
ENDBRANCH   6   9
BRANCH   1  28
ATOM     23  C   UNL     1      38.889   7.400  19.178  0.00  0.00    +0.000 A 
ATOM     24  N   UNL     1      39.538   8.343  19.884  0.00  0.00    +0.000 NA
ATOM     25  C   UNL     1      40.815   8.169  20.305  0.00  0.00    +0.000 A 
ATOM     26  C   UNL     1      41.511   7.010  20.028  0.00  0.00    +0.000 A 
ATOM     27  C   UNL     1      40.871   6.032  19.309  0.00  0.00    +0.000 A 
ATOM     28  C   UNL     1      39.572   6.237  18.894  0.00  0.00    +0.000 A 
BRANCH  23  29
ATOM     29  O   UNL     1      37.580   7.565  18.741  0.00  0.00    +0.000 OA
BRANCH  29  31
ATOM     30  C   UNL     1      36.273   9.519  18.154  0.00  0.00    +0.000 C 
ATOM     31  C   UNL     1      36.848   8.679  19.269  0.00  0.00    +0.000 C 
ENDBRANCH  29  31
ENDBRANCH  23  29
ENDBRANCH   1  28
TORSDOF 6
ENDMDL
MODEL 2
REMARK VINA RESULT:      -8.5      1.668      3.214
REMARK  Name = 
REMARK  6 active torsions:
REMARK  status: ('A' for Active; 'I' for Inactive)
REMARK    1  A    between atoms: C_2  and  O_3
REMARK    2  A    between atoms: O_3  and  C_4
REMARK    3  A    between atoms: C_9  and  C_10
REMARK    4  A    between atoms: C_15  and  C_16
REMARK    5  A    between atoms: N_20  and  C_21
REMARK    6  A    between atoms: C_21  and  C_22
REMARK                            x       y       z     vdW  Elec       q    Type
REMARK                         _______ _______ _______ _____ _____    ______ ____
ROOT
ATOM      1  C   UNL     1      38.776   5.711  17.722  0.00  0.00    +0.000 C 
ATOM      2  O   UNL     1      38.764   4.498  18.054  0.00  0.00    +0.000 OA
ATOM      3  N   UNL     1      38.932   5.998  16.344  0.00  0.00    +0.000 NA
ATOM      4  C   UNL     1      39.071   4.929  15.375  0.00  0.00    +0.000 A 
ATOM      5  N   UNL     1      39.077   3.628  15.574  0.00  0.00    +0.000 NA
ATOM      6  C   UNL     1      39.215   2.824  14.563  0.00  0.00    +0.000 A 
ATOM      7  C   UNL     1      39.348   3.400  13.321  0.00  0.00    +0.000 A 
ATOM      8  S   UNL     1      39.267   5.064  13.691  0.00  0.00    +0.000 S 
ENDROOT
BRANCH   6   9
ATOM      9  C   UNL     1      39.233   1.341  14.705  0.00  0.00    +0.000 A 
ATOM     10  C   UNL     1      40.304   0.500  14.498  0.00  0.00    +0.000 A 
ATOM     11  C   UNL     1      39.891  -0.794  14.740  0.00  0.00    +0.000 A 
ATOM     12  C   UNL     1      40.784  -1.971  14.614  0.00  0.00    +0.000 C 
ATOM     13  N   UNL     1      38.594  -0.764  15.089  0.00  0.00    +0.000 N 
ATOM     14  C   UNL     1      38.198   0.518  15.069  0.00  0.00    +0.000 A 
ATOM     15  C   UNL     1      36.809   0.982  15.400  0.00  0.00    +0.000 C 
BRANCH  13  16
ATOM     16  C   UNL     1      37.814  -1.922  15.417  0.00  0.00    +0.000 C 
BRANCH  16  17
ATOM     17  C   UNL     1      37.974  -2.303  16.844  0.00  0.00    +0.000 A 
ATOM     18  C   UNL     1      38.624  -3.483  17.131  0.00  0.00    +0.000 A 
ATOM     19  C   UNL     1      38.783  -3.855  18.462  0.00  0.00    +0.000 A 
ATOM     20  C   UNL     1      38.315  -3.090  19.492  0.00  0.00    +0.000 A 
ATOM     21  C   UNL     1      37.669  -1.915  19.194  0.00  0.00    +0.000 A 
ATOM     22  C   UNL     1      37.502  -1.530  17.880  0.00  0.00    +0.000 A 
ENDBRANCH  16  17
ENDBRANCH  13  16
ENDBRANCH   6   9
BRANCH   1  28
ATOM     23  C   UNL     1      39.577   6.848  19.728  0.00  0.00    +0.000 A 
ATOM     24  N   UNL     1      39.449   7.827  20.643  0.00  0.00    +0.000 NA
ATOM     25  C   UNL     1      38.435   8.725  20.592  0.00  0.00    +0.000 A 
ATOM     26  C   UNL     1      37.481   8.676  19.596  0.00  0.00    +0.000 A 
ATOM     27  C   UNL     1      37.590   7.687  18.650  0.00  0.00    +0.000 A 
ATOM     28  C   UNL     1      38.632   6.788  18.727  0.00  0.00    +0.000 A 
BRANCH  23  29
ATOM     29  O   UNL     1      40.612   5.922  19.768  0.00  0.00    +0.000 OA
BRANCH  29  31
ATOM     30  C   UNL     1      42.685   6.060  21.016  0.00  0.00    +0.000 C 
ATOM     31  C   UNL     1      41.952   6.434  19.750  0.00  0.00    +0.000 C 
ENDBRANCH  29  31
ENDBRANCH  23  29
ENDBRANCH   1  28
TORSDOF 6
ENDMDL
MODEL 3
REMARK VINA RESULT:      -8.1      1.699      2.459
REMARK  Name = 
REMARK  6 active torsions:
REMARK  status: ('A' for Active; 'I' for Inactive)
REMARK    1  A    between atoms: C_2  and  O_3
REMARK    2  A    between atoms: O_3  and  C_4
REMARK    3  A    between atoms: C_9  and  C_10
REMARK    4  A    between atoms: C_15  and  C_16
REMARK    5  A    between atoms: N_20  and  C_21
REMARK    6  A    between atoms: C_21  and  C_22
REMARK                            x       y       z     vdW  Elec       q    Type
REMARK                         _______ _______ _______ _____ _____    ______ ____
ROOT
ATOM      1  C   UNL     1      38.855   5.362  17.822  0.00  0.00    +0.000 C 
ATOM      2  O   UNL     1      38.693   4.172  18.193  0.00  0.00    +0.000 OA
ATOM      3  N   UNL     1      38.192   5.761  16.636  0.00  0.00    +0.000 NA
ATOM      4  C   UNL     1      37.367   4.826  15.897  0.00  0.00    +0.000 A 
ATOM      5  N   UNL     1      37.107   3.563  16.163  0.00  0.00    +0.000 NA
ATOM      6  C   UNL     1      36.335   2.885  15.368  0.00  0.00    +0.000 A 
ATOM      7  C   UNL     1      35.826   3.548  14.276  0.00  0.00    +0.000 A 
ATOM      8  S   UNL     1      36.495   5.107  14.464  0.00  0.00    +0.000 S 
ENDROOT
BRANCH   6   9
ATOM      9  C   UNL     1      35.994   1.453  15.600  0.00  0.00    +0.000 A 
ATOM     10  C   UNL     1      35.195   0.941  16.598  0.00  0.00    +0.000 A 
ATOM     11  C   UNL     1      35.142  -0.430  16.449  0.00  0.00    +0.000 A 
ATOM     12  C   UNL     1      34.370  -1.317  17.351  0.00  0.00    +0.000 C 
ATOM     13  N   UNL     1      35.890  -0.768  15.385  0.00  0.00    +0.000 N 
ATOM     14  C   UNL     1      36.401   0.363  14.874  0.00  0.00    +0.000 A 
ATOM     15  C   UNL     1      37.298   0.420  13.671  0.00  0.00    +0.000 C 
BRANCH  13  16
ATOM     16  C   UNL     1      36.076  -2.110  14.916  0.00  0.00    +0.000 C 
BRANCH  16  17
ATOM     17  C   UNL     1      37.101  -2.831  15.715  0.00  0.00    +0.000 A 
ATOM     18  C   UNL     1      36.766  -4.059  16.242  0.00  0.00    +0.000 A 
ATOM     19  C   UNL     1      37.713  -4.747  16.993  0.00  0.00    +0.000 A 
ATOM     20  C   UNL     1      38.962  -4.246  17.226  0.00  0.00    +0.000 A 
ATOM     21  C   UNL     1      39.285  -3.020  16.695  0.00  0.00    +0.000 A 
ATOM     22  C   UNL     1      38.358  -2.323  15.948  0.00  0.00    +0.000 A 
ENDBRANCH  16  17
ENDBRANCH  13  16
ENDBRANCH   6   9
BRANCH   1  28
ATOM     23  C   UNL     1      40.967   6.554  18.106  0.00  0.00    +0.000 A 
ATOM     24  N   UNL     1      41.738   7.408  18.803  0.00  0.00    +0.000 NA
ATOM     25  C   UNL     1      41.299   8.005  19.938  0.00  0.00    +0.000 A 
ATOM     26  C   UNL     1      40.035   7.763  20.434  0.00  0.00    +0.000 A 
ATOM     27  C   UNL     1      39.228   6.895  19.742  0.00  0.00    +0.000 A 
ATOM     28  C   UNL     1      39.701   6.302  18.590  0.00  0.00    +0.000 A 
BRANCH  23  29
ATOM     29  O   UNL     1      41.404   5.936  16.941  0.00  0.00    +0.000 OA
BRANCH  29  31
ATOM     30  C   UNL     1      43.214   6.749  15.550  0.00  0.00    +0.000 C 
ATOM     31  C   UNL     1      41.731   6.783  15.831  0.00  0.00    +0.000 C 
ENDBRANCH  29  31
ENDBRANCH  23  29
ENDBRANCH   1  28
TORSDOF 6
ENDMDL
MODEL 4
REMARK VINA RESULT:      -8.1      2.225      9.023
REMARK  Name = 
REMARK  6 active torsions:
REMARK  status: ('A' for Active; 'I' for Inactive)
REMARK    1  A    between atoms: C_2  and  O_3
REMARK    2  A    between atoms: O_3  and  C_4
REMARK    3  A    between atoms: C_9  and  C_10
REMARK    4  A    between atoms: C_15  and  C_16
REMARK    5  A    between atoms: N_20  and  C_21
REMARK    6  A    between atoms: C_21  and  C_22
REMARK                            x       y       z     vdW  Elec       q    Type
REMARK                         _______ _______ _______ _____ _____    ______ ____
ROOT
ATOM      1  C   UNL     1      36.750   1.319  16.985  0.00  0.00    +0.000 C 
ATOM      2  O   UNL     1      37.042   1.972  18.019  0.00  0.00    +0.000 OA
ATOM      3  N   UNL     1      37.161   1.863  15.743  0.00  0.00    +0.000 NA
ATOM      4  C   UNL     1      37.884   3.118  15.688  0.00  0.00    +0.000 A 
ATOM      5  N   UNL     1      38.255   3.904  16.677  0.00  0.00    +0.000 NA
ATOM      6  C   UNL     1      38.903   5.000  16.418  0.00  0.00    +0.000 A 
ATOM      7  C   UNL     1      39.165   5.273  15.096  0.00  0.00    +0.000 A 
ATOM      8  S   UNL     1      38.460   3.933  14.310  0.00  0.00    +0.000 S 
ENDROOT
BRANCH   6   9
ATOM      9  C   UNL     1      39.356   5.941  17.481  0.00  0.00    +0.000 A 
ATOM     10  C   UNL     1      38.630   6.379  18.567  0.00  0.00    +0.000 A 
ATOM     11  C   UNL     1      39.423   7.238  19.300  0.00  0.00    +0.000 A 
ATOM     12  C   UNL     1      38.967   7.905  20.543  0.00  0.00    +0.000 C 
ATOM     13  N   UNL     1      40.615   7.335  18.688  0.00  0.00    +0.000 N 
ATOM     14  C   UNL     1      40.576   6.556  17.597  0.00  0.00    +0.000 A 
ATOM     15  C   UNL     1      41.716   6.386  16.635  0.00  0.00    +0.000 C 
BRANCH  13  16
ATOM     16  C   UNL     1      41.705   8.141  19.158  0.00  0.00    +0.000 C 
BRANCH  16  17
ATOM     17  C   UNL     1      42.747   7.317  19.823  0.00  0.00    +0.000 A 
ATOM     18  C   UNL     1      44.035   7.386  19.339  0.00  0.00    +0.000 A 
ATOM     19  C   UNL     1      45.023   6.621  19.950  0.00  0.00    +0.000 A 
ATOM     20  C   UNL     1      44.758   5.803  21.011  0.00  0.00    +0.000 A 
ATOM     21  C   UNL     1      43.470   5.742  21.486  0.00  0.00    +0.000 A 
ATOM     22  C   UNL     1      42.478   6.494  20.892  0.00  0.00    +0.000 A 
ENDBRANCH  16  17
ENDBRANCH  13  16
ENDBRANCH   6   9
BRANCH   1  28
ATOM     23  C   UNL     1      36.757  -1.119  17.128  0.00  0.00    +0.000 A 
ATOM     24  N   UNL     1      36.088  -2.284  17.198  0.00  0.00    +0.000 NA
ATOM     25  C   UNL     1      34.733  -2.331  17.205  0.00  0.00    +0.000 A 
ATOM     26  C   UNL     1      33.974  -1.181  17.140  0.00  0.00    +0.000 A 
ATOM     27  C   UNL     1      34.633   0.021  17.068  0.00  0.00    +0.000 A 
ATOM     28  C   UNL     1      36.011   0.039  17.062  0.00  0.00    +0.000 A 
BRANCH  23  29
ATOM     29  O   UNL     1      38.145  -1.056  17.120  0.00  0.00    +0.000 OA
BRANCH  29  31
ATOM     30  C   UNL     1      39.553  -1.069  15.148  0.00  0.00    +0.000 C 
ATOM     31  C   UNL     1      38.835  -1.897  16.186  0.00  0.00    +0.000 C 
ENDBRANCH  29  31
ENDBRANCH  23  29
ENDBRANCH   1  28
TORSDOF 6
ENDMDL
MODEL 5
REMARK VINA RESULT:      -7.7      2.956      9.529
REMARK  Name = 
REMARK  6 active torsions:
REMARK  status: ('A' for Active; 'I' for Inactive)
REMARK    1  A    between atoms: C_2  and  O_3
REMARK    2  A    between atoms: O_3  and  C_4
REMARK    3  A    between atoms: C_9  and  C_10
REMARK    4  A    between atoms: C_15  and  C_16
REMARK    5  A    between atoms: N_20  and  C_21
REMARK    6  A    between atoms: C_21  and  C_22
REMARK                            x       y       z     vdW  Elec       q    Type
REMARK                         _______ _______ _______ _____ _____    ______ ____
ROOT
ATOM      1  C   UNL     1      37.453   0.375  14.868  0.00  0.00    +0.000 C 
ATOM      2  O   UNL     1      38.376   0.714  15.652  0.00  0.00    +0.000 OA
ATOM      3  N   UNL     1      36.797   1.413  14.162  0.00  0.00    +0.000 NA
ATOM      4  C   UNL     1      37.186   2.797  14.347  0.00  0.00    +0.000 A 
ATOM      5  N   UNL     1      38.124   3.296  15.125  0.00  0.00    +0.000 NA
ATOM      6  C   UNL     1      38.322   4.579  15.151  0.00  0.00    +0.000 A 
ATOM      7  C   UNL     1      37.519   5.351  14.344  0.00  0.00    +0.000 A 
ATOM      8  S   UNL     1      36.530   4.177  13.600  0.00  0.00    +0.000 S 
ENDROOT
BRANCH   6   9
ATOM      9  C   UNL     1      39.362   5.219  16.005  0.00  0.00    +0.000 A 
ATOM     10  C   UNL     1      40.463   5.930  15.579  0.00  0.00    +0.000 A 
ATOM     11  C   UNL     1      41.164   6.349  16.692  0.00  0.00    +0.000 A 
ATOM     12  C   UNL     1      42.412   7.145  16.615  0.00  0.00    +0.000 C 
ATOM     13  N   UNL     1      40.518   5.912  17.786  0.00  0.00    +0.000 N 
ATOM     14  C   UNL     1      39.436   5.234  17.375  0.00  0.00    +0.000 A 
ATOM     15  C   UNL     1      38.444   4.581  18.293  0.00  0.00    +0.000 C 
BRANCH  13  16
ATOM     16  C   UNL     1      40.948   6.153  19.133  0.00  0.00    +0.000 C 
BRANCH  16  17
ATOM     17  C   UNL     1      40.394   7.425  19.664  0.00  0.00    +0.000 A 
ATOM     18  C   UNL     1      39.125   7.407  20.198  0.00  0.00    +0.000 A 
ATOM     19  C   UNL     1      38.591   8.589  20.700  0.00  0.00    +0.000 A 
ATOM     20  C   UNL     1      39.283   9.767  20.678  0.00  0.00    +0.000 A 
ATOM     21  C   UNL     1      40.548   9.774  20.143  0.00  0.00    +0.000 A 
ATOM     22  C   UNL     1      41.093   8.610  19.640  0.00  0.00    +0.000 A 
ENDBRANCH  16  17
ENDBRANCH  13  16
ENDBRANCH   6   9
BRANCH   1  28
ATOM     23  C   UNL     1      37.818  -1.796  13.812  0.00  0.00    +0.000 A 
ATOM     24  N   UNL     1      37.472  -3.086  13.651  0.00  0.00    +0.000 NA
ATOM     25  C   UNL     1      36.430  -3.636  14.321  0.00  0.00    +0.000 A 
ATOM     26  C   UNL     1      35.672  -2.895  15.205  0.00  0.00    +0.000 A 
ATOM     27  C   UNL     1      36.005  -1.576  15.388  0.00  0.00    +0.000 A 
ATOM     28  C   UNL     1      37.069  -1.043  14.692  0.00  0.00    +0.000 A 
BRANCH  23  29
ATOM     29  O   UNL     1      38.883  -1.219  13.133  0.00  0.00    +0.000 OA
BRANCH  29  31
ATOM     30  C   UNL     1      41.010  -1.040  14.280  0.00  0.00    +0.000 C 
ATOM     31  C   UNL     1      40.173  -1.824  13.299  0.00  0.00    +0.000 C 
ENDBRANCH  29  31
ENDBRANCH  23  29
ENDBRANCH   1  28
TORSDOF 6
ENDMDL
MODEL 6
REMARK VINA RESULT:      -7.6      2.810      9.327
REMARK  Name = 
REMARK  6 active torsions:
REMARK  status: ('A' for Active; 'I' for Inactive)
REMARK    1  A    between atoms: C_2  and  O_3
REMARK    2  A    between atoms: O_3  and  C_4
REMARK    3  A    between atoms: C_9  and  C_10
REMARK    4  A    between atoms: C_15  and  C_16
REMARK    5  A    between atoms: N_20  and  C_21
REMARK    6  A    between atoms: C_21  and  C_22
REMARK                            x       y       z     vdW  Elec       q    Type
REMARK                         _______ _______ _______ _____ _____    ______ ____
ROOT
ATOM      1  C   UNL     1      38.116   0.573  14.539  0.00  0.00    +0.000 C 
ATOM      2  O   UNL     1      38.958   0.896  15.415  0.00  0.00    +0.000 OA
ATOM      3  N   UNL     1      37.523   1.625  13.798  0.00  0.00    +0.000 NA
ATOM      4  C   UNL     1      37.883   3.006  14.054  0.00  0.00    +0.000 A 
ATOM      5  N   UNL     1      38.739   3.489  14.930  0.00  0.00    +0.000 NA
ATOM      6  C   UNL     1      38.923   4.773  15.007  0.00  0.00    +0.000 A 
ATOM      7  C   UNL     1      38.196   5.561  14.146  0.00  0.00    +0.000 A 
ATOM      8  S   UNL     1      37.291   4.401  13.282  0.00  0.00    +0.000 S 
ENDROOT
BRANCH   6   9
ATOM      9  C   UNL     1      39.873   5.397  15.971  0.00  0.00    +0.000 A 
ATOM     10  C   UNL     1      41.056   6.036  15.675  0.00  0.00    +0.000 A 
ATOM     11  C   UNL     1      41.623   6.466  16.857  0.00  0.00    +0.000 A 
ATOM     12  C   UNL     1      42.912   7.197  16.923  0.00  0.00    +0.000 C 
ATOM     13  N   UNL     1      40.816   6.105  17.868  0.00  0.00    +0.000 N 
ATOM     14  C   UNL     1      39.764   5.463  17.337  0.00  0.00    +0.000 A 
ATOM     15  C   UNL     1      38.625   4.897  18.134  0.00  0.00    +0.000 C 
BRANCH  13  16
ATOM     16  C   UNL     1      41.073   6.380  19.252  0.00  0.00    +0.000 C 
BRANCH  16  17
ATOM     17  C   UNL     1      40.399   7.627  19.696  0.00  0.00    +0.000 A 
ATOM     18  C   UNL     1      39.205   7.512  20.373  0.00  0.00    +0.000 A 
ATOM     19  C   UNL     1      38.561   8.670  20.796  0.00  0.00    +0.000 A 
ATOM     20  C   UNL     1      39.072   9.915  20.562  0.00  0.00    +0.000 A 
ATOM     21  C   UNL     1      40.264  10.017  19.887  0.00  0.00    +0.000 A 
ATOM     22  C   UNL     1      40.917   8.879  19.459  0.00  0.00    +0.000 A 
ENDBRANCH  16  17
ENDBRANCH  13  16
ENDBRANCH   6   9
BRANCH   1  28
ATOM     23  C   UNL     1      36.654  -1.340  14.945  0.00  0.00    +0.000 A 
ATOM     24  N   UNL     1      36.331  -2.627  14.723  0.00  0.00    +0.000 NA
ATOM     25  C   UNL     1      37.057  -3.414  13.891  0.00  0.00    +0.000 A 
ATOM     26  C   UNL     1      38.168  -2.930  13.232  0.00  0.00    +0.000 A 
ATOM     27  C   UNL     1      38.520  -1.620  13.442  0.00  0.00    +0.000 A 
ATOM     28  C   UNL     1      37.762  -0.843  14.292  0.00  0.00    +0.000 A 
BRANCH  23  29
ATOM     29  O   UNL     1      35.919  -0.522  15.793  0.00  0.00    +0.000 OA
BRANCH  29  31
ATOM     30  C   UNL     1      35.903   0.316  18.067  0.00  0.00    +0.000 C 
ATOM     31  C   UNL     1      35.852  -0.901  17.175  0.00  0.00    +0.000 C 
ENDBRANCH  29  31
ENDBRANCH  23  29
ENDBRANCH   1  28
TORSDOF 6
ENDMDL
MODEL 7
REMARK VINA RESULT:      -7.5      2.523      8.878
REMARK  Name = 
REMARK  6 active torsions:
REMARK  status: ('A' for Active; 'I' for Inactive)
REMARK    1  A    between atoms: C_2  and  O_3
REMARK    2  A    between atoms: O_3  and  C_4
REMARK    3  A    between atoms: C_9  and  C_10
REMARK    4  A    between atoms: C_15  and  C_16
REMARK    5  A    between atoms: N_20  and  C_21
REMARK    6  A    between atoms: C_21  and  C_22
REMARK                            x       y       z     vdW  Elec       q    Type
REMARK                         _______ _______ _______ _____ _____    ______ ____
ROOT
ATOM      1  C   UNL     1      36.919   0.397  15.534  0.00  0.00    +0.000 C 
ATOM      2  O   UNL     1      37.071   1.351  16.338  0.00  0.00    +0.000 OA
ATOM      3  N   UNL     1      37.028   0.695  14.154  0.00  0.00    +0.000 NA
ATOM      4  C   UNL     1      37.302   2.047  13.707  0.00  0.00    +0.000 A 
ATOM      5  N   UNL     1      37.483   3.135  14.426  0.00  0.00    +0.000 NA
ATOM      6  C   UNL     1      37.720   4.265  13.832  0.00  0.00    +0.000 A 
ATOM      7  C   UNL     1      37.769   4.250  12.457  0.00  0.00    +0.000 A 
ATOM      8  S   UNL     1      37.469   2.607  12.110  0.00  0.00    +0.000 S 
ENDROOT
BRANCH   6   9
ATOM      9  C   UNL     1      37.935   5.540  14.574  0.00  0.00    +0.000 A 
ATOM     10  C   UNL     1      36.988   6.493  14.876  0.00  0.00    +0.000 A 
ATOM     11  C   UNL     1      37.607   7.511  15.573  0.00  0.00    +0.000 A 
ATOM     12  C   UNL     1      36.891   8.714  16.063  0.00  0.00    +0.000 C 
ATOM     13  N   UNL     1      38.908   7.203  15.702  0.00  0.00    +0.000 N 
ATOM     14  C   UNL     1      39.106   6.018  15.104  0.00  0.00    +0.000 A 
ATOM     15  C   UNL     1      40.431   5.318  15.026  0.00  0.00    +0.000 C 
BRANCH  13  16
ATOM     16  C   UNL     1      39.875   8.024  16.372  0.00  0.00    +0.000 C 
BRANCH  16  17
ATOM     17  C   UNL     1      40.213   7.487  17.715  0.00  0.00    +0.000 A 
ATOM     18  C   UNL     1      41.495   7.029  17.926  0.00  0.00    +0.000 A 
ATOM     19  C   UNL     1      41.828   6.522  19.178  0.00  0.00    +0.000 A 
ATOM     20  C   UNL     1      40.927   6.463  20.202  0.00  0.00    +0.000 A 
ATOM     21  C   UNL     1      39.652   6.923  19.981  0.00  0.00    +0.000 A 
ATOM     22  C   UNL     1      39.303   7.428  18.745  0.00  0.00    +0.000 A 
ENDBRANCH  16  17
ENDBRANCH  13  16
ENDBRANCH   6   9
BRANCH   1  28
ATOM     23  C   UNL     1      37.722  -1.767  16.332  0.00  0.00    +0.000 A 
ATOM     24  N   UNL     1      37.471  -3.016  16.764  0.00  0.00    +0.000 NA
ATOM     25  C   UNL     1      36.207  -3.491  16.883  0.00  0.00    +0.000 A 
ATOM     26  C   UNL     1      35.114  -2.712  16.563  0.00  0.00    +0.000 A 
ATOM     27  C   UNL     1      35.343  -1.433  16.120  0.00  0.00    +0.000 A 
ATOM     28  C   UNL     1      36.639  -0.977  16.009  0.00  0.00    +0.000 A 
BRANCH  23  29
ATOM     29  O   UNL     1      39.012  -1.267  16.206  0.00  0.00    +0.000 OA
BRANCH  29  31
ATOM     30  C   UNL     1      39.644  -1.987  13.980  0.00  0.00    +0.000 C 
ATOM     31  C   UNL     1      39.950  -2.052  15.457  0.00  0.00    +0.000 C 
ENDBRANCH  29  31
ENDBRANCH  23  29
ENDBRANCH   1  28
TORSDOF 6
ENDMDL
MODEL 8
REMARK VINA RESULT:      -7.3      2.609      9.022
REMARK  Name = 
REMARK  6 active torsions:
REMARK  status: ('A' for Active; 'I' for Inactive)
REMARK    1  A    between atoms: C_2  and  O_3
REMARK    2  A    between atoms: O_3  and  C_4
REMARK    3  A    between atoms: C_9  and  C_10
REMARK    4  A    between atoms: C_15  and  C_16
REMARK    5  A    between atoms: N_20  and  C_21
REMARK    6  A    between atoms: C_21  and  C_22
REMARK                            x       y       z     vdW  Elec       q    Type
REMARK                         _______ _______ _______ _____ _____    ______ ____
ROOT
ATOM      1  C   UNL     1      37.742   0.361  15.118  0.00  0.00    +0.000 C 
ATOM      2  O   UNL     1      38.845   0.858  15.458  0.00  0.00    +0.000 OA
ATOM      3  N   UNL     1      36.714   1.266  14.754  0.00  0.00    +0.000 NA
ATOM      4  C   UNL     1      36.943   2.697  14.780  0.00  0.00    +0.000 A 
ATOM      5  N   UNL     1      38.035   3.354  15.111  0.00  0.00    +0.000 NA
ATOM      6  C   UNL     1      38.041   4.652  15.069  0.00  0.00    +0.000 A 
ATOM      7  C   UNL     1      36.878   5.270  14.671  0.00  0.00    +0.000 A 
ATOM      8  S   UNL     1      35.850   3.938  14.383  0.00  0.00    +0.000 S 
ENDROOT
BRANCH   6   9
ATOM      9  C   UNL     1      39.236   5.468  15.429  0.00  0.00    +0.000 A 
ATOM     10  C   UNL     1      40.466   5.454  14.811  0.00  0.00    +0.000 A 
ATOM     11  C   UNL     1      41.285   6.358  15.457  0.00  0.00    +0.000 A 
ATOM     12  C   UNL     1      42.691   6.610  15.060  0.00  0.00    +0.000 C 
ATOM     13  N   UNL     1      40.584   6.923  16.454  0.00  0.00    +0.000 N 
ATOM     14  C   UNL     1      39.353   6.389  16.438  0.00  0.00    +0.000 A 
ATOM     15  C   UNL     1      38.258   6.754  17.397  0.00  0.00    +0.000 C 
BRANCH  13  16
ATOM     16  C   UNL     1      41.102   7.916  17.350  0.00  0.00    +0.000 C 
BRANCH  16  17
ATOM     17  C   UNL     1      41.760   7.298  18.530  0.00  0.00    +0.000 A 
ATOM     18  C   UNL     1      40.961   6.859  19.561  0.00  0.00    +0.000 A 
ATOM     19  C   UNL     1      41.561   6.278  20.674  0.00  0.00    +0.000 A 
ATOM     20  C   UNL     1      42.915   6.131  20.777  0.00  0.00    +0.000 A 
ATOM     21  C   UNL     1      43.703   6.573  19.742  0.00  0.00    +0.000 A 
ATOM     22  C   UNL     1      43.125   7.152  18.631  0.00  0.00    +0.000 A 
ENDBRANCH  16  17
ENDBRANCH  13  16
ENDBRANCH   6   9
BRANCH   1  28
ATOM     23  C   UNL     1      37.397  -1.740  16.313  0.00  0.00    +0.000 A 
ATOM     24  N   UNL     1      37.202  -3.071  16.297  0.00  0.00    +0.000 NA
ATOM     25  C   UNL     1      37.133  -3.770  15.138  0.00  0.00    +0.000 A 
ATOM     26  C   UNL     1      37.262  -3.146  13.914  0.00  0.00    +0.000 A 
ATOM     27  C   UNL     1      37.461  -1.788  13.903  0.00  0.00    +0.000 A 
ATOM     28  C   UNL     1      37.527  -1.103  15.097  0.00  0.00    +0.000 A 
BRANCH  23  29
ATOM     29  O   UNL     1      37.469  -1.011  17.494  0.00  0.00    +0.000 OA
BRANCH  29  31
ATOM     30  C   UNL     1      35.786  -0.549  19.175  0.00  0.00    +0.000 C 
ATOM     31  C   UNL     1      36.787  -1.544  18.637  0.00  0.00    +0.000 C 
ENDBRANCH  29  31
ENDBRANCH  23  29
ENDBRANCH   1  28
TORSDOF 6
ENDMDL
MODEL 9
REMARK VINA RESULT:      -7.3     25.778     29.775
REMARK  Name = 
REMARK  6 active torsions:
REMARK  status: ('A' for Active; 'I' for Inactive)
REMARK    1  A    between atoms: C_2  and  O_3
REMARK    2  A    between atoms: O_3  and  C_4
REMARK    3  A    between atoms: C_9  and  C_10
REMARK    4  A    between atoms: C_15  and  C_16
REMARK    5  A    between atoms: N_20  and  C_21
REMARK    6  A    between atoms: C_21  and  C_22
REMARK                            x       y       z     vdW  Elec       q    Type
REMARK                         _______ _______ _______ _____ _____    ______ ____
ROOT
ATOM      1  C   UNL     1      23.508  12.890  43.430  0.00  0.00    +0.000 C 
ATOM      2  O   UNL     1      23.400  13.887  42.673  0.00  0.00    +0.000 OA
ATOM      3  N   UNL     1      24.632  12.050  43.231  0.00  0.00    +0.000 NA
ATOM      4  C   UNL     1      25.602  12.345  42.196  0.00  0.00    +0.000 A 
ATOM      5  N   UNL     1      25.620  13.342  41.337  0.00  0.00    +0.000 NA
ATOM      6  C   UNL     1      26.588  13.432  40.477  0.00  0.00    +0.000 A 
ATOM      7  C   UNL     1      27.556  12.456  40.521  0.00  0.00    +0.000 A 
ATOM      8  S   UNL     1      27.007  11.470  41.801  0.00  0.00    +0.000 S 
ENDROOT
BRANCH   6   9
ATOM      9  C   UNL     1      26.679  14.530  39.473  0.00  0.00    +0.000 A 
ATOM     10  C   UNL     1      27.810  15.222  39.100  0.00  0.00    +0.000 A 
ATOM     11  C   UNL     1      27.452  16.151  38.144  0.00  0.00    +0.000 A 
ATOM     12  C   UNL     1      28.419  17.080  37.510  0.00  0.00    +0.000 C 
ATOM     13  N   UNL     1      26.131  16.044  37.925  0.00  0.00    +0.000 N 
ATOM     14  C   UNL     1      25.666  15.070  38.722  0.00  0.00    +0.000 A 
ATOM     15  C   UNL     1      24.230  14.636  38.781  0.00  0.00    +0.000 C 
BRANCH  13  16
ATOM     16  C   UNL     1      25.394  16.849  36.995  0.00  0.00    +0.000 C 
BRANCH  16  17
ATOM     17  C   UNL     1      25.477  16.303  35.615  0.00  0.00    +0.000 A 
ATOM     18  C   UNL     1      25.095  17.118  34.572  0.00  0.00    +0.000 A 
ATOM     19  C   UNL     1      25.167  16.623  33.274  0.00  0.00    +0.000 A 
ATOM     20  C   UNL     1      25.601  15.358  33.000  0.00  0.00    +0.000 A 
ATOM     21  C   UNL     1      25.980  14.554  34.048  0.00  0.00    +0.000 A 
ATOM     22  C   UNL     1      25.915  15.028  35.342  0.00  0.00    +0.000 A 
ENDBRANCH  16  17
ENDBRANCH  13  16
ENDBRANCH   6   9
BRANCH   1  28
ATOM     23  C   UNL     1      21.344  11.973  44.094  0.00  0.00    +0.000 A 
ATOM     24  N   UNL     1      20.432  11.714  45.048  0.00  0.00    +0.000 NA
ATOM     25  C   UNL     1      20.635  12.057  46.344  0.00  0.00    +0.000 A 
ATOM     26  C   UNL     1      21.792  12.692  46.746  0.00  0.00    +0.000 A 
ATOM     27  C   UNL     1      22.739  12.967  45.792  0.00  0.00    +0.000 A 
ATOM     28  C   UNL     1      22.506  12.606  44.482  0.00  0.00    +0.000 A 
BRANCH  23  29
ATOM     29  O   UNL     1      21.150  11.626  42.763  0.00  0.00    +0.000 OA
BRANCH  29  31
ATOM     30  C   UNL     1      19.917  13.549  41.953  0.00  0.00    +0.000 C 
ATOM     31  C   UNL     1      19.927  12.052  42.146  0.00  0.00    +0.000 C 
ENDBRANCH  29  31
ENDBRANCH  23  29
ENDBRANCH   1  28
TORSDOF 6
ENDMDL
MODEL 10
REMARK VINA RESULT:      -7.1      2.950      9.731
REMARK  Name = 
REMARK  6 active torsions:
REMARK  status: ('A' for Active; 'I' for Inactive)
REMARK    1  A    between atoms: C_2  and  O_3
REMARK    2  A    between atoms: O_3  and  C_4
REMARK    3  A    between atoms: C_9  and  C_10
REMARK    4  A    between atoms: C_15  and  C_16
REMARK    5  A    between atoms: N_20  and  C_21
REMARK    6  A    between atoms: C_21  and  C_22
REMARK                            x       y       z     vdW  Elec       q    Type
REMARK                         _______ _______ _______ _____ _____    ______ ____
ROOT
ATOM      1  C   UNL     1      39.202   0.137  13.887  0.00  0.00    +0.000 C 
ATOM      2  O   UNL     1      39.917   1.098  14.270  0.00  0.00    +0.000 OA
ATOM      3  N   UNL     1      37.846   0.142  14.294  0.00  0.00    +0.000 NA
ATOM      4  C   UNL     1      37.323   1.215  15.117  0.00  0.00    +0.000 A 
ATOM      5  N   UNL     1      37.946   2.274  15.589  0.00  0.00    +0.000 NA
ATOM      6  C   UNL     1      37.295   3.131  16.316  0.00  0.00    +0.000 A 
ATOM      7  C   UNL     1      35.965   2.870  16.550  0.00  0.00    +0.000 A 
ATOM      8  S   UNL     1      35.739   1.404  15.707  0.00  0.00    +0.000 S 
ENDROOT
BRANCH   6   9
ATOM      9  C   UNL     1      37.929   4.354  16.887  0.00  0.00    +0.000 A 
ATOM     10  C   UNL     1      38.545   4.473  18.113  0.00  0.00    +0.000 A 
ATOM     11  C   UNL     1      38.995   5.771  18.247  0.00  0.00    +0.000 A 
ATOM     12  C   UNL     1      39.710   6.265  19.448  0.00  0.00    +0.000 C 
ATOM     13  N   UNL     1      38.668   6.446  17.133  0.00  0.00    +0.000 N 
ATOM     14  C   UNL     1      38.029   5.596  16.315  0.00  0.00    +0.000 A 
ATOM     15  C   UNL     1      37.496   5.960  14.960  0.00  0.00    +0.000 C 
BRANCH  13  16
ATOM     16  C   UNL     1      38.972   7.829  16.903  0.00  0.00    +0.000 C 
BRANCH  16  17
ATOM     17  C   UNL     1      37.767   8.685  17.047  0.00  0.00    +0.000 A 
ATOM     18  C   UNL     1      37.132   8.710  18.269  0.00  0.00    +0.000 A 
ATOM     19  C   UNL     1      36.002   9.507  18.422  0.00  0.00    +0.000 A 
ATOM     20  C   UNL     1      35.500  10.262  17.400  0.00  0.00    +0.000 A 
ATOM     21  C   UNL     1      36.141  10.229  16.185  0.00  0.00    +0.000 A 
ATOM     22  C   UNL     1      37.264   9.445  16.016  0.00  0.00    +0.000 A 
ENDBRANCH  16  17
ENDBRANCH  13  16
ENDBRANCH   6   9
BRANCH   1  28
ATOM     23  C   UNL     1      40.432  -1.963  13.689  0.00  0.00    +0.000 A 
ATOM     24  N   UNL     1      40.935  -2.951  12.928  0.00  0.00    +0.000 NA
ATOM     25  C   UNL     1      40.788  -2.962  11.580  0.00  0.00    +0.000 A 
ATOM     26  C   UNL     1      40.112  -1.954  10.923  0.00  0.00    +0.000 A 
ATOM     27  C   UNL     1      39.589  -0.933  11.678  0.00  0.00    +0.000 A 
ATOM     28  C   UNL     1      39.754  -0.949  13.046  0.00  0.00    +0.000 A 
BRANCH  23  29
ATOM     29  O   UNL     1      40.575  -1.940  15.071  0.00  0.00    +0.000 OA
BRANCH  29  31
ATOM     30  C   UNL     1      38.586  -3.006  15.952  0.00  0.00    +0.000 C 
ATOM     31  C   UNL     1      40.086  -3.074  15.800  0.00  0.00    +0.000 C 
ENDBRANCH  29  31
ENDBRANCH  23  29
ENDBRANCH   1  28
TORSDOF 6
ENDMDL
