MODEL 1
REMARK VINA RESULT:      -7.2      0.000      0.000
REMARK  Name = 
REMARK  4 active torsions:
REMARK  status: ('A' for Active; 'I' for Inactive)
REMARK    1  A    between atoms: O_2  and  C_3
REMARK    2  A    between atoms: C_6  and  O_7
REMARK    3  A    between atoms: C_9  and  C_10
REMARK    4  A    between atoms: C_14  and  N_15
REMARK                            x       y       z     vdW  Elec       q    Type
REMARK                         _______ _______ _______ _____ _____    ______ ____
ROOT
ATOM      1  C   UNL     1      16.980  10.610  36.980  0.00  0.00    +0.000 A 
ATOM      2  C   UNL     1      16.024  11.526  36.591  0.00  0.00    +0.000 A 
ATOM      3  C   UNL     1      15.909  11.523  35.215  0.00  0.00    +0.000 A 
ATOM      4  C   UNL     1      15.140  12.207  34.287  0.00  0.00    +0.000 A 
ATOM      5  C   UNL     1      15.261  11.974  32.941  0.00  0.00    +0.000 A 
ATOM      6  C   UNL     1      16.181  11.028  32.546  0.00  0.00    +0.000 A 
ATOM      7  C   UNL     1      16.971  10.320  33.433  0.00  0.00    +0.000 A 
ATOM      8  C   UNL     1      16.820  10.583  34.780  0.00  0.00    +0.000 A 
ATOM      9  N   UNL     1      17.444  10.055  35.850  0.00  0.00    +0.000 NA
ENDROOT
BRANCH   1  14
ATOM     10  C   UNL     1      17.053   9.532  40.577  0.00  0.00    +0.000 A 
ATOM     11  C   UNL     1      18.384   9.662  40.875  0.00  0.00    +0.000 A 
ATOM     12  C   UNL     1      19.243  10.101  39.898  0.00  0.00    +0.000 A 
ATOM     13  C   UNL     1      18.758  10.402  38.639  0.00  0.00    +0.000 A 
ATOM     14  C   UNL     1      17.427  10.280  38.314  0.00  0.00    +0.000 A 
ATOM     15  C   UNL     1      16.594   9.837  39.321  0.00  0.00    +0.000 A 
BRANCH  10  17
ATOM     16  C   UNL     1      15.899   7.715  41.628  0.00  0.00    +0.000 C 
ATOM     17  O   UNL     1      16.185   9.095  41.547  0.00  0.00    +0.000 OA
ENDBRANCH  10  17
BRANCH  13  18
ATOM     18  O   UNL     1      19.677  10.847  37.674  0.00  0.00    +0.000 OA
ATOM     19  C   UNL     1      20.782  10.054  37.293  0.00  0.00    +0.000 C 
ENDBRANCH  13  18
ENDBRANCH   1  14
BRANCH   5  20
ATOM     20  N   UNL     1      14.491  12.655  31.962  0.00  0.00    +0.000 N 
ATOM     21  O   UNL     1      14.495  12.317  30.765  0.00  0.00    +0.000 OA
ATOM     22  O   UNL     1      13.707  13.723  32.314  0.00  0.00    +0.000 OA
ENDBRANCH   5  20
TORSDOF 4
ENDMDL
MODEL 2
REMARK VINA RESULT:      -6.8      1.646      2.094
REMARK  Name = 
REMARK  4 active torsions:
REMARK  status: ('A' for Active; 'I' for Inactive)
REMARK    1  A    between atoms: O_2  and  C_3
REMARK    2  A    between atoms: C_6  and  O_7
REMARK    3  A    between atoms: C_9  and  C_10
REMARK    4  A    between atoms: C_14  and  N_15
REMARK                            x       y       z     vdW  Elec       q    Type
REMARK                         _______ _______ _______ _____ _____    ______ ____
ROOT
ATOM      1  C   UNL     1      17.990   9.885  36.983  0.00  0.00    +0.000 A 
ATOM      2  C   UNL     1      18.111   9.554  35.649  0.00  0.00    +0.000 A 
ATOM      3  C   UNL     1      17.202  10.279  34.905  0.00  0.00    +0.000 A 
ATOM      4  C   UNL     1      16.872  10.367  33.561  0.00  0.00    +0.000 A 
ATOM      5  C   UNL     1      15.887  11.210  33.117  0.00  0.00    +0.000 A 
ATOM      6  C   UNL     1      15.235  11.972  34.062  0.00  0.00    +0.000 A 
ATOM      7  C   UNL     1      15.528  11.919  35.413  0.00  0.00    +0.000 A 
ATOM      8  C   UNL     1      16.526  11.057  35.821  0.00  0.00    +0.000 A 
ATOM      9  N   UNL     1      17.014  10.803  37.051  0.00  0.00    +0.000 NA
ENDROOT
BRANCH   1  14
ATOM     10  C   UNL     1      18.917   8.156  40.186  0.00  0.00    +0.000 A 
ATOM     11  C   UNL     1      20.256   8.433  40.270  0.00  0.00    +0.000 A 
ATOM     12  C   UNL     1      20.841   9.183  39.279  0.00  0.00    +0.000 A 
ATOM     13  C   UNL     1      20.079   9.641  38.221  0.00  0.00    +0.000 A 
ATOM     14  C   UNL     1      18.734   9.377  38.113  0.00  0.00    +0.000 A 
ATOM     15  C   UNL     1      18.180   8.622  39.127  0.00  0.00    +0.000 A 
BRANCH  10  17
ATOM     16  C   UNL     1      17.998   6.060  40.898  0.00  0.00    +0.000 C 
ATOM     17  O   UNL     1      18.321   7.408  41.171  0.00  0.00    +0.000 OA
ENDBRANCH  10  17
BRANCH  13  18
ATOM     18  O   UNL     1      20.725  10.404  37.234  0.00  0.00    +0.000 OA
ATOM     19  C   UNL     1      21.890   9.933  36.589  0.00  0.00    +0.000 C 
ENDBRANCH  13  18
ENDBRANCH   1  14
BRANCH   5  20
ATOM     20  N   UNL     1      15.522  11.327  31.750  0.00  0.00    +0.000 N 
ATOM     21  O   UNL     1      14.623  10.631  31.244  0.00  0.00    +0.000 OA
ATOM     22  O   UNL     1      16.161  12.223  30.934  0.00  0.00    +0.000 OA
ENDBRANCH   5  20
TORSDOF 4
ENDMDL
MODEL 3
REMARK VINA RESULT:      -6.7      3.490      5.000
REMARK  Name = 
REMARK  4 active torsions:
REMARK  status: ('A' for Active; 'I' for Inactive)
REMARK    1  A    between atoms: O_2  and  C_3
REMARK    2  A    between atoms: C_6  and  O_7
REMARK    3  A    between atoms: C_9  and  C_10
REMARK    4  A    between atoms: C_14  and  N_15
REMARK                            x       y       z     vdW  Elec       q    Type
REMARK                         _______ _______ _______ _____ _____    ______ ____
ROOT
ATOM      1  C   UNL     1      18.302  11.443  37.525  0.00  0.00    +0.000 A 
ATOM      2  C   UNL     1      17.322  10.743  38.198  0.00  0.00    +0.000 A 
ATOM      3  C   UNL     1      16.077  11.154  37.767  0.00  0.00    +0.000 A 
ATOM      4  C   UNL     1      14.766  10.819  38.071  0.00  0.00    +0.000 A 
ATOM      5  C   UNL     1      13.706  11.427  37.450  0.00  0.00    +0.000 A 
ATOM      6  C   UNL     1      13.996  12.387  36.506  0.00  0.00    +0.000 A 
ATOM      7  C   UNL     1      15.285  12.756  36.168  0.00  0.00    +0.000 A 
ATOM      8  C   UNL     1      16.326  12.121  36.816  0.00  0.00    +0.000 A 
ATOM      9  N   UNL     1      17.658  12.274  36.691  0.00  0.00    +0.000 NA
ENDROOT
BRANCH   1  14
ATOM     10  C   UNL     1      21.844  10.208  37.342  0.00  0.00    +0.000 A 
ATOM     11  C   UNL     1      22.524  11.231  37.947  0.00  0.00    +0.000 A 
ATOM     12  C   UNL     1      21.817  12.314  38.410  0.00  0.00    +0.000 A 
ATOM     13  C   UNL     1      20.444  12.356  38.258  0.00  0.00    +0.000 A 
ATOM     14  C   UNL     1      19.738  11.342  37.654  0.00  0.00    +0.000 A 
ATOM     15  C   UNL     1      20.481  10.271  37.203  0.00  0.00    +0.000 A 
BRANCH  10  17
ATOM     16  C   UNL     1      23.786   9.330  36.246  0.00  0.00    +0.000 C 
ATOM     17  O   UNL     1      22.541   9.120  36.876  0.00  0.00    +0.000 OA
ENDBRANCH  10  17
BRANCH  13  18
ATOM     18  O   UNL     1      19.767  13.486  38.748  0.00  0.00    +0.000 OA
ATOM     19  C   UNL     1      20.469  14.574  39.311  0.00  0.00    +0.000 C 
ENDBRANCH  13  18
ENDBRANCH   1  14
BRANCH   5  20
ATOM     20  N   UNL     1      12.352  11.111  37.736  0.00  0.00    +0.000 N 
ATOM     21  O   UNL     1      11.405  11.711  37.198  0.00  0.00    +0.000 OA
ATOM     22  O   UNL     1      12.044  10.118  38.629  0.00  0.00    +0.000 OA
ENDBRANCH   5  20
TORSDOF 4
ENDMDL
MODEL 4
REMARK VINA RESULT:      -6.5     19.629     22.474
REMARK  Name = 
REMARK  4 active torsions:
REMARK  status: ('A' for Active; 'I' for Inactive)
REMARK    1  A    between atoms: O_2  and  C_3
REMARK    2  A    between atoms: C_6  and  O_7
REMARK    3  A    between atoms: C_9  and  C_10
REMARK    4  A    between atoms: C_14  and  N_15
REMARK                            x       y       z     vdW  Elec       q    Type
REMARK                         _______ _______ _______ _____ _____    ______ ____
ROOT
ATOM      1  C   UNL     1      29.974  23.331  25.554  0.00  0.00    +0.000 A 
ATOM      2  C   UNL     1      30.168  22.159  26.255  0.00  0.00    +0.000 A 
ATOM      3  C   UNL     1      30.952  22.405  27.364  0.00  0.00    +0.000 A 
ATOM      4  C   UNL     1      31.460  21.640  28.403  0.00  0.00    +0.000 A 
ATOM      5  C   UNL     1      32.235  22.193  29.390  0.00  0.00    +0.000 A 
ATOM      6  C   UNL     1      32.490  23.544  29.308  0.00  0.00    +0.000 A 
ATOM      7  C   UNL     1      32.007  24.348  28.292  0.00  0.00    +0.000 A 
ATOM      8  C   UNL     1      31.230  23.754  27.317  0.00  0.00    +0.000 A 
ATOM      9  N   UNL     1      30.636  24.282  26.230  0.00  0.00    +0.000 NA
ENDROOT
BRANCH   1  14
ATOM     10  C   UNL     1      29.035  24.180  22.017  0.00  0.00    +0.000 A 
ATOM     11  C   UNL     1      27.688  23.932  22.024  0.00  0.00    +0.000 A 
ATOM     12  C   UNL     1      27.100  23.490  23.184  0.00  0.00    +0.000 A 
ATOM     13  C   UNL     1      27.869  23.303  24.318  0.00  0.00    +0.000 A 
ATOM     14  C   UNL     1      29.223  23.545  24.337  0.00  0.00    +0.000 A 
ATOM     15  C   UNL     1      29.778  23.988  23.155  0.00  0.00    +0.000 A 
BRANCH  10  17
ATOM     16  C   UNL     1      29.482  25.977  20.497  0.00  0.00    +0.000 C 
ATOM     17  O   UNL     1      29.633  24.622  20.863  0.00  0.00    +0.000 OA
ENDBRANCH  10  17
BRANCH  13  18
ATOM     18  O   UNL     1      27.221  22.851  25.479  0.00  0.00    +0.000 OA
ATOM     19  C   UNL     1      26.027  23.452  25.934  0.00  0.00    +0.000 C 
ENDBRANCH  13  18
ENDBRANCH   1  14
BRANCH   5  20
ATOM     20  N   UNL     1      32.773  21.442  30.468  0.00  0.00    +0.000 N 
ATOM     21  O   UNL     1      32.061  20.726  31.195  0.00  0.00    +0.000 OA
ATOM     22  O   UNL     1      34.115  21.485  30.744  0.00  0.00    +0.000 OA
ENDBRANCH   5  20
TORSDOF 4
ENDMDL
MODEL 5
REMARK VINA RESULT:      -6.3     29.039     31.423
REMARK  Name = 
REMARK  4 active torsions:
REMARK  status: ('A' for Active; 'I' for Inactive)
REMARK    1  A    between atoms: O_2  and  C_3
REMARK    2  A    between atoms: C_6  and  O_7
REMARK    3  A    between atoms: C_9  and  C_10
REMARK    4  A    between atoms: C_14  and  N_15
REMARK                            x       y       z     vdW  Elec       q    Type
REMARK                         _______ _______ _______ _____ _____    ______ ____
ROOT
ATOM      1  C   UNL     1      32.415  21.520  11.535  0.00  0.00    +0.000 A 
ATOM      2  C   UNL     1      31.824  22.169  12.600  0.00  0.00    +0.000 A 
ATOM      3  C   UNL     1      30.466  22.286  12.378  0.00  0.00    +0.000 A 
ATOM      4  C   UNL     1      29.395  22.826  13.073  0.00  0.00    +0.000 A 
ATOM      5  C   UNL     1      28.120  22.786  12.573  0.00  0.00    +0.000 A 
ATOM      6  C   UNL     1      27.943  22.184  11.346  0.00  0.00    +0.000 A 
ATOM      7  C   UNL     1      28.979  21.632  10.615  0.00  0.00    +0.000 A 
ATOM      8  C   UNL     1      30.249  21.692  11.153  0.00  0.00    +0.000 A 
ATOM      9  N   UNL     1      31.425  21.244  10.673  0.00  0.00    +0.000 NA
ENDROOT
BRANCH   1  14
ATOM     10  C   UNL     1      35.745  19.789  11.690  0.00  0.00    +0.000 A 
ATOM     11  C   UNL     1      36.515  20.605  10.905  0.00  0.00    +0.000 A 
ATOM     12  C   UNL     1      35.939  21.713  10.335  0.00  0.00    +0.000 A 
ATOM     13  C   UNL     1      34.602  21.986  10.556  0.00  0.00    +0.000 A 
ATOM     14  C   UNL     1      33.807  21.182  11.340  0.00  0.00    +0.000 A 
ATOM     15  C   UNL     1      34.420  20.079  11.897  0.00  0.00    +0.000 A 
BRANCH  10  17
ATOM     16  C   UNL     1      36.254  18.540  13.670  0.00  0.00    +0.000 C 
ATOM     17  O   UNL     1      36.311  18.679  12.266  0.00  0.00    +0.000 OA
ENDBRANCH  10  17
BRANCH  13  18
ATOM     18  O   UNL     1      34.059  23.131   9.951  0.00  0.00    +0.000 OA
ATOM     19  C   UNL     1      33.771  23.162   8.568  0.00  0.00    +0.000 C 
ENDBRANCH  13  18
ENDBRANCH   1  14
BRANCH   5  20
ATOM     20  N   UNL     1      26.999  23.329  13.255  0.00  0.00    +0.000 N 
ATOM     21  O   UNL     1      27.065  24.398  13.887  0.00  0.00    +0.000 OA
ATOM     22  O   UNL     1      25.794  22.678  13.239  0.00  0.00    +0.000 OA
ENDBRANCH   5  20
TORSDOF 4
ENDMDL
MODEL 6
REMARK VINA RESULT:      -6.3      1.561      3.502
REMARK  Name = 
REMARK  4 active torsions:
REMARK  status: ('A' for Active; 'I' for Inactive)
REMARK    1  A    between atoms: O_2  and  C_3
REMARK    2  A    between atoms: C_6  and  O_7
REMARK    3  A    between atoms: C_9  and  C_10
REMARK    4  A    between atoms: C_14  and  N_15
REMARK                            x       y       z     vdW  Elec       q    Type
REMARK                         _______ _______ _______ _____ _____    ______ ____
ROOT
ATOM      1  C   UNL     1      18.151  10.278  37.024  0.00  0.00    +0.000 A 
ATOM      2  C   UNL     1      17.973   9.743  35.764  0.00  0.00    +0.000 A 
ATOM      3  C   UNL     1      16.999  10.453  35.091  0.00  0.00    +0.000 A 
ATOM      4  C   UNL     1      16.415  10.381  33.835  0.00  0.00    +0.000 A 
ATOM      5  C   UNL     1      15.438  11.260  33.446  0.00  0.00    +0.000 A 
ATOM      6  C   UNL     1      15.058  12.223  34.355  0.00  0.00    +0.000 A 
ATOM      7  C   UNL     1      15.610  12.335  35.618  0.00  0.00    +0.000 A 
ATOM      8  C   UNL     1      16.591  11.431  35.973  0.00  0.00    +0.000 A 
ATOM      9  N   UNL     1      17.292  11.304  37.116  0.00  0.00    +0.000 NA
ENDROOT
BRANCH   1  14
ATOM     10  C   UNL     1      21.266   9.421  38.940  0.00  0.00    +0.000 A 
ATOM     11  C   UNL     1      20.747   9.025  40.145  0.00  0.00    +0.000 A 
ATOM     12  C   UNL     1      19.384   9.042  40.318  0.00  0.00    +0.000 A 
ATOM     13  C   UNL     1      18.564   9.455  39.284  0.00  0.00    +0.000 A 
ATOM     14  C   UNL     1      19.060   9.857  38.066  0.00  0.00    +0.000 A 
ATOM     15  C   UNL     1      20.432   9.826  37.929  0.00  0.00    +0.000 A 
BRANCH  10  17
ATOM     16  C   UNL     1      23.133   9.428  37.438  0.00  0.00    +0.000 C 
ATOM     17  O   UNL     1      22.626   9.407  38.756  0.00  0.00    +0.000 OA
ENDBRANCH  10  17
BRANCH  13  18
ATOM     18  O   UNL     1      17.178   9.454  39.511  0.00  0.00    +0.000 OA
ATOM     19  C   UNL     1      16.649   9.416  40.820  0.00  0.00    +0.000 C 
ENDBRANCH  13  18
ENDBRANCH   1  14
BRANCH   5  20
ATOM     20  N   UNL     1      14.818  11.217  32.170  0.00  0.00    +0.000 N 
ATOM     21  O   UNL     1      14.622  12.243  31.495  0.00  0.00    +0.000 OA
ATOM     22  O   UNL     1      14.409  10.022  31.636  0.00  0.00    +0.000 OA
ENDBRANCH   5  20
TORSDOF 4
ENDMDL
MODEL 7
REMARK VINA RESULT:      -6.1     20.850     22.055
REMARK  Name = 
REMARK  4 active torsions:
REMARK  status: ('A' for Active; 'I' for Inactive)
REMARK    1  A    between atoms: O_2  and  C_3
REMARK    2  A    between atoms: C_6  and  O_7
REMARK    3  A    between atoms: C_9  and  C_10
REMARK    4  A    between atoms: C_14  and  N_15
REMARK                            x       y       z     vdW  Elec       q    Type
REMARK                         _______ _______ _______ _____ _____    ______ ____
ROOT
ATOM      1  C   UNL     1      17.998  -9.142  27.982  0.00  0.00    +0.000 A 
ATOM      2  C   UNL     1      19.205  -9.444  27.386  0.00  0.00    +0.000 A 
ATOM      3  C   UNL     1      19.687  -8.334  26.722  0.00  0.00    +0.000 A 
ATOM      4  C   UNL     1      20.814  -8.047  25.968  0.00  0.00    +0.000 A 
ATOM      5  C   UNL     1      21.016  -6.807  25.420  0.00  0.00    +0.000 A 
ATOM      6  C   UNL     1      20.050  -5.852  25.649  0.00  0.00    +0.000 A 
ATOM      7  C   UNL     1      18.909  -6.090  26.393  0.00  0.00    +0.000 A 
ATOM      8  C   UNL     1      18.742  -7.352  26.928  0.00  0.00    +0.000 A 
ATOM      9  N   UNL     1      17.747  -7.858  27.682  0.00  0.00    +0.000 NA
ENDROOT
BRANCH   1  14
ATOM     10  C   UNL     1      15.327 -11.563  29.037  0.00  0.00    +0.000 A 
ATOM     11  C   UNL     1      15.526 -11.618  30.391  0.00  0.00    +0.000 A 
ATOM     12  C   UNL     1      16.529 -10.862  30.945  0.00  0.00    +0.000 A 
ATOM     13  C   UNL     1      17.319 -10.066  30.137  0.00  0.00    +0.000 A 
ATOM     14  C   UNL     1      17.140  -9.994  28.775  0.00  0.00    +0.000 A 
ATOM     15  C   UNL     1      16.122 -10.765  28.254  0.00  0.00    +0.000 A 
BRANCH  10  17
ATOM     16  C   UNL     1      13.594 -11.768  27.395  0.00  0.00    +0.000 C 
ATOM     17  O   UNL     1      14.326 -12.314  28.472  0.00  0.00    +0.000 OA
ENDBRANCH  10  17
BRANCH  13  18
ATOM     18  O   UNL     1      18.332  -9.312  30.752  0.00  0.00    +0.000 OA
ATOM     19  C   UNL     1      19.409  -9.937  31.417  0.00  0.00    +0.000 C 
ENDBRANCH  13  18
ENDBRANCH   1  14
BRANCH   5  20
ATOM     20  N   UNL     1      22.158  -6.476  24.643  0.00  0.00    +0.000 N 
ATOM     21  O   UNL     1      23.283  -6.946  24.888  0.00  0.00    +0.000 OA
ATOM     22  O   UNL     1      22.050  -5.615  23.583  0.00  0.00    +0.000 OA
ENDBRANCH   5  20
TORSDOF 4
ENDMDL
MODEL 8
REMARK VINA RESULT:      -6.0     20.732     21.972
REMARK  Name = 
REMARK  4 active torsions:
REMARK  status: ('A' for Active; 'I' for Inactive)
REMARK    1  A    between atoms: O_2  and  C_3
REMARK    2  A    between atoms: C_6  and  O_7
REMARK    3  A    between atoms: C_9  and  C_10
REMARK    4  A    between atoms: C_14  and  N_15
REMARK                            x       y       z     vdW  Elec       q    Type
REMARK                         _______ _______ _______ _____ _____    ______ ____
ROOT
ATOM      1  C   UNL     1      18.120  -9.135  28.174  0.00  0.00    +0.000 A 
ATOM      2  C   UNL     1      19.323  -9.446  27.576  0.00  0.00    +0.000 A 
ATOM      3  C   UNL     1      19.770  -8.365  26.842  0.00  0.00    +0.000 A 
ATOM      4  C   UNL     1      20.880  -8.098  26.054  0.00  0.00    +0.000 A 
ATOM      5  C   UNL     1      21.046  -6.887  25.434  0.00  0.00    +0.000 A 
ATOM      6  C   UNL     1      20.063  -5.940  25.626  0.00  0.00    +0.000 A 
ATOM      7  C   UNL     1      18.939  -6.159  26.402  0.00  0.00    +0.000 A 
ATOM      8  C   UNL     1      18.808  -7.392  27.010  0.00  0.00    +0.000 A 
ATOM      9  N   UNL     1      17.836  -7.876  27.807  0.00  0.00    +0.000 NA
ENDROOT
BRANCH   1  14
ATOM     10  C   UNL     1      16.596 -10.786  31.184  0.00  0.00    +0.000 A 
ATOM     11  C   UNL     1      15.647 -11.588  30.607  0.00  0.00    +0.000 A 
ATOM     12  C   UNL     1      15.516 -11.581  29.239  0.00  0.00    +0.000 A 
ATOM     13  C   UNL     1      16.334 -10.772  28.473  0.00  0.00    +0.000 A 
ATOM     14  C   UNL     1      17.294  -9.958  29.028  0.00  0.00    +0.000 A 
ATOM     15  C   UNL     1      17.397  -9.992  30.404  0.00  0.00    +0.000 A 
BRANCH  10  17
ATOM     16  C   UNL     1      15.610 -11.084  33.348  0.00  0.00    +0.000 C 
ATOM     17  O   UNL     1      16.736 -10.785  32.550  0.00  0.00    +0.000 OA
ENDBRANCH  10  17
BRANCH  13  18
ATOM     18  O   UNL     1      16.161 -10.801  27.079  0.00  0.00    +0.000 OA
ATOM     19  C   UNL     1      15.108 -10.095  26.457  0.00  0.00    +0.000 C 
ENDBRANCH  13  18
ENDBRANCH   1  14
BRANCH   5  20
ATOM     20  N   UNL     1      22.167  -6.577  24.620  0.00  0.00    +0.000 N 
ATOM     21  O   UNL     1      23.283  -7.095  24.807  0.00  0.00    +0.000 OA
ATOM     22  O   UNL     1      22.051  -5.683  23.588  0.00  0.00    +0.000 OA
ENDBRANCH   5  20
TORSDOF 4
ENDMDL
MODEL 9
REMARK VINA RESULT:      -6.0     19.110     20.711
REMARK  Name = 
REMARK  4 active torsions:
REMARK  status: ('A' for Active; 'I' for Inactive)
REMARK    1  A    between atoms: O_2  and  C_3
REMARK    2  A    between atoms: C_6  and  O_7
REMARK    3  A    between atoms: C_9  and  C_10
REMARK    4  A    between atoms: C_14  and  N_15
REMARK                            x       y       z     vdW  Elec       q    Type
REMARK                         _______ _______ _______ _____ _____    ______ ____
ROOT
ATOM      1  C   UNL     1      27.379  24.146  26.217  0.00  0.00    +0.000 A 
ATOM      2  C   UNL     1      28.321  25.026  25.724  0.00  0.00    +0.000 A 
ATOM      3  C   UNL     1      28.263  25.045  24.345  0.00  0.00    +0.000 A 
ATOM      4  C   UNL     1      28.942  25.714  23.338  0.00  0.00    +0.000 A 
ATOM      5  C   UNL     1      28.645  25.513  22.015  0.00  0.00    +0.000 A 
ATOM      6  C   UNL     1      27.639  24.617  21.724  0.00  0.00    +0.000 A 
ATOM      7  C   UNL     1      26.934  23.926  22.693  0.00  0.00    +0.000 A 
ATOM      8  C   UNL     1      27.263  24.156  24.014  0.00  0.00    +0.000 A 
ATOM      9  N   UNL     1      26.753  23.635  25.146  0.00  0.00    +0.000 NA
ENDROOT
BRANCH   1  14
ATOM     10  C   UNL     1      25.978  24.182  29.702  0.00  0.00    +0.000 A 
ATOM     11  C   UNL     1      26.578  23.080  30.250  0.00  0.00    +0.000 A 
ATOM     12  C   UNL     1      27.435  22.337  29.476  0.00  0.00    +0.000 A 
ATOM     13  C   UNL     1      27.677  22.707  28.166  0.00  0.00    +0.000 A 
ATOM     14  C   UNL     1      27.086  23.809  27.592  0.00  0.00    +0.000 A 
ATOM     15  C   UNL     1      26.233  24.531  28.400  0.00  0.00    +0.000 A 
BRANCH  10  17
ATOM     16  C   UNL     1      24.636  26.152  29.945  0.00  0.00    +0.000 C 
ATOM     17  O   UNL     1      25.120  24.932  30.467  0.00  0.00    +0.000 OA
ENDBRANCH  10  17
BRANCH  13  18
ATOM     18  O   UNL     1      28.561  21.915  27.416  0.00  0.00    +0.000 OA
ATOM     19  C   UNL     1      29.955  22.138  27.452  0.00  0.00    +0.000 C 
ENDBRANCH  13  18
ENDBRANCH   1  14
BRANCH   5  20
ATOM     20  N   UNL     1      29.318  26.178  20.957  0.00  0.00    +0.000 N 
ATOM     21  O   UNL     1      29.503  27.408  20.961  0.00  0.00    +0.000 OA
ATOM     22  O   UNL     1      29.791  25.472  19.881  0.00  0.00    +0.000 OA
ENDBRANCH   5  20
TORSDOF 4
ENDMDL
MODEL 10
REMARK VINA RESULT:      -6.0     21.847     23.712
REMARK  Name = 
REMARK  4 active torsions:
REMARK  status: ('A' for Active; 'I' for Inactive)
REMARK    1  A    between atoms: O_2  and  C_3
REMARK    2  A    between atoms: C_6  and  O_7
REMARK    3  A    between atoms: C_9  and  C_10
REMARK    4  A    between atoms: C_14  and  N_15
REMARK                            x       y       z     vdW  Elec       q    Type
REMARK                         _______ _______ _______ _____ _____    ______ ____
ROOT
ATOM      1  C   UNL     1      23.018  -8.310  24.228  0.00  0.00    +0.000 A 
ATOM      2  C   UNL     1      22.458  -7.051  24.309  0.00  0.00    +0.000 A 
ATOM      3  C   UNL     1      21.313  -7.101  25.078  0.00  0.00    +0.000 A 
ATOM      4  C   UNL     1      20.363  -6.180  25.495  0.00  0.00    +0.000 A 
ATOM      5  C   UNL     1      19.302  -6.548  26.280  0.00  0.00    +0.000 A 
ATOM      6  C   UNL     1      19.215  -7.875  26.640  0.00  0.00    +0.000 A 
ATOM      7  C   UNL     1      20.135  -8.830  26.249  0.00  0.00    +0.000 A 
ATOM      8  C   UNL     1      21.191  -8.420  25.459  0.00  0.00    +0.000 A 
ATOM      9  N   UNL     1      22.218  -9.119  24.940  0.00  0.00    +0.000 NA
ENDROOT
BRANCH   1  14
ATOM     10  C   UNL     1      26.577  -9.205  23.427  0.00  0.00    +0.000 A 
ATOM     11  C   UNL     1      26.484  -9.543  22.103  0.00  0.00    +0.000 A 
ATOM     12  C   UNL     1      25.259  -9.474  21.485  0.00  0.00    +0.000 A 
ATOM     13  C   UNL     1      24.148  -9.070  22.202  0.00  0.00    +0.000 A 
ATOM     14  C   UNL     1      24.215  -8.726  23.532  0.00  0.00    +0.000 A 
ATOM     15  C   UNL     1      25.461  -8.806  24.118  0.00  0.00    +0.000 A 
BRANCH  10  17
ATOM     16  C   UNL     1      27.903 -10.002  25.257  0.00  0.00    +0.000 C 
ATOM     17  O   UNL     1      27.796  -9.270  24.054  0.00  0.00    +0.000 OA
ENDBRANCH  10  17
BRANCH  13  18
ATOM     18  O   UNL     1      22.918  -9.016  21.525  0.00  0.00    +0.000 OA
ATOM     19  C   UNL     1      22.673  -8.048  20.526  0.00  0.00    +0.000 C 
ENDBRANCH  13  18
ENDBRANCH   1  14
BRANCH   5  20
ATOM     20  N   UNL     1      18.311  -5.635  26.726  0.00  0.00    +0.000 N 
ATOM     21  O   UNL     1      18.437  -4.405  26.591  0.00  0.00    +0.000 OA
ATOM     22  O   UNL     1      17.167  -6.090  27.328  0.00  0.00    +0.000 OA
ENDBRANCH   5  20
TORSDOF 4
ENDMDL
