MODEL 1
REMARK VINA RESULT:      -5.4      0.000      0.000
REMARK  Name = 
REMARK  5 active torsions:
REMARK  status: ('A' for Active; 'I' for Inactive)
REMARK    1  A    between atoms: C_2  and  N_3
REMARK    2  A    between atoms: C_2  and  N_10
REMARK    3  A    between atoms: N_3  and  C_4
REMARK    4  A    between atoms: C_4  and  C_5
REMARK    5  A    between atoms: N_10  and  C_11
REMARK                            x       y       z     vdW  Elec       q    Type
REMARK                         _______ _______ _______ _____ _____    ______ ____
ROOT
ATOM      1  N   UNL     1      30.157  23.624  23.269  0.00  0.00    +0.000 NA
ENDROOT
BRANCH   1   2
ATOM      2  C   UNL     1      30.223  23.749  24.686  0.00  0.00    +0.000 C 
ATOM      3  C   UNL     1      29.637  22.465  25.282  0.00  0.00    +0.000 C 
ATOM      4  C   UNL     1      29.790  22.472  26.770  0.00  0.00    +0.000 C 
ATOM      5  C   UNL     1      29.035  23.653  27.345  0.00  0.00    +0.000 C 
ATOM      6  C   UNL     1      29.638  24.904  26.749  0.00  0.00    +0.000 C 
ATOM      7  C   UNL     1      31.088  24.993  27.164  0.00  0.00    +0.000 C 
ATOM      8  C   UNL     1      31.835  23.810  26.573  0.00  0.00    +0.000 C 
ATOM      9  C   UNL     1      31.236  22.560  27.183  0.00  0.00    +0.000 C 
ATOM     10  C   UNL     1      31.701  23.830  25.076  0.00  0.00    +0.000 C 
ATOM     11  C   UNL     1      29.507  24.944  25.242  0.00  0.00    +0.000 C 
ENDBRANCH   1   2
BRANCH   1  13
ATOM     12  S   UNL     1      29.192  25.317  21.497  0.00  0.00    +0.000 S 
ATOM     13  C   UNL     1      29.091  23.987  22.439  0.00  0.00    +0.000 C 
BRANCH  13  14
ATOM     14  N   UNL     1      27.926  23.173  22.439  0.00  0.00    +0.000 NA
BRANCH  14  15
ATOM     15  C   UNL     1      26.602  23.747  22.488  0.00  0.00    +0.000 C 
BRANCH  15  16
ATOM     16  C   UNL     1      26.230  23.995  23.904  0.00  0.00    +0.000 A 
ATOM     17  C   UNL     1      25.997  23.045  24.885  0.00  0.00    +0.000 A 
ATOM     18  C   UNL     1      25.678  23.701  26.056  0.00  0.00    +0.000 A 
ATOM     19  C   UNL     1      25.733  25.052  25.725  0.00  0.00    +0.000 A 
ATOM     20  O   UNL     1      26.055  25.141  24.474  0.00  0.00    +0.000 OA
ENDBRANCH  15  16
ENDBRANCH  14  15
ENDBRANCH  13  14
ENDBRANCH   1  13
TORSDOF 5
ENDMDL
MODEL 2
REMARK VINA RESULT:      -5.2     15.717     18.576
REMARK  Name = 
REMARK  5 active torsions:
REMARK  status: ('A' for Active; 'I' for Inactive)
REMARK    1  A    between atoms: C_2  and  N_3
REMARK    2  A    between atoms: C_2  and  N_10
REMARK    3  A    between atoms: N_3  and  C_4
REMARK    4  A    between atoms: C_4  and  C_5
REMARK    5  A    between atoms: N_10  and  C_11
REMARK                            x       y       z     vdW  Elec       q    Type
REMARK                         _______ _______ _______ _____ _____    ______ ____
ROOT
ATOM      1  N   UNL     1      10.632  23.387  20.052  0.00  0.00    +0.000 NA
ENDROOT
BRANCH   1   2
ATOM      2  C   UNL     1      10.288  22.065  20.454  0.00  0.00    +0.000 C 
ATOM      3  C   UNL     1       9.200  21.568  19.494  0.00  0.00    +0.000 C 
ATOM      4  C   UNL     1       8.879  20.136  19.779  0.00  0.00    +0.000 C 
ATOM      5  C   UNL     1       8.357  20.012  21.197  0.00  0.00    +0.000 C 
ATOM      6  C   UNL     1       9.450  20.499  22.121  0.00  0.00    +0.000 C 
ATOM      7  C   UNL     1      10.660  19.609  21.959  0.00  0.00    +0.000 C 
ATOM      8  C   UNL     1      11.178  19.750  20.538  0.00  0.00    +0.000 C 
ATOM      9  C   UNL     1      10.086  19.248  19.617  0.00  0.00    +0.000 C 
ATOM     10  C   UNL     1      11.528  21.188  20.272  0.00  0.00    +0.000 C 
ATOM     11  C   UNL     1       9.811  21.947  21.871  0.00  0.00    +0.000 C 
ENDBRANCH   1   2
BRANCH   1  13
ATOM     12  S   UNL     1       9.294  25.560  20.704  0.00  0.00    +0.000 S 
ATOM     13  C   UNL     1      10.569  24.549  20.830  0.00  0.00    +0.000 C 
BRANCH  13  14
ATOM     14  N   UNL     1      11.639  24.822  21.724  0.00  0.00    +0.000 NA
BRANCH  14  15
ATOM     15  C   UNL     1      12.923  25.281  21.250  0.00  0.00    +0.000 C 
BRANCH  15  16
ATOM     16  C   UNL     1      13.928  24.205  21.441  0.00  0.00    +0.000 A 
ATOM     17  C   UNL     1      14.231  23.178  20.561  0.00  0.00    +0.000 A 
ATOM     18  C   UNL     1      15.220  22.402  21.127  0.00  0.00    +0.000 A 
ATOM     19  C   UNL     1      15.479  23.006  22.353  0.00  0.00    +0.000 A 
ATOM     20  O   UNL     1      14.700  24.034  22.462  0.00  0.00    +0.000 OA
ENDBRANCH  15  16
ENDBRANCH  14  15
ENDBRANCH  13  14
ENDBRANCH   1  13
TORSDOF 5
ENDMDL
MODEL 3
REMARK VINA RESULT:      -5.2     21.798     23.337
REMARK  Name = 
REMARK  5 active torsions:
REMARK  status: ('A' for Active; 'I' for Inactive)
REMARK    1  A    between atoms: C_2  and  N_3
REMARK    2  A    between atoms: C_2  and  N_10
REMARK    3  A    between atoms: N_3  and  C_4
REMARK    4  A    between atoms: C_4  and  C_5
REMARK    5  A    between atoms: N_10  and  C_11
REMARK                            x       y       z     vdW  Elec       q    Type
REMARK                         _______ _______ _______ _____ _____    ______ ____
ROOT
ATOM      1  N   UNL     1      18.804   8.807  39.239  0.00  0.00    +0.000 NA
ENDROOT
BRANCH   1   2
ATOM      2  C   UNL     1      17.905   8.734  40.340  0.00  0.00    +0.000 C 
ATOM      3  C   UNL     1      17.593   7.252  40.573  0.00  0.00    +0.000 C 
ATOM      4  C   UNL     1      16.752   7.090  41.799  0.00  0.00    +0.000 C 
ATOM      5  C   UNL     1      15.442   7.829  41.608  0.00  0.00    +0.000 C 
ATOM      6  C   UNL     1      15.778   9.287  41.390  0.00  0.00    +0.000 C 
ATOM      7  C   UNL     1      16.472   9.818  42.622  0.00  0.00    +0.000 C 
ATOM      8  C   UNL     1      17.786   9.077  42.796  0.00  0.00    +0.000 C 
ATOM      9  C   UNL     1      17.444   7.620  43.027  0.00  0.00    +0.000 C 
ATOM     10  C   UNL     1      18.637   9.272  41.572  0.00  0.00    +0.000 C 
ATOM     11  C   UNL     1      16.630   9.502  40.158  0.00  0.00    +0.000 C 
ENDBRANCH   1   2
BRANCH   1  13
ATOM     12  S   UNL     1      19.350  11.182  38.240  0.00  0.00    +0.000 S 
ATOM     13  C   UNL     1      18.729   9.676  38.144  0.00  0.00    +0.000 C 
BRANCH  13  14
ATOM     14  N   UNL     1      18.101   9.213  36.955  0.00  0.00    +0.000 NA
BRANCH  14  15
ATOM     15  C   UNL     1      18.656   9.489  35.651  0.00  0.00    +0.000 C 
BRANCH  15  16
ATOM     16  C   UNL     1      17.648  10.214  34.836  0.00  0.00    +0.000 A 
ATOM     17  C   UNL     1      16.735  11.157  35.281  0.00  0.00    +0.000 A 
ATOM     18  C   UNL     1      15.988  11.578  34.200  0.00  0.00    +0.000 A 
ATOM     19  C   UNL     1      16.493  10.855  33.123  0.00  0.00    +0.000 A 
ATOM     20  O   UNL     1      17.442  10.094  33.567  0.00  0.00    +0.000 OA
ENDBRANCH  15  16
ENDBRANCH  14  15
ENDBRANCH  13  14
ENDBRANCH   1  13
TORSDOF 5
ENDMDL
MODEL 4
REMARK VINA RESULT:      -5.2      2.092      4.429
REMARK  Name = 
REMARK  5 active torsions:
REMARK  status: ('A' for Active; 'I' for Inactive)
REMARK    1  A    between atoms: C_2  and  N_3
REMARK    2  A    between atoms: C_2  and  N_10
REMARK    3  A    between atoms: N_3  and  C_4
REMARK    4  A    between atoms: C_4  and  C_5
REMARK    5  A    between atoms: N_10  and  C_11
REMARK                            x       y       z     vdW  Elec       q    Type
REMARK                         _______ _______ _______ _____ _____    ______ ____
ROOT
ATOM      1  N   UNL     1      30.648  23.709  23.544  0.00  0.00    +0.000 NA
ENDROOT
BRANCH   1   2
ATOM      2  C   UNL     1      29.348  24.252  23.340  0.00  0.00    +0.000 C 
ATOM      3  C   UNL     1      29.269  24.701  21.877  0.00  0.00    +0.000 C 
ATOM      4  C   UNL     1      27.885  25.167  21.556  0.00  0.00    +0.000 C 
ATOM      5  C   UNL     1      27.539  26.351  22.438  0.00  0.00    +0.000 C 
ATOM      6  C   UNL     1      27.615  25.879  23.872  0.00  0.00    +0.000 C 
ATOM      7  C   UNL     1      26.592  24.788  24.082  0.00  0.00    +0.000 C 
ATOM      8  C   UNL     1      26.956  23.606  23.201  0.00  0.00    +0.000 C 
ATOM      9  C   UNL     1      26.865  24.079  21.766  0.00  0.00    +0.000 C 
ATOM     10  C   UNL     1      28.336  23.124  23.553  0.00  0.00    +0.000 C 
ATOM     11  C   UNL     1      28.999  25.396  24.245  0.00  0.00    +0.000 C 
ENDBRANCH   1   2
BRANCH   1  13
ATOM     12  S   UNL     1      32.496  24.593  25.200  0.00  0.00    +0.000 S 
ATOM     13  C   UNL     1      31.316  23.553  24.764  0.00  0.00    +0.000 C 
BRANCH  13  14
ATOM     14  N   UNL     1      30.940  22.472  25.607  0.00  0.00    +0.000 NA
BRANCH  14  15
ATOM     15  C   UNL     1      30.714  22.659  27.021  0.00  0.00    +0.000 C 
BRANCH  15  16
ATOM     16  C   UNL     1      29.325  23.136  27.234  0.00  0.00    +0.000 A 
ATOM     17  C   UNL     1      28.159  22.394  27.122  0.00  0.00    +0.000 A 
ATOM     18  C   UNL     1      27.092  23.221  27.403  0.00  0.00    +0.000 A 
ATOM     19  C   UNL     1      27.670  24.456  27.679  0.00  0.00    +0.000 A 
ATOM     20  O   UNL     1      28.953  24.329  27.562  0.00  0.00    +0.000 OA
ENDBRANCH  15  16
ENDBRANCH  14  15
ENDBRANCH  13  14
ENDBRANCH   1  13
TORSDOF 5
ENDMDL
MODEL 5
REMARK VINA RESULT:      -5.1      2.751      3.963
REMARK  Name = 
REMARK  5 active torsions:
REMARK  status: ('A' for Active; 'I' for Inactive)
REMARK    1  A    between atoms: C_2  and  N_3
REMARK    2  A    between atoms: C_2  and  N_10
REMARK    3  A    between atoms: N_3  and  C_4
REMARK    4  A    between atoms: C_4  and  C_5
REMARK    5  A    between atoms: N_10  and  C_11
REMARK                            x       y       z     vdW  Elec       q    Type
REMARK                         _______ _______ _______ _____ _____    ______ ____
ROOT
ATOM      1  N   UNL     1      27.496  24.705  25.505  0.00  0.00    +0.000 NA
ENDROOT
BRANCH   1   2
ATOM      2  C   UNL     1      28.820  24.186  25.564  0.00  0.00    +0.000 C 
ATOM      3  C   UNL     1      29.458  24.413  24.188  0.00  0.00    +0.000 C 
ATOM      4  C   UNL     1      30.896  24.007  24.214  0.00  0.00    +0.000 C 
ATOM      5  C   UNL     1      30.993  22.531  24.547  0.00  0.00    +0.000 C 
ATOM      6  C   UNL     1      30.367  22.336  25.909  0.00  0.00    +0.000 C 
ATOM      7  C   UNL     1      31.156  23.127  26.927  0.00  0.00    +0.000 C 
ATOM      8  C   UNL     1      31.043  24.603  26.588  0.00  0.00    +0.000 C 
ATOM      9  C   UNL     1      31.683  24.795  25.229  0.00  0.00    +0.000 C 
ATOM     10  C   UNL     1      29.595  25.009  26.595  0.00  0.00    +0.000 C 
ATOM     11  C   UNL     1      28.908  22.735  25.933  0.00  0.00    +0.000 C 
ENDBRANCH   1   2
BRANCH   1  13
ATOM     12  S   UNL     1      25.688  23.382  24.119  0.00  0.00    +0.000 S 
ATOM     13  C   UNL     1      26.302  23.974  25.511  0.00  0.00    +0.000 C 
BRANCH  13  14
ATOM     14  N   UNL     1      25.645  23.763  26.754  0.00  0.00    +0.000 NA
BRANCH  14  15
ATOM     15  C   UNL     1      26.030  24.485  27.944  0.00  0.00    +0.000 C 
BRANCH  15  16
ATOM     16  C   UNL     1      26.528  23.522  28.959  0.00  0.00    +0.000 A 
ATOM     17  C   UNL     1      27.847  23.301  29.324  0.00  0.00    +0.000 A 
ATOM     18  C   UNL     1      27.867  22.326  30.299  0.00  0.00    +0.000 A 
ATOM     19  C   UNL     1      26.529  21.991  30.486  0.00  0.00    +0.000 A 
ATOM     20  O   UNL     1      25.822  22.719  29.682  0.00  0.00    +0.000 OA
ENDBRANCH  15  16
ENDBRANCH  14  15
ENDBRANCH  13  14
ENDBRANCH   1  13
TORSDOF 5
ENDMDL
MODEL 6
REMARK VINA RESULT:      -5.0      1.012      2.087
REMARK  Name = 
REMARK  5 active torsions:
REMARK  status: ('A' for Active; 'I' for Inactive)
REMARK    1  A    between atoms: C_2  and  N_3
REMARK    2  A    between atoms: C_2  and  N_10
REMARK    3  A    between atoms: N_3  and  C_4
REMARK    4  A    between atoms: C_4  and  C_5
REMARK    5  A    between atoms: N_10  and  C_11
REMARK                            x       y       z     vdW  Elec       q    Type
REMARK                         _______ _______ _______ _____ _____    ______ ____
ROOT
ATOM      1  N   UNL     1      28.766  23.005  23.482  0.00  0.00    +0.000 NA
ENDROOT
BRANCH   1   2
ATOM      2  C   UNL     1      29.483  23.314  24.672  0.00  0.00    +0.000 C 
ATOM      3  C   UNL     1      29.179  24.776  25.017  0.00  0.00    +0.000 C 
ATOM      4  C   UNL     1      29.800  25.134  26.330  0.00  0.00    +0.000 C 
ATOM      5  C   UNL     1      31.304  24.970  26.233  0.00  0.00    +0.000 C 
ATOM      6  C   UNL     1      31.576  23.521  25.901  0.00  0.00    +0.000 C 
ATOM      7  C   UNL     1      31.054  22.656  27.024  0.00  0.00    +0.000 C 
ATOM      8  C   UNL     1      29.546  22.822  27.104  0.00  0.00    +0.000 C 
ATOM      9  C   UNL     1      29.279  24.272  27.450  0.00  0.00    +0.000 C 
ATOM     10  C   UNL     1      28.929  22.429  25.790  0.00  0.00    +0.000 C 
ATOM     11  C   UNL     1      30.966  23.110  24.579  0.00  0.00    +0.000 C 
ENDBRANCH   1   2
BRANCH   1  13
ATOM     12  S   UNL     1      29.155  24.717  21.517  0.00  0.00    +0.000 S 
ATOM     13  C   UNL     1      28.206  23.912  22.574  0.00  0.00    +0.000 C 
BRANCH  13  14
ATOM     14  N   UNL     1      26.799  24.112  22.599  0.00  0.00    +0.000 NA
BRANCH  14  15
ATOM     15  C   UNL     1      25.932  23.279  23.398  0.00  0.00    +0.000 C 
BRANCH  15  16
ATOM     16  C   UNL     1      25.694  23.938  24.708  0.00  0.00    +0.000 A 
ATOM     17  C   UNL     1      25.415  25.277  24.931  0.00  0.00    +0.000 A 
ATOM     18  C   UNL     1      25.265  25.467  26.289  0.00  0.00    +0.000 A 
ATOM     19  C   UNL     1      25.464  24.205  26.841  0.00  0.00    +0.000 A 
ATOM     20  O   UNL     1      25.705  23.381  25.873  0.00  0.00    +0.000 OA
ENDBRANCH  15  16
ENDBRANCH  14  15
ENDBRANCH  13  14
ENDBRANCH   1  13
TORSDOF 5
ENDMDL
MODEL 7
REMARK VINA RESULT:      -5.0     22.264     23.761
REMARK  Name = 
REMARK  5 active torsions:
REMARK  status: ('A' for Active; 'I' for Inactive)
REMARK    1  A    between atoms: C_2  and  N_3
REMARK    2  A    between atoms: C_2  and  N_10
REMARK    3  A    between atoms: N_3  and  C_4
REMARK    4  A    between atoms: C_4  and  C_5
REMARK    5  A    between atoms: N_10  and  C_11
REMARK                            x       y       z     vdW  Elec       q    Type
REMARK                         _______ _______ _______ _____ _____    ______ ____
ROOT
ATOM      1  N   UNL     1      18.106  10.221  38.583  0.00  0.00    +0.000 NA
ENDROOT
BRANCH   1   2
ATOM      2  C   UNL     1      17.839   9.452  39.751  0.00  0.00    +0.000 C 
ATOM      3  C   UNL     1      18.181   7.994  39.421  0.00  0.00    +0.000 C 
ATOM      4  C   UNL     1      18.046   7.145  40.645  0.00  0.00    +0.000 C 
ATOM      5  C   UNL     1      16.613   7.200  41.136  0.00  0.00    +0.000 C 
ATOM      6  C   UNL     1      16.306   8.643  41.462  0.00  0.00    +0.000 C 
ATOM      7  C   UNL     1      17.226   9.101  42.568  0.00  0.00    +0.000 C 
ATOM      8  C   UNL     1      18.657   9.051  42.061  0.00  0.00    +0.000 C 
ATOM      9  C   UNL     1      18.965   7.602  41.748  0.00  0.00    +0.000 C 
ATOM     10  C   UNL     1      18.790   9.933  40.850  0.00  0.00    +0.000 C 
ATOM     11  C   UNL     1      16.429   9.544  40.253  0.00  0.00    +0.000 C 
ENDBRANCH   1   2
BRANCH   1  13
ATOM     12  S   UNL     1      17.430   9.709  36.090  0.00  0.00    +0.000 S 
ATOM     13  C   UNL     1      17.231  10.471  37.520  0.00  0.00    +0.000 C 
BRANCH  13  14
ATOM     14  N   UNL     1      16.174  11.399  37.718  0.00  0.00    +0.000 NA
BRANCH  14  15
ATOM     15  C   UNL     1      15.235  11.712  36.665  0.00  0.00    +0.000 C 
BRANCH  15  16
ATOM     16  C   UNL     1      13.857  11.432  37.142  0.00  0.00    +0.000 A 
ATOM     17  C   UNL     1      13.492  10.699  38.260  0.00  0.00    +0.000 A 
ATOM     18  C   UNL     1      12.115  10.685  38.337  0.00  0.00    +0.000 A 
ATOM     19  C   UNL     1      11.696  11.427  37.236  0.00  0.00    +0.000 A 
ATOM     20  O   UNL     1      12.752  11.822  36.599  0.00  0.00    +0.000 OA
ENDBRANCH  15  16
ENDBRANCH  14  15
ENDBRANCH  13  14
ENDBRANCH   1  13
TORSDOF 5
ENDMDL
MODEL 8
REMARK VINA RESULT:      -5.0      2.158      3.245
REMARK  Name = 
REMARK  5 active torsions:
REMARK  status: ('A' for Active; 'I' for Inactive)
REMARK    1  A    between atoms: C_2  and  N_3
REMARK    2  A    between atoms: C_2  and  N_10
REMARK    3  A    between atoms: N_3  and  C_4
REMARK    4  A    between atoms: C_4  and  C_5
REMARK    5  A    between atoms: N_10  and  C_11
REMARK                            x       y       z     vdW  Elec       q    Type
REMARK                         _______ _______ _______ _____ _____    ______ ____
ROOT
ATOM      1  N   UNL     1      27.985  25.227  25.979  0.00  0.00    +0.000 NA
ENDROOT
BRANCH   1   2
ATOM      2  C   UNL     1      29.199  24.491  26.082  0.00  0.00    +0.000 C 
ATOM      3  C   UNL     1      28.886  23.044  25.683  0.00  0.00    +0.000 C 
ATOM      4  C   UNL     1      30.145  22.238  25.646  0.00  0.00    +0.000 C 
ATOM      5  C   UNL     1      30.774  22.227  27.025  0.00  0.00    +0.000 C 
ATOM      6  C   UNL     1      31.080  23.662  27.389  0.00  0.00    +0.000 C 
ATOM      7  C   UNL     1      32.073  24.217  26.396  0.00  0.00    +0.000 C 
ATOM      8  C   UNL     1      31.428  24.231  25.021  0.00  0.00    +0.000 C 
ATOM      9  C   UNL     1      31.136  22.791  24.655  0.00  0.00    +0.000 C 
ATOM     10  C   UNL     1      30.181  25.070  25.061  0.00  0.00    +0.000 C 
ATOM     11  C   UNL     1      29.835  24.520  27.440  0.00  0.00    +0.000 C 
ENDBRANCH   1   2
BRANCH   1  13
ATOM     12  S   UNL     1      25.961  23.954  27.084  0.00  0.00    +0.000 S 
ATOM     13  C   UNL     1      26.693  24.708  25.835  0.00  0.00    +0.000 C 
BRANCH  13  14
ATOM     14  N   UNL     1      26.042  24.855  24.580  0.00  0.00    +0.000 NA
BRANCH  14  15
ATOM     15  C   UNL     1      26.296  23.946  23.486  0.00  0.00    +0.000 C 
BRANCH  15  16
ATOM     16  C   UNL     1      27.379  24.498  22.634  0.00  0.00    +0.000 A 
ATOM     17  C   UNL     1      28.433  23.800  22.065  0.00  0.00    +0.000 A 
ATOM     18  C   UNL     1      29.207  24.692  21.353  0.00  0.00    +0.000 A 
ATOM     19  C   UNL     1      28.575  25.919  21.525  0.00  0.00    +0.000 A 
ATOM     20  O   UNL     1      27.534  25.728  22.272  0.00  0.00    +0.000 OA
ENDBRANCH  15  16
ENDBRANCH  14  15
ENDBRANCH  13  14
ENDBRANCH   1  13
TORSDOF 5
ENDMDL
MODEL 9
REMARK VINA RESULT:      -4.9      1.708      2.718
REMARK  Name = 
REMARK  5 active torsions:
REMARK  status: ('A' for Active; 'I' for Inactive)
REMARK    1  A    between atoms: C_2  and  N_3
REMARK    2  A    between atoms: C_2  and  N_10
REMARK    3  A    between atoms: N_3  and  C_4
REMARK    4  A    between atoms: C_4  and  C_5
REMARK    5  A    between atoms: N_10  and  C_11
REMARK                            x       y       z     vdW  Elec       q    Type
REMARK                         _______ _______ _______ _____ _____    ______ ____
ROOT
ATOM      1  N   UNL     1      28.332  25.479  24.465  0.00  0.00    +0.000 NA
ENDROOT
BRANCH   1   2
ATOM      2  C   UNL     1      29.380  24.635  24.930  0.00  0.00    +0.000 C 
ATOM      3  C   UNL     1      30.687  25.159  24.326  0.00  0.00    +0.000 C 
ATOM      4  C   UNL     1      31.850  24.396  24.874  0.00  0.00    +0.000 C 
ATOM      5  C   UNL     1      31.706  22.932  24.504  0.00  0.00    +0.000 C 
ATOM      6  C   UNL     1      30.417  22.439  25.119  0.00  0.00    +0.000 C 
ATOM      7  C   UNL     1      30.513  22.564  26.622  0.00  0.00    +0.000 C 
ATOM      8  C   UNL     1      30.647  24.033  26.979  0.00  0.00    +0.000 C 
ATOM      9  C   UNL     1      31.946  24.520  26.372  0.00  0.00    +0.000 C 
ATOM     10  C   UNL     1      29.457  24.788  26.451  0.00  0.00    +0.000 C 
ATOM     11  C   UNL     1      29.209  23.183  24.595  0.00  0.00    +0.000 C 
ENDBRANCH   1   2
BRANCH   1  13
ATOM     12  S   UNL     1      27.503  25.018  22.008  0.00  0.00    +0.000 S 
ATOM     13  C   UNL     1      27.274  25.124  23.621  0.00  0.00    +0.000 C 
BRANCH  13  14
ATOM     14  N   UNL     1      26.004  24.860  24.203  0.00  0.00    +0.000 NA
BRANCH  14  15
ATOM     15  C   UNL     1      25.716  23.601  24.848  0.00  0.00    +0.000 C 
BRANCH  15  16
ATOM     16  C   UNL     1      25.852  23.764  26.318  0.00  0.00    +0.000 A 
ATOM     17  C   UNL     1      25.205  24.690  27.120  0.00  0.00    +0.000 A 
ATOM     18  C   UNL     1      25.617  24.497  28.422  0.00  0.00    +0.000 A 
ATOM     19  C   UNL     1      26.517  23.438  28.350  0.00  0.00    +0.000 A 
ATOM     20  O   UNL     1      26.600  23.071  27.111  0.00  0.00    +0.000 OA
ENDBRANCH  15  16
ENDBRANCH  14  15
ENDBRANCH  13  14
ENDBRANCH   1  13
TORSDOF 5
ENDMDL
MODEL 10
REMARK VINA RESULT:      -4.9     29.939     31.417
REMARK  Name = 
REMARK  5 active torsions:
REMARK  status: ('A' for Active; 'I' for Inactive)
REMARK    1  A    between atoms: C_2  and  N_3
REMARK    2  A    between atoms: C_2  and  N_10
REMARK    3  A    between atoms: N_3  and  C_4
REMARK    4  A    between atoms: C_4  and  C_5
REMARK    5  A    between atoms: N_10  and  C_11
REMARK                            x       y       z     vdW  Elec       q    Type
REMARK                         _______ _______ _______ _____ _____    ______ ____
ROOT
ATOM      1  N   UNL     1      31.647  -7.981  31.602  0.00  0.00    +0.000 NA
ENDROOT
BRANCH   1   2
ATOM      2  C   UNL     1      32.612  -7.573  30.638  0.00  0.00    +0.000 C 
ATOM      3  C   UNL     1      32.354  -6.092  30.338  0.00  0.00    +0.000 C 
ATOM      4  C   UNL     1      33.414  -5.560  29.426  0.00  0.00    +0.000 C 
ATOM      5  C   UNL     1      33.378  -6.326  28.118  0.00  0.00    +0.000 C 
ATOM      6  C   UNL     1      33.644  -7.778  28.442  0.00  0.00    +0.000 C 
ATOM      7  C   UNL     1      35.021  -7.900  29.050  0.00  0.00    +0.000 C 
ATOM      8  C   UNL     1      35.041  -7.137  30.363  0.00  0.00    +0.000 C 
ATOM      9  C   UNL     1      34.787  -5.681  30.033  0.00  0.00    +0.000 C 
ATOM     10  C   UNL     1      33.994  -7.700  31.285  0.00  0.00    +0.000 C 
ATOM     11  C   UNL     1      32.596  -8.363  29.364  0.00  0.00    +0.000 C 
ENDBRANCH   1   2
BRANCH   1  13
ATOM     12  S   UNL     1      29.093  -7.591  31.088  0.00  0.00    +0.000 S 
ATOM     13  C   UNL     1      30.460  -7.320  31.939  0.00  0.00    +0.000 C 
BRANCH  13  14
ATOM     14  N   UNL     1      30.478  -6.414  33.034  0.00  0.00    +0.000 NA
BRANCH  14  15
ATOM     15  C   UNL     1      31.569  -6.392  33.979  0.00  0.00    +0.000 C 
BRANCH  15  16
ATOM     16  C   UNL     1      32.162  -5.031  34.008  0.00  0.00    +0.000 A 
ATOM     17  C   UNL     1      33.226  -4.567  33.250  0.00  0.00    +0.000 A 
ATOM     18  C   UNL     1      33.454  -3.249  33.587  0.00  0.00    +0.000 A 
ATOM     19  C   UNL     1      32.497  -2.967  34.558  0.00  0.00    +0.000 A 
ATOM     20  O   UNL     1      31.794  -4.037  34.746  0.00  0.00    +0.000 OA
ENDBRANCH  15  16
ENDBRANCH  14  15
ENDBRANCH  13  14
ENDBRANCH   1  13
TORSDOF 5
ENDMDL
