MODEL 1
REMARK VINA RESULT:      -6.7      0.000      0.000
REMARK  Name = 
REMARK  2 active torsions:
REMARK  status: ('A' for Active; 'I' for Inactive)
REMARK    1  A    between atoms: C_2  and  C_4
REMARK    2  A    between atoms: C_9  and  C_10
REMARK                            x       y       z     vdW  Elec       q    Type
REMARK                         _______ _______ _______ _____ _____    ______ ____
ROOT
ATOM      1  C   UNL     1      18.551  -7.508  27.062  0.00  0.00    +0.000 A 
ATOM      2  C   UNL     1      17.962  -6.232  27.200  0.00  0.00    +0.000 A 
ATOM      3  C   UNL     1      18.539  -5.114  26.674  0.00  0.00    +0.000 A 
ATOM      4  C   UNL     1      19.721  -5.201  25.981  0.00  0.00    +0.000 A 
ATOM      5  C   UNL     1      20.305  -6.434  25.837  0.00  0.00    +0.000 A 
ATOM      6  C   UNL     1      21.471  -6.578  25.112  0.00  0.00    +0.000 A 
ATOM      7  C   UNL     1      22.063  -7.799  24.927  0.00  0.00    +0.000 A 
ATOM      8  C   UNL     1      21.476  -8.926  25.469  0.00  0.00    +0.000 A 
ATOM      9  C   UNL     1      20.319  -8.794  26.183  0.00  0.00    +0.000 A 
ATOM     10  C   UNL     1      19.723  -7.587  26.377  0.00  0.00    +0.000 A 
ENDROOT
BRANCH   1  16
ATOM     11  C   UNL     1      16.825  -9.282  26.869  0.00  0.00    +0.000 A 
ATOM     12  S   UNL     1      16.307 -10.530  27.869  0.00  0.00    +0.000 S 
ATOM     13  C   UNL     1      17.295 -10.193  29.224  0.00  0.00    +0.000 A 
ATOM     14  N   UNL     1      17.421 -10.866  30.498  0.00  0.00    +0.000 NA
ATOM     15  N   UNL     1      17.974  -9.127  28.817  0.00  0.00    +0.000 NA
ATOM     16  C   UNL     1      17.786  -8.625  27.646  0.00  0.00    +0.000 A 
BRANCH  11  18
ATOM     17  C   UNL     1      16.787  -9.775  24.398  0.00  0.00    +0.000 C 
ATOM     18  C   UNL     1      16.351  -8.831  25.515  0.00  0.00    +0.000 C 
ATOM     19  C   UNL     1      14.783  -8.956  25.587  0.00  0.00    +0.000 C 
ENDBRANCH  11  18
ENDBRANCH   1  16
TORSDOF 2
ENDMDL
MODEL 2
REMARK VINA RESULT:      -6.6      1.616      2.837
REMARK  Name = 
REMARK  2 active torsions:
REMARK  status: ('A' for Active; 'I' for Inactive)
REMARK    1  A    between atoms: C_2  and  C_4
REMARK    2  A    between atoms: C_9  and  C_10
REMARK                            x       y       z     vdW  Elec       q    Type
REMARK                         _______ _______ _______ _____ _____    ______ ____
ROOT
ATOM      1  C   UNL     1      18.384  -7.771  26.836  0.00  0.00    +0.000 A 
ATOM      2  C   UNL     1      17.769  -6.542  27.165  0.00  0.00    +0.000 A 
ATOM      3  C   UNL     1      18.337  -5.346  26.842  0.00  0.00    +0.000 A 
ATOM      4  C   UNL     1      19.535  -5.302  26.174  0.00  0.00    +0.000 A 
ATOM      5  C   UNL     1      20.144  -6.487  25.845  0.00  0.00    +0.000 A 
ATOM      6  C   UNL     1      21.328  -6.496  25.136  0.00  0.00    +0.000 A 
ATOM      7  C   UNL     1      21.946  -7.662  24.770  0.00  0.00    +0.000 A 
ATOM      8  C   UNL     1      21.368  -8.870  25.106  0.00  0.00    +0.000 A 
ATOM      9  C   UNL     1      20.193  -8.871  25.803  0.00  0.00    +0.000 A 
ATOM     10  C   UNL     1      19.571  -7.721  26.177  0.00  0.00    +0.000 A 
ENDROOT
BRANCH   1  16
ATOM     11  C   UNL     1      17.856  -9.577  28.456  0.00  0.00    +0.000 A 
ATOM     12  S   UNL     1      16.717 -10.811  28.509  0.00  0.00    +0.000 S 
ATOM     13  C   UNL     1      15.993 -10.551  26.981  0.00  0.00    +0.000 A 
ATOM     14  N   UNL     1      14.903 -11.232  26.319  0.00  0.00    +0.000 NA
ATOM     15  N   UNL     1      16.682  -9.514  26.519  0.00  0.00    +0.000 NA
ATOM     16  C   UNL     1      17.626  -8.979  27.212  0.00  0.00    +0.000 A 
BRANCH  11  18
ATOM     17  C   UNL     1      18.615  -9.499  30.859  0.00  0.00    +0.000 C 
ATOM     18  C   UNL     1      18.965  -9.206  29.403  0.00  0.00    +0.000 C 
ATOM     19  C   UNL     1      20.136 -10.195  29.041  0.00  0.00    +0.000 C 
ENDBRANCH  11  18
ENDBRANCH   1  16
TORSDOF 2
ENDMDL
MODEL 3
REMARK VINA RESULT:      -6.6     31.706     33.135
REMARK  Name = 
REMARK  2 active torsions:
REMARK  status: ('A' for Active; 'I' for Inactive)
REMARK    1  A    between atoms: C_2  and  C_4
REMARK    2  A    between atoms: C_9  and  C_10
REMARK                            x       y       z     vdW  Elec       q    Type
REMARK                         _______ _______ _______ _____ _____    ______ ____
ROOT
ATOM      1  C   UNL     1      28.465  22.793  27.298  0.00  0.00    +0.000 A 
ATOM      2  C   UNL     1      29.848  22.537  27.423  0.00  0.00    +0.000 A 
ATOM      3  C   UNL     1      30.663  22.449  26.334  0.00  0.00    +0.000 A 
ATOM      4  C   UNL     1      30.156  22.616  25.070  0.00  0.00    +0.000 A 
ATOM      5  C   UNL     1      28.815  22.868  24.931  0.00  0.00    +0.000 A 
ATOM      6  C   UNL     1      28.266  23.085  23.683  0.00  0.00    +0.000 A 
ATOM      7  C   UNL     1      26.936  23.365  23.515  0.00  0.00    +0.000 A 
ATOM      8  C   UNL     1      26.115  23.446  24.622  0.00  0.00    +0.000 A 
ATOM      9  C   UNL     1      26.650  23.238  25.862  0.00  0.00    +0.000 A 
ATOM     10  C   UNL     1      27.968  22.955  26.043  0.00  0.00    +0.000 A 
ENDROOT
BRANCH   1  16
ATOM     11  C   UNL     1      27.524  24.165  29.141  0.00  0.00    +0.000 A 
ATOM     12  S   UNL     1      26.552  23.836  30.472  0.00  0.00    +0.000 S 
ATOM     13  C   UNL     1      26.429  22.141  30.280  0.00  0.00    +0.000 A 
ATOM     14  N   UNL     1      25.722  21.146  31.056  0.00  0.00    +0.000 NA
ATOM     15  N   UNL     1      27.152  21.930  29.186  0.00  0.00    +0.000 NA
ATOM     16  C   UNL     1      27.723  22.904  28.568  0.00  0.00    +0.000 A 
BRANCH  11  18
ATOM     17  C   UNL     1      27.208  26.325  27.881  0.00  0.00    +0.000 C 
ATOM     18  C   UNL     1      28.168  25.441  28.672  0.00  0.00    +0.000 C 
ATOM     19  C   UNL     1      28.480  26.233  29.996  0.00  0.00    +0.000 C 
ENDBRANCH  11  18
ENDBRANCH   1  16
TORSDOF 2
ENDMDL
MODEL 4
REMARK VINA RESULT:      -6.3     29.906     31.693
REMARK  Name = 
REMARK  2 active torsions:
REMARK  status: ('A' for Active; 'I' for Inactive)
REMARK    1  A    between atoms: C_2  and  C_4
REMARK    2  A    between atoms: C_9  and  C_10
REMARK                            x       y       z     vdW  Elec       q    Type
REMARK                         _______ _______ _______ _____ _____    ______ ____
ROOT
ATOM      1  C   UNL     1      18.218  22.389  36.060  0.00  0.00    +0.000 A 
ATOM      2  C   UNL     1      17.335  23.216  36.789  0.00  0.00    +0.000 A 
ATOM      3  C   UNL     1      16.048  23.420  36.388  0.00  0.00    +0.000 A 
ATOM      4  C   UNL     1      15.568  22.815  35.252  0.00  0.00    +0.000 A 
ATOM      5  C   UNL     1      16.414  22.008  34.534  0.00  0.00    +0.000 A 
ATOM      6  C   UNL     1      15.966  21.345  33.410  0.00  0.00    +0.000 A 
ATOM      7  C   UNL     1      16.778  20.511  32.688  0.00  0.00    +0.000 A 
ATOM      8  C   UNL     1      18.082  20.314  33.097  0.00  0.00    +0.000 A 
ATOM      9  C   UNL     1      18.533  20.962  34.212  0.00  0.00    +0.000 A 
ATOM     10  C   UNL     1      17.739  21.796  34.936  0.00  0.00    +0.000 A 
ENDROOT
BRANCH   1  16
ATOM     11  C   UNL     1      19.803  21.187  37.546  0.00  0.00    +0.000 A 
ATOM     12  S   UNL     1      21.452  21.310  37.849  0.00  0.00    +0.000 S 
ATOM     13  C   UNL     1      21.791  22.658  36.853  0.00  0.00    +0.000 A 
ATOM     14  N   UNL     1      23.032  23.349  36.581  0.00  0.00    +0.000 NA
ATOM     15  N   UNL     1      20.598  22.933  36.338  0.00  0.00    +0.000 NA
ATOM     16  C   UNL     1      19.563  22.231  36.645  0.00  0.00    +0.000 A 
BRANCH  11  18
ATOM     17  C   UNL     1      19.291  18.922  38.527  0.00  0.00    +0.000 C 
ATOM     18  C   UNL     1      18.748  20.294  38.138  0.00  0.00    +0.000 C 
ATOM     19  C   UNL     1      18.356  20.994  39.492  0.00  0.00    +0.000 C 
ENDBRANCH  11  18
ENDBRANCH   1  16
TORSDOF 2
ENDMDL
MODEL 5
REMARK VINA RESULT:      -6.3     30.095     31.879
REMARK  Name = 
REMARK  2 active torsions:
REMARK  status: ('A' for Active; 'I' for Inactive)
REMARK    1  A    between atoms: C_2  and  C_4
REMARK    2  A    between atoms: C_9  and  C_10
REMARK                            x       y       z     vdW  Elec       q    Type
REMARK                         _______ _______ _______ _____ _____    ______ ____
ROOT
ATOM      1  C   UNL     1      18.640  21.674  35.320  0.00  0.00    +0.000 A 
ATOM      2  C   UNL     1      18.991  20.820  34.251  0.00  0.00    +0.000 A 
ATOM      3  C   UNL     1      18.117  20.535  33.244  0.00  0.00    +0.000 A 
ATOM      4  C   UNL     1      16.858  21.082  33.239  0.00  0.00    +0.000 A 
ATOM      5  C   UNL     1      16.503  21.915  34.269  0.00  0.00    +0.000 A 
ATOM      6  C   UNL     1      15.263  22.523  34.286  0.00  0.00    +0.000 A 
ATOM      7  C   UNL     1      14.890  23.381  35.287  0.00  0.00    +0.000 A 
ATOM      8  C   UNL     1      15.779  23.660  36.306  0.00  0.00    +0.000 A 
ATOM      9  C   UNL     1      17.010  23.068  36.295  0.00  0.00    +0.000 A 
ATOM     10  C   UNL     1      17.392  22.211  35.310  0.00  0.00    +0.000 A 
ENDROOT
BRANCH   1  16
ATOM     11  C   UNL     1      19.788  21.117  37.449  0.00  0.00    +0.000 A 
ATOM     12  S   UNL     1      21.187  21.662  38.207  0.00  0.00    +0.000 S 
ATOM     13  C   UNL     1      21.623  22.877  37.086  0.00  0.00    +0.000 A 
ATOM     14  N   UNL     1      22.749  23.784  37.059  0.00  0.00    +0.000 NA
ATOM     15  N   UNL     1      20.653  22.787  36.183  0.00  0.00    +0.000 NA
ATOM     16  C   UNL     1      19.707  21.923  36.307  0.00  0.00    +0.000 A 
BRANCH  11  18
ATOM     17  C   UNL     1      19.374  18.874  38.521  0.00  0.00    +0.000 C 
ATOM     18  C   UNL     1      18.755  20.110  37.874  0.00  0.00    +0.000 C 
ATOM     19  C   UNL     1      17.952  20.831  39.020  0.00  0.00    +0.000 C 
ENDBRANCH  11  18
ENDBRANCH   1  16
TORSDOF 2
ENDMDL
MODEL 6
REMARK VINA RESULT:      -6.3     20.327     22.551
REMARK  Name = 
REMARK  2 active torsions:
REMARK  status: ('A' for Active; 'I' for Inactive)
REMARK    1  A    between atoms: C_2  and  C_4
REMARK    2  A    between atoms: C_9  and  C_10
REMARK                            x       y       z     vdW  Elec       q    Type
REMARK                         _______ _______ _______ _____ _____    ______ ____
ROOT
ATOM      1  C   UNL     1      17.575  10.898  37.971  0.00  0.00    +0.000 A 
ATOM      2  C   UNL     1      17.384   9.662  38.628  0.00  0.00    +0.000 A 
ATOM      3  C   UNL     1      18.277   9.192  39.545  0.00  0.00    +0.000 A 
ATOM      4  C   UNL     1      19.398   9.918  39.862  0.00  0.00    +0.000 A 
ATOM      5  C   UNL     1      19.596  11.121  39.233  0.00  0.00    +0.000 A 
ATOM      6  C   UNL     1      20.686  11.908  39.550  0.00  0.00    +0.000 A 
ATOM      7  C   UNL     1      20.897  13.126  38.959  0.00  0.00    +0.000 A 
ATOM      8  C   UNL     1      19.991  13.593  38.027  0.00  0.00    +0.000 A 
ATOM      9  C   UNL     1      18.907  12.824  37.712  0.00  0.00    +0.000 A 
ATOM     10  C   UNL     1      18.687  11.611  38.287  0.00  0.00    +0.000 A 
ENDROOT
BRANCH   1  16
ATOM     11  C   UNL     1      16.569  10.892  35.701  0.00  0.00    +0.000 A 
ATOM     12  S   UNL     1      15.116  11.442  35.059  0.00  0.00    +0.000 S 
ATOM     13  C   UNL     1      14.472  12.159  36.472  0.00  0.00    +0.000 A 
ATOM     14  N   UNL     1      13.216  12.836  36.705  0.00  0.00    +0.000 NA
ATOM     15  N   UNL     1      15.427  11.925  37.365  0.00  0.00    +0.000 NA
ATOM     16  C   UNL     1      16.501  11.292  37.041  0.00  0.00    +0.000 A 
BRANCH  11  18
ATOM     17  C   UNL     1      17.782   8.724  35.274  0.00  0.00    +0.000 C 
ATOM     18  C   UNL     1      17.756  10.234  35.053  0.00  0.00    +0.000 C 
ATOM     19  C   UNL     1      17.520  10.432  33.509  0.00  0.00    +0.000 C 
ENDBRANCH  11  18
ENDBRANCH   1  16
TORSDOF 2
ENDMDL
MODEL 7
REMARK VINA RESULT:      -6.1     31.952     33.256
REMARK  Name = 
REMARK  2 active torsions:
REMARK  status: ('A' for Active; 'I' for Inactive)
REMARK    1  A    between atoms: C_2  and  C_4
REMARK    2  A    between atoms: C_9  and  C_10
REMARK                            x       y       z     vdW  Elec       q    Type
REMARK                         _______ _______ _______ _____ _____    ______ ____
ROOT
ATOM      1  C   UNL     1      27.175  23.323  26.672  0.00  0.00    +0.000 A 
ATOM      2  C   UNL     1      26.035  23.510  25.860  0.00  0.00    +0.000 A 
ATOM      3  C   UNL     1      26.111  23.480  24.499  0.00  0.00    +0.000 A 
ATOM      4  C   UNL     1      27.313  23.258  23.873  0.00  0.00    +0.000 A 
ATOM      5  C   UNL     1      28.429  23.073  24.649  0.00  0.00    +0.000 A 
ATOM      6  C   UNL     1      29.652  22.805  24.067  0.00  0.00    +0.000 A 
ATOM      7  C   UNL     1      30.779  22.588  24.815  0.00  0.00    +0.000 A 
ATOM      8  C   UNL     1      30.695  22.627  26.193  0.00  0.00    +0.000 A 
ATOM      9  C   UNL     1      29.488  22.886  26.778  0.00  0.00    +0.000 A 
ATOM     10  C   UNL     1      28.362  23.107  26.047  0.00  0.00    +0.000 A 
ENDROOT
BRANCH   1  16
ATOM     11  C   UNL     1      26.954  24.555  28.817  0.00  0.00    +0.000 A 
ATOM     12  S   UNL     1      26.505  24.123  30.378  0.00  0.00    +0.000 S 
ATOM     13  C   UNL     1      26.303  22.444  30.126  0.00  0.00    +0.000 A 
ATOM     14  N   UNL     1      25.901  21.390  31.031  0.00  0.00    +0.000 NA
ATOM     15  N   UNL     1      26.596  22.317  28.837  0.00  0.00    +0.000 NA
ATOM     16  C   UNL     1      26.926  23.338  28.126  0.00  0.00    +0.000 A 
BRANCH  11  18
ATOM     17  C   UNL     1      26.631  27.055  28.803  0.00  0.00    +0.000 C 
ATOM     18  C   UNL     1      27.407  25.868  28.239  0.00  0.00    +0.000 C 
ATOM     19  C   UNL     1      28.881  26.039  28.764  0.00  0.00    +0.000 C 
ENDBRANCH  11  18
ENDBRANCH   1  16
TORSDOF 2
ENDMDL
MODEL 8
REMARK VINA RESULT:      -6.1      1.153      2.631
REMARK  Name = 
REMARK  2 active torsions:
REMARK  status: ('A' for Active; 'I' for Inactive)
REMARK    1  A    between atoms: C_2  and  C_4
REMARK    2  A    between atoms: C_9  and  C_10
REMARK                            x       y       z     vdW  Elec       q    Type
REMARK                         _______ _______ _______ _____ _____    ______ ____
ROOT
ATOM      1  C   UNL     1      19.092  -8.992  27.328  0.00  0.00    +0.000 A 
ATOM      2  C   UNL     1      20.130  -9.844  26.892  0.00  0.00    +0.000 A 
ATOM      3  C   UNL     1      21.129  -9.400  26.077  0.00  0.00    +0.000 A 
ATOM      4  C   UNL     1      21.156  -8.094  25.657  0.00  0.00    +0.000 A 
ATOM      5  C   UNL     1      20.155  -7.253  26.073  0.00  0.00    +0.000 A 
ATOM      6  C   UNL     1      20.162  -5.920  25.713  0.00  0.00    +0.000 A 
ATOM      7  C   UNL     1      19.192  -5.049  26.135  0.00  0.00    +0.000 A 
ATOM      8  C   UNL     1      18.181  -5.508  26.955  0.00  0.00    +0.000 A 
ATOM      9  C   UNL     1      18.169  -6.824  27.322  0.00  0.00    +0.000 A 
ATOM     10  C   UNL     1      19.123  -7.700  26.907  0.00  0.00    +0.000 A 
ENDROOT
BRANCH   1  16
ATOM     11  C   UNL     1      17.046 -10.345  27.712  0.00  0.00    +0.000 A 
ATOM     12  S   UNL     1      16.275 -10.946  29.080  0.00  0.00    +0.000 S 
ATOM     13  C   UNL     1      17.294 -10.254  30.267  0.00  0.00    +0.000 A 
ATOM     14  N   UNL     1      17.266 -10.342  31.710  0.00  0.00    +0.000 NA
ATOM     15  N   UNL     1      18.179  -9.596  29.527  0.00  0.00    +0.000 NA
ATOM     16  C   UNL     1      18.110  -9.606  28.241  0.00  0.00    +0.000 A 
BRANCH  11  18
ATOM     17  C   UNL     1      16.040 -11.757  25.882  0.00  0.00    +0.000 C 
ATOM     18  C   UNL     1      16.689 -10.427  26.253  0.00  0.00    +0.000 C 
ATOM     19  C   UNL     1      15.567  -9.340  26.063  0.00  0.00    +0.000 C 
ENDBRANCH  11  18
ENDBRANCH   1  16
TORSDOF 2
ENDMDL
MODEL 9
REMARK VINA RESULT:      -5.8     32.723     33.940
REMARK  Name = 
REMARK  2 active torsions:
REMARK  status: ('A' for Active; 'I' for Inactive)
REMARK    1  A    between atoms: C_2  and  C_4
REMARK    2  A    between atoms: C_9  and  C_10
REMARK                            x       y       z     vdW  Elec       q    Type
REMARK                         _______ _______ _______ _____ _____    ______ ____
ROOT
ATOM      1  C   UNL     1      28.532  23.339  25.778  0.00  0.00    +0.000 A 
ATOM      2  C   UNL     1      29.835  22.823  25.605  0.00  0.00    +0.000 A 
ATOM      3  C   UNL     1      30.527  22.259  26.636  0.00  0.00    +0.000 A 
ATOM      4  C   UNL     1      29.965  22.170  27.885  0.00  0.00    +0.000 A 
ATOM      5  C   UNL     1      28.699  22.665  28.069  0.00  0.00    +0.000 A 
ATOM      6  C   UNL     1      28.075  22.560  29.296  0.00  0.00    +0.000 A 
ATOM      7  C   UNL     1      26.802  23.020  29.504  0.00  0.00    +0.000 A 
ATOM      8  C   UNL     1      26.110  23.596  28.457  0.00  0.00    +0.000 A 
ATOM      9  C   UNL     1      26.717  23.699  27.237  0.00  0.00    +0.000 A 
ATOM     10  C   UNL     1      27.982  23.250  27.018  0.00  0.00    +0.000 A 
ENDROOT
BRANCH   1  16
ATOM     11  C   UNL     1      28.208  25.173  24.137  0.00  0.00    +0.000 A 
ATOM     12  S   UNL     1      27.376  25.315  22.684  0.00  0.00    +0.000 S 
ATOM     13  C   UNL     1      26.661  23.762  22.650  0.00  0.00    +0.000 A 
ATOM     14  N   UNL     1      25.798  23.135  21.674  0.00  0.00    +0.000 NA
ATOM     15  N   UNL     1      27.115  23.221  23.775  0.00  0.00    +0.000 NA
ATOM     16  C   UNL     1      27.897  23.876  24.561  0.00  0.00    +0.000 A 
BRANCH  11  18
ATOM     17  C   UNL     1      30.369  26.462  24.290  0.00  0.00    +0.000 C 
ATOM     18  C   UNL     1      29.012  26.172  24.924  0.00  0.00    +0.000 C 
ATOM     19  C   UNL     1      28.195  27.512  24.808  0.00  0.00    +0.000 C 
ENDBRANCH  11  18
ENDBRANCH   1  16
TORSDOF 2
ENDMDL
MODEL 10
REMARK VINA RESULT:      -5.8     20.761     22.447
REMARK  Name = 
REMARK  2 active torsions:
REMARK  status: ('A' for Active; 'I' for Inactive)
REMARK    1  A    between atoms: C_2  and  C_4
REMARK    2  A    between atoms: C_9  and  C_10
REMARK                            x       y       z     vdW  Elec       q    Type
REMARK                         _______ _______ _______ _____ _____    ______ ____
ROOT
ATOM      1  C   UNL     1      22.104  10.250  37.282  0.00  0.00    +0.000 A 
ATOM      2  C   UNL     1      22.770   9.277  36.503  0.00  0.00    +0.000 A 
ATOM      3  C   UNL     1      24.042   9.467  36.052  0.00  0.00    +0.000 A 
ATOM      4  C   UNL     1      24.723  10.621  36.353  0.00  0.00    +0.000 A 
ATOM      5  C   UNL     1      24.091  11.574  37.110  0.00  0.00    +0.000 A 
ATOM      6  C   UNL     1      24.749  12.732  37.474  0.00  0.00    +0.000 A 
ATOM      7  C   UNL     1      24.154  13.690  38.252  0.00  0.00    +0.000 A 
ATOM      8  C   UNL     1      22.862  13.493  38.699  0.00  0.00    +0.000 A 
ATOM      9  C   UNL     1      22.205  12.348  38.349  0.00  0.00    +0.000 A 
ATOM     10  C   UNL     1      22.782  11.391  37.574  0.00  0.00    +0.000 A 
ENDROOT
BRANCH   1  16
ATOM     11  C   UNL     1      20.569   9.355  39.016  0.00  0.00    +0.000 A 
ATOM     12  S   UNL     1      18.900   9.203  39.141  0.00  0.00    +0.000 S 
ATOM     13  C   UNL     1      18.477   9.791  37.592  0.00  0.00    +0.000 A 
ATOM     14  N   UNL     1      17.186   9.977  36.967  0.00  0.00    +0.000 NA
ATOM     15  N   UNL     1      19.664  10.075  37.067  0.00  0.00    +0.000 NA
ATOM     16  C   UNL     1      20.749   9.881  37.731  0.00  0.00    +0.000 A 
BRANCH  11  18
ATOM     17  C   UNL     1      21.870   9.925  41.098  0.00  0.00    +0.000 C 
ATOM     18  C   UNL     1      21.678   8.944  39.946  0.00  0.00    +0.000 C 
ATOM     19  C   UNL     1      21.161   7.611  40.607  0.00  0.00    +0.000 C 
ENDBRANCH  11  18
ENDBRANCH   1  16
TORSDOF 2
ENDMDL
