MODEL 1
REMARK VINA RESULT:      -6.5      0.000      0.000
REMARK  Name = 
REMARK  3 active torsions:
REMARK  status: ('A' for Active; 'I' for Inactive)
REMARK    1  A    between atoms: C_2  and  C_11
REMARK    2  A    between atoms: N_3  and  N_4
REMARK    3  A    between atoms: N_4  and  C_5
REMARK                            x       y       z     vdW  Elec       q    Type
REMARK                         _______ _______ _______ _____ _____    ______ ____
ROOT
ATOM      1  O   UNL     1      15.521  10.871  38.013  0.00  0.00    +0.000 OA
ATOM      2  C   UNL     1      16.491  10.728  37.256  0.00  0.00    +0.000 C 
ATOM      3  N   UNL     1      17.764  10.391  37.756  0.00  0.00    +0.000 NA
ENDROOT
BRANCH   2   4
ATOM      4  C   UNL     1      16.360  10.901  35.800  0.00  0.00    +0.000 A 
ATOM      5  C   UNL     1      17.172  10.156  34.937  0.00  0.00    +0.000 A 
ATOM      6  C   UNL     1      17.034  10.327  33.554  0.00  0.00    +0.000 A 
ATOM      7  C   UNL     1      16.131  11.200  32.991  0.00  0.00    +0.000 A 
ATOM      8 CL   UNL     1      16.005  11.367  31.252  0.00  0.00    +0.000 Cl
ATOM      9  C   UNL     1      15.339  11.926  33.865  0.00  0.00    +0.000 A 
ATOM     10  C   UNL     1      15.469  11.763  35.233  0.00  0.00    +0.000 A 
ATOM     11  O   UNL     1      14.632  12.534  36.053  0.00  0.00    +0.000 OA
ENDBRANCH   2   4
BRANCH   3  12
ATOM     12  N   UNL     1      18.049  10.194  39.088  0.00  0.00    +0.000 NA
BRANCH  12  13
ATOM     13  C   UNL     1      17.790   8.998  39.830  0.00  0.00    +0.000 C 
ATOM     14  C   UNL     1      18.595   7.988  39.632  0.00  0.00    +0.000 C 
ATOM     15  C   UNL     1      18.489   6.686  40.293  0.00  0.00    +0.000 C 
ATOM     16  C   UNL     1      17.145   6.526  40.939  0.00  0.00    +0.000 C 
ATOM     17  C   UNL     1      16.800   7.784  41.745  0.00  0.00    +0.000 C 
ATOM     18  C   UNL     1      16.641   8.951  40.776  0.00  0.00    +0.000 C 
ENDBRANCH  12  13
ENDBRANCH   3  12
TORSDOF 3
ENDMDL
MODEL 2
REMARK VINA RESULT:      -6.4     20.436     21.993
REMARK  Name = 
REMARK  3 active torsions:
REMARK  status: ('A' for Active; 'I' for Inactive)
REMARK    1  A    between atoms: C_2  and  C_11
REMARK    2  A    between atoms: N_3  and  N_4
REMARK    3  A    between atoms: N_4  and  C_5
REMARK                            x       y       z     vdW  Elec       q    Type
REMARK                         _______ _______ _______ _____ _____    ______ ____
ROOT
ATOM      1  O   UNL     1      33.483  -2.907  35.064  0.00  0.00    +0.000 OA
ATOM      2  C   UNL     1      33.523  -2.397  33.936  0.00  0.00    +0.000 C 
ATOM      3  N   UNL     1      33.587  -3.193  32.776  0.00  0.00    +0.000 NA
ENDROOT
BRANCH   2   4
ATOM      4  C   UNL     1      33.506  -0.936  33.754  0.00  0.00    +0.000 A 
ATOM      5  C   UNL     1      34.273  -0.354  32.737  0.00  0.00    +0.000 A 
ATOM      6  C   UNL     1      34.244   1.036  32.572  0.00  0.00    +0.000 A 
ATOM      7  C   UNL     1      33.490   1.871  33.364  0.00  0.00    +0.000 A 
ATOM      8 CL   UNL     1      33.494   3.603  33.105  0.00  0.00    +0.000 Cl
ATOM      9  C   UNL     1      32.739   1.273  34.362  0.00  0.00    +0.000 A 
ATOM     10  C   UNL     1      32.762  -0.100  34.533  0.00  0.00    +0.000 A 
ATOM     11  O   UNL     1      31.975  -0.632  35.565  0.00  0.00    +0.000 OA
ENDBRANCH   2   4
BRANCH   3  12
ATOM     12  N   UNL     1      33.610  -4.569  32.778  0.00  0.00    +0.000 NA
BRANCH  12  13
ATOM     13  C   UNL     1      33.831  -5.402  31.636  0.00  0.00    +0.000 C 
ATOM     14  C   UNL     1      34.753  -6.323  31.740  0.00  0.00    +0.000 C 
ATOM     15  C   UNL     1      35.124  -7.265  30.683  0.00  0.00    +0.000 C 
ATOM     16  C   UNL     1      34.587  -6.814  29.357  0.00  0.00    +0.000 C 
ATOM     17  C   UNL     1      33.112  -6.418  29.498  0.00  0.00    +0.000 C 
ATOM     18  C   UNL     1      33.024  -5.194  30.402  0.00  0.00    +0.000 C 
ENDBRANCH  12  13
ENDBRANCH   3  12
TORSDOF 3
ENDMDL
MODEL 3
REMARK VINA RESULT:      -6.3      3.478      7.246
REMARK  Name = 
REMARK  3 active torsions:
REMARK  status: ('A' for Active; 'I' for Inactive)
REMARK    1  A    between atoms: C_2  and  C_11
REMARK    2  A    between atoms: N_3  and  N_4
REMARK    3  A    between atoms: N_4  and  C_5
REMARK                            x       y       z     vdW  Elec       q    Type
REMARK                         _______ _______ _______ _____ _____    ______ ____
ROOT
ATOM      1  O   UNL     1      18.672  11.052  38.610  0.00  0.00    +0.000 OA
ATOM      2  C   UNL     1      17.908  10.083  38.502  0.00  0.00    +0.000 C 
ATOM      3  N   UNL     1      17.492   9.618  37.240  0.00  0.00    +0.000 NA
ENDROOT
BRANCH   2   4
ATOM      4  C   UNL     1      17.400   9.372  39.687  0.00  0.00    +0.000 A 
ATOM      5  C   UNL     1      16.191   9.770  40.270  0.00  0.00    +0.000 A 
ATOM      6  C   UNL     1      15.717   9.082  41.393  0.00  0.00    +0.000 A 
ATOM      7  C   UNL     1      16.384   8.020  41.961  0.00  0.00    +0.000 A 
ATOM      8 CL   UNL     1      15.737   7.198  43.366  0.00  0.00    +0.000 Cl
ATOM      9  C   UNL     1      17.577   7.645  41.367  0.00  0.00    +0.000 A 
ATOM     10  C   UNL     1      18.053   8.319  40.257  0.00  0.00    +0.000 A 
ATOM     11  O   UNL     1      19.269   7.880  39.711  0.00  0.00    +0.000 OA
ENDBRANCH   2   4
BRANCH   3  12
ATOM     12  N   UNL     1      17.877  10.173  36.041  0.00  0.00    +0.000 NA
BRANCH  12  13
ATOM     13  C   UNL     1      17.001  10.745  35.065  0.00  0.00    +0.000 C 
ATOM     14  C   UNL     1      16.067  11.549  35.501  0.00  0.00    +0.000 C 
ATOM     15  C   UNL     1      15.078  12.224  34.659  0.00  0.00    +0.000 C 
ATOM     16  C   UNL     1      15.028  11.602  33.295  0.00  0.00    +0.000 C 
ATOM     17  C   UNL     1      16.451  11.424  32.750  0.00  0.00    +0.000 C 
ATOM     18  C   UNL     1      17.180  10.410  33.625  0.00  0.00    +0.000 C 
ENDBRANCH  12  13
ENDBRANCH   3  12
TORSDOF 3
ENDMDL
MODEL 4
REMARK VINA RESULT:      -6.3      3.378      4.214
REMARK  Name = 
REMARK  3 active torsions:
REMARK  status: ('A' for Active; 'I' for Inactive)
REMARK    1  A    between atoms: C_2  and  C_11
REMARK    2  A    between atoms: N_3  and  N_4
REMARK    3  A    between atoms: N_4  and  C_5
REMARK                            x       y       z     vdW  Elec       q    Type
REMARK                         _______ _______ _______ _____ _____    ______ ____
ROOT
ATOM      1  O   UNL     1      17.912   9.164  37.747  0.00  0.00    +0.000 OA
ATOM      2  C   UNL     1      18.312  10.019  36.945  0.00  0.00    +0.000 C 
ATOM      3  N   UNL     1      19.603  10.572  37.052  0.00  0.00    +0.000 NA
ENDROOT
BRANCH   2   4
ATOM      4  C   UNL     1      17.461  10.496  35.843  0.00  0.00    +0.000 A 
ATOM      5  C   UNL     1      17.717  10.069  34.534  0.00  0.00    +0.000 A 
ATOM      6  C   UNL     1      16.897  10.527  33.495  0.00  0.00    +0.000 A 
ATOM      7  C   UNL     1      15.838  11.383  33.696  0.00  0.00    +0.000 A 
ATOM      8 CL   UNL     1      14.847  11.917  32.354  0.00  0.00    +0.000 Cl
ATOM      9  C   UNL     1      15.604  11.790  34.998  0.00  0.00    +0.000 A 
ATOM     10  C   UNL     1      16.410  11.343  36.030  0.00  0.00    +0.000 A 
ATOM     11  O   UNL     1      16.110  11.800  37.323  0.00  0.00    +0.000 OA
ENDBRANCH   2   4
BRANCH   3  12
ATOM     12  N   UNL     1      20.517  10.233  38.023  0.00  0.00    +0.000 NA
BRANCH  12  13
ATOM     13  C   UNL     1      21.866   9.817  37.791  0.00  0.00    +0.000 C 
ATOM     14  C   UNL     1      22.500   9.265  38.793  0.00  0.00    +0.000 C 
ATOM     15  C   UNL     1      23.880   8.781  38.751  0.00  0.00    +0.000 C 
ATOM     16  C   UNL     1      24.597   9.321  37.549  0.00  0.00    +0.000 C 
ATOM     17  C   UNL     1      23.723   9.149  36.299  0.00  0.00    +0.000 C 
ATOM     18  C   UNL     1      22.483  10.022  36.452  0.00  0.00    +0.000 C 
ENDBRANCH  12  13
ENDBRANCH   3  12
TORSDOF 3
ENDMDL
MODEL 5
REMARK VINA RESULT:      -6.2      4.398      5.289
REMARK  Name = 
REMARK  3 active torsions:
REMARK  status: ('A' for Active; 'I' for Inactive)
REMARK    1  A    between atoms: C_2  and  C_11
REMARK    2  A    between atoms: N_3  and  N_4
REMARK    3  A    between atoms: N_4  and  C_5
REMARK                            x       y       z     vdW  Elec       q    Type
REMARK                         _______ _______ _______ _____ _____    ______ ____
ROOT
ATOM      1  O   UNL     1      18.831   9.489  38.228  0.00  0.00    +0.000 OA
ATOM      2  C   UNL     1      18.915  10.127  37.170  0.00  0.00    +0.000 C 
ATOM      3  N   UNL     1      20.116  10.168  36.435  0.00  0.00    +0.000 NA
ENDROOT
BRANCH   2   4
ATOM      4  C   UNL     1      17.766  10.872  36.630  0.00  0.00    +0.000 A 
ATOM      5  C   UNL     1      17.453  12.135  37.148  0.00  0.00    +0.000 A 
ATOM      6  C   UNL     1      16.359  12.835  36.623  0.00  0.00    +0.000 A 
ATOM      7  C   UNL     1      15.567  12.342  35.611  0.00  0.00    +0.000 A 
ATOM      8 CL   UNL     1      14.214  13.268  34.996  0.00  0.00    +0.000 Cl
ATOM      9  C   UNL     1      15.896  11.092  35.116  0.00  0.00    +0.000 A 
ATOM     10  C   UNL     1      16.974  10.393  35.629  0.00  0.00    +0.000 A 
ATOM     11  O   UNL     1      17.245   9.132  35.076  0.00  0.00    +0.000 OA
ENDBRANCH   2   4
BRANCH   3  12
ATOM     12  N   UNL     1      21.276   9.527  36.804  0.00  0.00    +0.000 NA
BRANCH  12  13
ATOM     13  C   UNL     1      22.563  10.138  36.934  0.00  0.00    +0.000 C 
ATOM     14  C   UNL     1      23.491   9.756  36.097  0.00  0.00    +0.000 C 
ATOM     15  C   UNL     1      24.864  10.262  36.076  0.00  0.00    +0.000 C 
ATOM     16  C   UNL     1      25.183  10.989  37.350  0.00  0.00    +0.000 C 
ATOM     17  C   UNL     1      24.050  11.965  37.690  0.00  0.00    +0.000 C 
ATOM     18  C   UNL     1      22.791  11.160  37.993  0.00  0.00    +0.000 C 
ENDBRANCH  12  13
ENDBRANCH   3  12
TORSDOF 3
ENDMDL
MODEL 6
REMARK VINA RESULT:      -6.1      3.537      7.143
REMARK  Name = 
REMARK  3 active torsions:
REMARK  status: ('A' for Active; 'I' for Inactive)
REMARK    1  A    between atoms: C_2  and  C_11
REMARK    2  A    between atoms: N_3  and  N_4
REMARK    3  A    between atoms: N_4  and  C_5
REMARK                            x       y       z     vdW  Elec       q    Type
REMARK                         _______ _______ _______ _____ _____    ______ ____
ROOT
ATOM      1  O   UNL     1      18.970  10.515  39.290  0.00  0.00    +0.000 OA
ATOM      2  C   UNL     1      18.008   9.754  39.121  0.00  0.00    +0.000 C 
ATOM      3  N   UNL     1      17.046  10.004  38.122  0.00  0.00    +0.000 NA
ENDROOT
BRANCH   2   4
ATOM      4  C   UNL     1      17.823   8.553  39.952  0.00  0.00    +0.000 A 
ATOM      5  C   UNL     1      18.627   7.427  39.733  0.00  0.00    +0.000 A 
ATOM      6  C   UNL     1      18.444   6.293  40.534  0.00  0.00    +0.000 A 
ATOM      7  C   UNL     1      17.506   6.227  41.539  0.00  0.00    +0.000 A 
ATOM      8 CL   UNL     1      17.328   4.779  42.509  0.00  0.00    +0.000 Cl
ATOM      9  C   UNL     1      16.724   7.352  41.737  0.00  0.00    +0.000 A 
ATOM     10  C   UNL     1      16.897   8.476  40.950  0.00  0.00    +0.000 A 
ATOM     11  O   UNL     1      16.067   9.577  41.211  0.00  0.00    +0.000 OA
ENDBRANCH   2   4
BRANCH   3  12
ATOM     12  N   UNL     1      17.077  11.080  37.265  0.00  0.00    +0.000 NA
BRANCH  12  13
ATOM     13  C   UNL     1      16.677  11.065  35.891  0.00  0.00    +0.000 C 
ATOM     14  C   UNL     1      15.769  11.930  35.525  0.00  0.00    +0.000 C 
ATOM     15  C   UNL     1      15.232  12.065  34.170  0.00  0.00    +0.000 C 
ATOM     16  C   UNL     1      15.573  10.861  33.342  0.00  0.00    +0.000 C 
ATOM     17  C   UNL     1      17.058  10.516  33.509  0.00  0.00    +0.000 C 
ATOM     18  C   UNL     1      17.296  10.088  34.953  0.00  0.00    +0.000 C 
ENDBRANCH  12  13
ENDBRANCH   3  12
TORSDOF 3
ENDMDL
MODEL 7
REMARK VINA RESULT:      -6.1     24.082     26.970
REMARK  Name = 
REMARK  3 active torsions:
REMARK  status: ('A' for Active; 'I' for Inactive)
REMARK    1  A    between atoms: C_2  and  C_11
REMARK    2  A    between atoms: N_3  and  N_4
REMARK    3  A    between atoms: N_4  and  C_5
REMARK                            x       y       z     vdW  Elec       q    Type
REMARK                         _______ _______ _______ _____ _____    ______ ____
ROOT
ATOM      1  O   UNL     1      27.954  26.401  21.123  0.00  0.00    +0.000 OA
ATOM      2  C   UNL     1      28.945  25.664  21.209  0.00  0.00    +0.000 C 
ATOM      3  N   UNL     1      29.911  25.617  20.185  0.00  0.00    +0.000 NA
ENDROOT
BRANCH   2   4
ATOM      4  C   UNL     1      29.162  24.803  22.383  0.00  0.00    +0.000 A 
ATOM      5  C   UNL     1      30.193  25.101  23.282  0.00  0.00    +0.000 A 
ATOM      6  C   UNL     1      30.386  24.277  24.397  0.00  0.00    +0.000 A 
ATOM      7  C   UNL     1      29.604  23.176  24.662  0.00  0.00    +0.000 A 
ATOM      8 CL   UNL     1      29.894  22.185  26.077  0.00  0.00    +0.000 Cl
ATOM      9  C   UNL     1      28.590  22.902  23.760  0.00  0.00    +0.000 A 
ATOM     10  C   UNL     1      28.393  23.710  22.655  0.00  0.00    +0.000 A 
ATOM     11  O   UNL     1      27.345  23.367  21.786  0.00  0.00    +0.000 OA
ENDBRANCH   2   4
BRANCH   3  12
ATOM     12  N   UNL     1      29.854  26.358  19.027  0.00  0.00    +0.000 NA
BRANCH  12  13
ATOM     13  C   UNL     1      30.548  27.586  18.786  0.00  0.00    +0.000 C 
ATOM     14  C   UNL     1      31.501  27.566  17.892  0.00  0.00    +0.000 C 
ATOM     15  C   UNL     1      32.322  28.716  17.511  0.00  0.00    +0.000 C 
ATOM     16  C   UNL     1      32.194  29.818  18.522  0.00  0.00    +0.000 C 
ATOM     17  C   UNL     1      30.714  30.054  18.852  0.00  0.00    +0.000 C 
ATOM     18  C   UNL     1      30.169  28.810  19.545  0.00  0.00    +0.000 C 
ENDBRANCH  12  13
ENDBRANCH   3  12
TORSDOF 3
ENDMDL
MODEL 8
REMARK VINA RESULT:      -6.0     20.645     21.881
REMARK  Name = 
REMARK  3 active torsions:
REMARK  status: ('A' for Active; 'I' for Inactive)
REMARK    1  A    between atoms: C_2  and  C_11
REMARK    2  A    between atoms: N_3  and  N_4
REMARK    3  A    between atoms: N_4  and  C_5
REMARK                            x       y       z     vdW  Elec       q    Type
REMARK                         _______ _______ _______ _____ _____    ______ ____
ROOT
ATOM      1  O   UNL     1      17.420  -8.303  28.043  0.00  0.00    +0.000 OA
ATOM      2  C   UNL     1      17.577  -8.065  26.838  0.00  0.00    +0.000 C 
ATOM      3  N   UNL     1      16.512  -8.192  25.924  0.00  0.00    +0.000 NA
ENDROOT
BRANCH   2   4
ATOM      4  C   UNL     1      18.880  -7.639  26.303  0.00  0.00    +0.000 A 
ATOM      5  C   UNL     1      19.855  -8.599  26.004  0.00  0.00    +0.000 A 
ATOM      6  C   UNL     1      21.089  -8.180  25.492  0.00  0.00    +0.000 A 
ATOM      7  C   UNL     1      21.398  -6.858  25.262  0.00  0.00    +0.000 A 
ATOM      8 CL   UNL     1      22.960  -6.398  24.617  0.00  0.00    +0.000 Cl
ATOM      9  C   UNL     1      20.418  -5.928  25.566  0.00  0.00    +0.000 A 
ATOM     10  C   UNL     1      19.197  -6.333  26.073  0.00  0.00    +0.000 A 
ATOM     11  O   UNL     1      18.255  -5.331  26.355  0.00  0.00    +0.000 OA
ENDBRANCH   2   4
BRANCH   3  12
ATOM     12  N   UNL     1      15.237  -8.579  26.265  0.00  0.00    +0.000 NA
BRANCH  12  13
ATOM     13  C   UNL     1      14.095  -8.548  25.402  0.00  0.00    +0.000 C 
ATOM     14  C   UNL     1      14.311  -8.708  24.123  0.00  0.00    +0.000 C 
ATOM     15  C   UNL     1      13.276  -8.704  23.089  0.00  0.00    +0.000 C 
ATOM     16  C   UNL     1      11.996  -8.131  23.620  0.00  0.00    +0.000 C 
ATOM     17  C   UNL     1      11.667  -8.760  24.980  0.00  0.00    +0.000 C 
ATOM     18  C   UNL     1      12.738  -8.340  25.979  0.00  0.00    +0.000 C 
ENDBRANCH  12  13
ENDBRANCH   3  12
TORSDOF 3
ENDMDL
MODEL 9
REMARK VINA RESULT:      -5.9      3.976      6.201
REMARK  Name = 
REMARK  3 active torsions:
REMARK  status: ('A' for Active; 'I' for Inactive)
REMARK    1  A    between atoms: C_2  and  C_11
REMARK    2  A    between atoms: N_3  and  N_4
REMARK    3  A    between atoms: N_4  and  C_5
REMARK                            x       y       z     vdW  Elec       q    Type
REMARK                         _______ _______ _______ _____ _____    ______ ____
ROOT
ATOM      1  O   UNL     1      18.307   8.424  39.093  0.00  0.00    +0.000 OA
ATOM      2  C   UNL     1      18.683   9.446  38.503  0.00  0.00    +0.000 C 
ATOM      3  N   UNL     1      17.790  10.499  38.225  0.00  0.00    +0.000 NA
ENDROOT
BRANCH   2   4
ATOM      4  C   UNL     1      20.079   9.610  38.067  0.00  0.00    +0.000 A 
ATOM      5  C   UNL     1      20.373   9.710  36.701  0.00  0.00    +0.000 A 
ATOM      6  C   UNL     1      21.704   9.869  36.300  0.00  0.00    +0.000 A 
ATOM      7  C   UNL     1      22.754   9.937  37.188  0.00  0.00    +0.000 A 
ATOM      8 CL   UNL     1      24.399  10.141  36.622  0.00  0.00    +0.000 Cl
ATOM      9  C   UNL     1      22.439   9.837  38.532  0.00  0.00    +0.000 A 
ATOM     10  C   UNL     1      21.126   9.678  38.938  0.00  0.00    +0.000 A 
ATOM     11  O   UNL     1      20.887   9.584  40.317  0.00  0.00    +0.000 OA
ENDBRANCH   2   4
BRANCH   3  12
ATOM     12  N   UNL     1      16.457  10.498  38.566  0.00  0.00    +0.000 NA
BRANCH  12  13
ATOM     13  C   UNL     1      15.401  11.102  37.812  0.00  0.00    +0.000 C 
ATOM     14  C   UNL     1      15.712  11.597  36.643  0.00  0.00    +0.000 C 
ATOM     15  C   UNL     1      14.774  12.253  35.731  0.00  0.00    +0.000 C 
ATOM     16  C   UNL     1      13.506  12.619  36.446  0.00  0.00    +0.000 C 
ATOM     17  C   UNL     1      13.009  11.424  37.270  0.00  0.00    +0.000 C 
ATOM     18  C   UNL     1      14.022  11.142  38.373  0.00  0.00    +0.000 C 
ENDBRANCH  12  13
ENDBRANCH   3  12
TORSDOF 3
ENDMDL
MODEL 10
REMARK VINA RESULT:      -5.8     21.805     22.954
REMARK  Name = 
REMARK  3 active torsions:
REMARK  status: ('A' for Active; 'I' for Inactive)
REMARK    1  A    between atoms: C_2  and  C_11
REMARK    2  A    between atoms: N_3  and  N_4
REMARK    3  A    between atoms: N_4  and  C_5
REMARK                            x       y       z     vdW  Elec       q    Type
REMARK                         _______ _______ _______ _____ _____    ______ ____
ROOT
ATOM      1  O   UNL     1      25.144   2.224  15.600  0.00  0.00    +0.000 OA
ATOM      2  C   UNL     1      24.319   3.055  16.001  0.00  0.00    +0.000 C 
ATOM      3  N   UNL     1      24.679   4.402  16.205  0.00  0.00    +0.000 NA
ENDROOT
BRANCH   2   4
ATOM      4  C   UNL     1      22.924   2.678  16.282  0.00  0.00    +0.000 A 
ATOM      5  C   UNL     1      21.981   2.688  15.247  0.00  0.00    +0.000 A 
ATOM      6  C   UNL     1      20.658   2.323  15.526  0.00  0.00    +0.000 A 
ATOM      7  C   UNL     1      20.232   1.947  16.779  0.00  0.00    +0.000 A 
ATOM      8 CL   UNL     1      18.563   1.499  17.064  0.00  0.00    +0.000 Cl
ATOM      9  C   UNL     1      21.182   1.945  17.786  0.00  0.00    +0.000 A 
ATOM     10  C   UNL     1      22.491   2.305  17.519  0.00  0.00    +0.000 A 
ATOM     11  O   UNL     1      23.396   2.278  18.591  0.00  0.00    +0.000 OA
ENDBRANCH   2   4
BRANCH   3  12
ATOM     12  N   UNL     1      25.939   4.911  15.989  0.00  0.00    +0.000 NA
BRANCH  12  13
ATOM     13  C   UNL     1      26.722   5.636  16.942  0.00  0.00    +0.000 C 
ATOM     14  C   UNL     1      26.760   5.168  18.162  0.00  0.00    +0.000 C 
ATOM     15  C   UNL     1      27.500   5.769  19.271  0.00  0.00    +0.000 C 
ATOM     16  C   UNL     1      27.904   7.176  18.940  0.00  0.00    +0.000 C 
ATOM     17  C   UNL     1      28.523   7.224  17.537  0.00  0.00    +0.000 C 
ATOM     18  C   UNL     1      27.445   6.868  16.520  0.00  0.00    +0.000 C 
ENDBRANCH  12  13
ENDBRANCH   3  12
TORSDOF 3
ENDMDL
