MODEL 1
REMARK VINA RESULT:      -6.5      0.000      0.000
REMARK  Name = 
REMARK  2 active torsions:
REMARK  status: ('A' for Active; 'I' for Inactive)
REMARK    1  A    between atoms: N_6  and  N_7
REMARK    2  A    between atoms: N_7  and  C_8
REMARK                            x       y       z     vdW  Elec       q    Type
REMARK                         _______ _______ _______ _____ _____    ______ ____
ROOT
ATOM      1 CL   UNL     1      14.228  11.248  38.016  0.00  0.00    +0.000 Cl
ATOM      2  C   UNL     1      15.903  10.787  37.867  0.00  0.00    +0.000 A 
ATOM      3  N   UNL     1      16.641  11.007  36.772  0.00  0.00    +0.000 NA
ATOM      4  N   UNL     1      17.909  10.644  36.694  0.00  0.00    +0.000 NA
ATOM      5  C   UNL     1      18.539  10.028  37.718  0.00  0.00    +0.000 A 
ATOM      6  N   UNL     1      19.881   9.620  37.691  0.00  0.00    +0.000 NA
ATOM      7  C   UNL     1      17.814   9.777  38.879  0.00  0.00    +0.000 A 
ATOM      8  C   UNL     1      18.388   9.150  39.970  0.00  0.00    +0.000 A 
ATOM      9  C   UNL     1      17.663   8.906  41.117  0.00  0.00    +0.000 A 
ATOM     10  C   UNL     1      16.339   9.278  41.216  0.00  0.00    +0.000 A 
ATOM     11  C   UNL     1      15.770   9.906  40.115  0.00  0.00    +0.000 A 
ATOM     12  C   UNL     1      16.491  10.154  38.965  0.00  0.00    +0.000 A 
ENDROOT
BRANCH   6  13
ATOM     13  N   UNL     1      20.764   9.774  36.648  0.00  0.00    +0.000 NA
BRANCH  13  14
ATOM     14  C   UNL     1      22.102  10.231  36.767  0.00  0.00    +0.000 C 
ATOM     15  C   UNL     1      23.097   9.694  36.089  0.00  0.00    +0.000 C 
ATOM     16  C   UNL     1      24.499  10.111  36.160  0.00  0.00    +0.000 C 
ATOM     17  C   UNL     1      24.776  11.225  37.110  0.00  0.00    +0.000 C 
ATOM     18  C   UNL     1      23.787  11.086  38.274  0.00  0.00    +0.000 C 
ATOM     19  C   UNL     1      22.417  11.356  37.687  0.00  0.00    +0.000 C 
ENDBRANCH  13  14
ENDBRANCH   6  13
TORSDOF 2
ENDMDL
MODEL 2
REMARK VINA RESULT:      -6.3     21.382     22.731
REMARK  Name = 
REMARK  2 active torsions:
REMARK  status: ('A' for Active; 'I' for Inactive)
REMARK    1  A    between atoms: N_6  and  N_7
REMARK    2  A    between atoms: N_7  and  C_8
REMARK                            x       y       z     vdW  Elec       q    Type
REMARK                         _______ _______ _______ _____ _____    ______ ____
ROOT
ATOM      1 CL   UNL     1      18.854 -10.083  27.816  0.00  0.00    +0.000 Cl
ATOM      2  C   UNL     1      19.930  -9.083  26.877  0.00  0.00    +0.000 A 
ATOM      3  N   UNL     1      21.076  -9.521  26.341  0.00  0.00    +0.000 NA
ATOM      4  N   UNL     1      21.867  -8.734  25.633  0.00  0.00    +0.000 NA
ATOM      5  C   UNL     1      21.566  -7.437  25.406  0.00  0.00    +0.000 A 
ATOM      6  N   UNL     1      22.368  -6.557  24.665  0.00  0.00    +0.000 NA
ATOM      7  C   UNL     1      20.384  -6.934  25.943  0.00  0.00    +0.000 A 
ATOM      8  C   UNL     1      20.007  -5.617  25.754  0.00  0.00    +0.000 A 
ATOM      9  C   UNL     1      18.834  -5.126  26.288  0.00  0.00    +0.000 A 
ATOM     10  C   UNL     1      17.997  -5.933  27.029  0.00  0.00    +0.000 A 
ATOM     11  C   UNL     1      18.384  -7.254  27.214  0.00  0.00    +0.000 A 
ATOM     12  C   UNL     1      19.556  -7.751  26.681  0.00  0.00    +0.000 A 
ENDROOT
BRANCH   6  13
ATOM     13  N   UNL     1      23.565  -6.853  24.055  0.00  0.00    +0.000 NA
BRANCH  13  14
ATOM     14  C   UNL     1      23.713  -7.614  22.866  0.00  0.00    +0.000 C 
ATOM     15  C   UNL     1      22.762  -7.700  21.957  0.00  0.00    +0.000 C 
ATOM     16  C   UNL     1      22.842  -8.464  20.711  0.00  0.00    +0.000 C 
ATOM     17  C   UNL     1      24.118  -9.207  20.510  0.00  0.00    +0.000 C 
ATOM     18  C   UNL     1      24.619  -9.633  21.895  0.00  0.00    +0.000 C 
ATOM     19  C   UNL     1      24.980  -8.350  22.617  0.00  0.00    +0.000 C 
ENDBRANCH  13  14
ENDBRANCH   6  13
TORSDOF 2
ENDMDL
MODEL 3
REMARK VINA RESULT:      -6.3     19.263     20.753
REMARK  Name = 
REMARK  2 active torsions:
REMARK  status: ('A' for Active; 'I' for Inactive)
REMARK    1  A    between atoms: N_6  and  N_7
REMARK    2  A    between atoms: N_7  and  C_8
REMARK                            x       y       z     vdW  Elec       q    Type
REMARK                         _______ _______ _______ _____ _____    ______ ____
ROOT
ATOM      1 CL   UNL     1      29.013  24.724  21.335  0.00  0.00    +0.000 Cl
ATOM      2  C   UNL     1      29.315  24.007  22.895  0.00  0.00    +0.000 A 
ATOM      3  N   UNL     1      30.540  23.811  23.399  0.00  0.00    +0.000 NA
ATOM      4  N   UNL     1      30.732  23.264  24.587  0.00  0.00    +0.000 NA
ATOM      5  C   UNL     1      29.701  22.871  25.366  0.00  0.00    +0.000 A 
ATOM      6  N   UNL     1      29.845  22.285  26.633  0.00  0.00    +0.000 NA
ATOM      7  C   UNL     1      28.408  23.055  24.886  0.00  0.00    +0.000 A 
ATOM      8  C   UNL     1      27.301  22.677  25.625  0.00  0.00    +0.000 A 
ATOM      9  C   UNL     1      26.023  22.863  25.142  0.00  0.00    +0.000 A 
ATOM     10  C   UNL     1      25.804  23.431  23.905  0.00  0.00    +0.000 A 
ATOM     11  C   UNL     1      26.921  23.807  23.170  0.00  0.00    +0.000 A 
ATOM     12  C   UNL     1      28.203  23.624  23.648  0.00  0.00    +0.000 A 
ENDROOT
BRANCH   6  13
ATOM     13  N   UNL     1      31.027  22.019  27.284  0.00  0.00    +0.000 NA
BRANCH  13  14
ATOM     14  C   UNL     1      31.232  22.120  28.685  0.00  0.00    +0.000 C 
ATOM     15  C   UNL     1      30.403  22.772  29.476  0.00  0.00    +0.000 C 
ATOM     16  C   UNL     1      30.548  22.920  30.926  0.00  0.00    +0.000 C 
ATOM     17  C   UNL     1      31.764  22.280  31.503  0.00  0.00    +0.000 C 
ATOM     18  C   UNL     1      32.869  22.366  30.445  0.00  0.00    +0.000 C 
ATOM     19  C   UNL     1      32.420  21.476  29.304  0.00  0.00    +0.000 C 
ENDBRANCH  13  14
ENDBRANCH   6  13
TORSDOF 2
ENDMDL
MODEL 4
REMARK VINA RESULT:      -6.2     18.063     20.140
REMARK  Name = 
REMARK  2 active torsions:
REMARK  status: ('A' for Active; 'I' for Inactive)
REMARK    1  A    between atoms: N_6  and  N_7
REMARK    2  A    between atoms: N_7  and  C_8
REMARK                            x       y       z     vdW  Elec       q    Type
REMARK                         _______ _______ _______ _____ _____    ______ ____
ROOT
ATOM      1 CL   UNL     1      23.727  26.808  28.856  0.00  0.00    +0.000 Cl
ATOM      2  C   UNL     1      24.570  25.688  27.819  0.00  0.00    +0.000 A 
ATOM      3  N   UNL     1      24.459  25.681  26.485  0.00  0.00    +0.000 NA
ATOM      4  N   UNL     1      25.114  24.816  25.730  0.00  0.00    +0.000 NA
ATOM      5  C   UNL     1      25.936  23.885  26.260  0.00  0.00    +0.000 A 
ATOM      6  N   UNL     1      26.654  22.943  25.508  0.00  0.00    +0.000 NA
ATOM      7  C   UNL     1      26.085  23.852  27.644  0.00  0.00    +0.000 A 
ATOM      8  C   UNL     1      26.908  22.928  28.261  0.00  0.00    +0.000 A 
ATOM      9  C   UNL     1      27.050  22.902  29.633  0.00  0.00    +0.000 A 
ATOM     10  C   UNL     1      26.375  23.797  30.436  0.00  0.00    +0.000 A 
ATOM     11  C   UNL     1      25.550  24.721  29.807  0.00  0.00    +0.000 A 
ATOM     12  C   UNL     1      25.404  24.752  28.435  0.00  0.00    +0.000 A 
ENDROOT
BRANCH   6  13
ATOM     13  N   UNL     1      26.648  22.808  24.140  0.00  0.00    +0.000 NA
BRANCH  13  14
ATOM     14  C   UNL     1      27.512  23.490  23.244  0.00  0.00    +0.000 C 
ATOM     15  C   UNL     1      28.777  23.732  23.528  0.00  0.00    +0.000 C 
ATOM     16  C   UNL     1      29.726  24.429  22.658  0.00  0.00    +0.000 C 
ATOM     17  C   UNL     1      29.160  24.903  21.363  0.00  0.00    +0.000 C 
ATOM     18  C   UNL     1      27.692  25.265  21.614  0.00  0.00    +0.000 C 
ATOM     19  C   UNL     1      26.993  23.958  21.933  0.00  0.00    +0.000 C 
ENDBRANCH  13  14
ENDBRANCH   6  13
TORSDOF 2
ENDMDL
MODEL 5
REMARK VINA RESULT:      -6.1     10.973     12.032
REMARK  Name = 
REMARK  2 active torsions:
REMARK  status: ('A' for Active; 'I' for Inactive)
REMARK    1  A    between atoms: N_6  and  N_7
REMARK    2  A    between atoms: N_7  and  C_8
REMARK                            x       y       z     vdW  Elec       q    Type
REMARK                         _______ _______ _______ _____ _____    ______ ____
ROOT
ATOM      1 CL   UNL     1      14.720  23.460  35.699  0.00  0.00    +0.000 Cl
ATOM      2  C   UNL     1      16.398  22.988  35.726  0.00  0.00    +0.000 A 
ATOM      3  N   UNL     1      17.285  23.443  36.619  0.00  0.00    +0.000 NA
ATOM      4  N   UNL     1      18.551  23.063  36.610  0.00  0.00    +0.000 NA
ATOM      5  C   UNL     1      19.028  22.191  35.695  0.00  0.00    +0.000 A 
ATOM      6  N   UNL     1      20.359  21.754  35.637  0.00  0.00    +0.000 NA
ATOM      7  C   UNL     1      18.143  21.689  34.745  0.00  0.00    +0.000 A 
ATOM      8  C   UNL     1      18.555  20.791  33.776  0.00  0.00    +0.000 A 
ATOM      9  C   UNL     1      17.673  20.298  32.838  0.00  0.00    +0.000 A 
ATOM     10  C   UNL     1      16.349  20.683  32.833  0.00  0.00    +0.000 A 
ATOM     11  C   UNL     1      15.944  21.585  33.809  0.00  0.00    +0.000 A 
ATOM     12  C   UNL     1      16.822  22.082  34.751  0.00  0.00    +0.000 A 
ENDROOT
BRANCH   6  13
ATOM     13  N   UNL     1      21.383  22.125  36.477  0.00  0.00    +0.000 NA
BRANCH  13  14
ATOM     14  C   UNL     1      21.989  21.290  37.451  0.00  0.00    +0.000 C 
ATOM     15  C   UNL     1      23.163  21.562  37.985  0.00  0.00    +0.000 C 
ATOM     16  C   UNL     1      23.850  20.750  38.991  0.00  0.00    +0.000 C 
ATOM     17  C   UNL     1      23.129  19.510  39.396  0.00  0.00    +0.000 C 
ATOM     18  C   UNL     1      22.356  19.012  38.170  0.00  0.00    +0.000 C 
ATOM     19  C   UNL     1      21.291  20.057  37.900  0.00  0.00    +0.000 C 
ENDBRANCH  13  14
ENDBRANCH   6  13
TORSDOF 2
ENDMDL
MODEL 6
REMARK VINA RESULT:      -6.1      3.844      5.149
REMARK  Name = 
REMARK  2 active torsions:
REMARK  status: ('A' for Active; 'I' for Inactive)
REMARK    1  A    between atoms: N_6  and  N_7
REMARK    2  A    between atoms: N_7  and  C_8
REMARK                            x       y       z     vdW  Elec       q    Type
REMARK                         _______ _______ _______ _____ _____    ______ ____
ROOT
ATOM      1 CL   UNL     1      17.647   4.567  42.258  0.00  0.00    +0.000 Cl
ATOM      2  C   UNL     1      17.831   6.066  41.387  0.00  0.00    +0.000 A 
ATOM      3  N   UNL     1      18.432   6.165  40.194  0.00  0.00    +0.000 NA
ATOM      4  N   UNL     1      18.554   7.319  39.562  0.00  0.00    +0.000 NA
ATOM      5  C   UNL     1      18.078   8.471  40.081  0.00  0.00    +0.000 A 
ATOM      6  N   UNL     1      18.179   9.723  39.456  0.00  0.00    +0.000 NA
ATOM      7  C   UNL     1      17.444   8.420  41.320  0.00  0.00    +0.000 A 
ATOM      8  C   UNL     1      16.930   9.557  41.917  0.00  0.00    +0.000 A 
ATOM      9  C   UNL     1      16.303   9.498  43.144  0.00  0.00    +0.000 A 
ATOM     10  C   UNL     1      16.167   8.303  43.817  0.00  0.00    +0.000 A 
ATOM     11  C   UNL     1      16.687   7.167  43.211  0.00  0.00    +0.000 A 
ATOM     12  C   UNL     1      17.314   7.219  41.983  0.00  0.00    +0.000 A 
ENDROOT
BRANCH   6  13
ATOM     13  N   UNL     1      18.763   9.988  38.239  0.00  0.00    +0.000 NA
BRANCH  13  14
ATOM     14  C   UNL     1      18.073  10.089  37.003  0.00  0.00    +0.000 C 
ATOM     15  C   UNL     1      18.537   9.558  35.889  0.00  0.00    +0.000 C 
ATOM     16  C   UNL     1      17.883   9.621  34.579  0.00  0.00    +0.000 C 
ATOM     17  C   UNL     1      16.601  10.380  34.554  0.00  0.00    +0.000 C 
ATOM     18  C   UNL     1      16.716  11.503  35.591  0.00  0.00    +0.000 C 
ATOM     19  C   UNL     1      16.778  10.816  36.940  0.00  0.00    +0.000 C 
ENDBRANCH  13  14
ENDBRANCH   6  13
TORSDOF 2
ENDMDL
MODEL 7
REMARK VINA RESULT:      -6.1     18.202     19.463
REMARK  Name = 
REMARK  2 active torsions:
REMARK  status: ('A' for Active; 'I' for Inactive)
REMARK    1  A    between atoms: N_6  and  N_7
REMARK    2  A    between atoms: N_7  and  C_8
REMARK                            x       y       z     vdW  Elec       q    Type
REMARK                         _______ _______ _______ _____ _____    ______ ____
ROOT
ATOM      1 CL   UNL     1      25.912  25.508  31.929  0.00  0.00    +0.000 Cl
ATOM      2  C   UNL     1      26.147  24.820  30.344  0.00  0.00    +0.000 A 
ATOM      3  N   UNL     1      27.087  23.911  30.058  0.00  0.00    +0.000 NA
ATOM      4  N   UNL     1      27.236  23.411  28.844  0.00  0.00    +0.000 NA
ATOM      5  C   UNL     1      26.446  23.788  27.816  0.00  0.00    +0.000 A 
ATOM      6  N   UNL     1      26.559  23.292  26.508  0.00  0.00    +0.000 NA
ATOM      7  C   UNL     1      25.452  24.731  28.063  0.00  0.00    +0.000 A 
ATOM      8  C   UNL     1      24.604  25.167  27.061  0.00  0.00    +0.000 A 
ATOM      9  C   UNL     1      23.621  26.102  27.314  0.00  0.00    +0.000 A 
ATOM     10  C   UNL     1      23.452  26.634  28.574  0.00  0.00    +0.000 A 
ATOM     11  C   UNL     1      24.309  26.191  29.574  0.00  0.00    +0.000 A 
ATOM     12  C   UNL     1      25.293  25.255  29.327  0.00  0.00    +0.000 A 
ENDROOT
BRANCH   6  13
ATOM     13  N   UNL     1      27.466  22.362  26.059  0.00  0.00    +0.000 NA
BRANCH  13  14
ATOM     14  C   UNL     1      28.764  22.654  25.566  0.00  0.00    +0.000 C 
ATOM     15  C   UNL     1      29.832  22.651  26.340  0.00  0.00    +0.000 C 
ATOM     16  C   UNL     1      31.200  22.942  25.905  0.00  0.00    +0.000 C 
ATOM     17  C   UNL     1      31.340  23.285  24.462  0.00  0.00    +0.000 C 
ATOM     18  C   UNL     1      30.056  24.010  24.040  0.00  0.00    +0.000 C 
ATOM     19  C   UNL     1      28.950  22.977  24.127  0.00  0.00    +0.000 C 
ENDBRANCH  13  14
ENDBRANCH   6  13
TORSDOF 2
ENDMDL
MODEL 8
REMARK VINA RESULT:      -6.0     20.684     22.189
REMARK  Name = 
REMARK  2 active torsions:
REMARK  status: ('A' for Active; 'I' for Inactive)
REMARK    1  A    between atoms: N_6  and  N_7
REMARK    2  A    between atoms: N_7  and  C_8
REMARK                            x       y       z     vdW  Elec       q    Type
REMARK                         _______ _______ _______ _____ _____    ______ ____
ROOT
ATOM      1 CL   UNL     1      10.589  18.967  19.771  0.00  0.00    +0.000 Cl
ATOM      2  C   UNL     1      10.418  20.377  20.783  0.00  0.00    +0.000 A 
ATOM      3  N   UNL     1       9.325  20.645  21.507  0.00  0.00    +0.000 NA
ATOM      4  N   UNL     1       9.231  21.725  22.265  0.00  0.00    +0.000 NA
ATOM      5  C   UNL     1      10.235  22.624  22.353  0.00  0.00    +0.000 A 
ATOM      6  N   UNL     1      10.190  23.785  23.139  0.00  0.00    +0.000 NA
ATOM      7  C   UNL     1      11.394  22.389  21.618  0.00  0.00    +0.000 A 
ATOM      8  C   UNL     1      12.465  23.263  21.656  0.00  0.00    +0.000 A 
ATOM      9  C   UNL     1      13.609  23.023  20.926  0.00  0.00    +0.000 A 
ATOM     10  C   UNL     1      13.725  21.902  20.131  0.00  0.00    +0.000 A 
ATOM     11  C   UNL     1      12.644  21.030  20.098  0.00  0.00    +0.000 A 
ATOM     12  C   UNL     1      11.496  21.265  20.827  0.00  0.00    +0.000 A 
ENDROOT
BRANCH   6  13
ATOM     13  N   UNL     1       9.147  24.198  23.934  0.00  0.00    +0.000 NA
BRANCH  13  14
ATOM     14  C   UNL     1       9.149  24.200  25.353  0.00  0.00    +0.000 C 
ATOM     15  C   UNL     1      10.224  24.492  26.059  0.00  0.00    +0.000 C 
ATOM     16  C   UNL     1      10.302  24.514  27.521  0.00  0.00    +0.000 C 
ATOM     17  C   UNL     1       9.040  24.147  28.223  0.00  0.00    +0.000 C 
ATOM     18  C   UNL     1       8.314  23.120  27.347  0.00  0.00    +0.000 C 
ATOM     19  C   UNL     1       7.903  23.863  26.091  0.00  0.00    +0.000 C 
ENDBRANCH  13  14
ENDBRANCH   6  13
TORSDOF 2
ENDMDL
MODEL 9
REMARK VINA RESULT:      -5.9     21.141     22.442
REMARK  Name = 
REMARK  2 active torsions:
REMARK  status: ('A' for Active; 'I' for Inactive)
REMARK    1  A    between atoms: N_6  and  N_7
REMARK    2  A    between atoms: N_7  and  C_8
REMARK                            x       y       z     vdW  Elec       q    Type
REMARK                         _______ _______ _______ _____ _____    ______ ____
ROOT
ATOM      1 CL   UNL     1      22.228  -8.266  24.940  0.00  0.00    +0.000 Cl
ATOM      2  C   UNL     1      20.837  -8.609  25.934  0.00  0.00    +0.000 A 
ATOM      3  N   UNL     1      20.550  -9.823  26.418  0.00  0.00    +0.000 NA
ATOM      4  N   UNL     1      19.486 -10.046  27.170  0.00  0.00    +0.000 NA
ATOM      5  C   UNL     1      18.623  -9.060  27.496  0.00  0.00    +0.000 A 
ATOM      6  N   UNL     1      17.479  -9.239  28.288  0.00  0.00    +0.000 NA
ATOM      7  C   UNL     1      18.879  -7.778  27.016  0.00  0.00    +0.000 A 
ATOM      8  C   UNL     1      18.042  -6.716  27.306  0.00  0.00    +0.000 A 
ATOM      9  C   UNL     1      18.303  -5.449  26.828  0.00  0.00    +0.000 A 
ATOM     10  C   UNL     1      19.408  -5.199  26.042  0.00  0.00    +0.000 A 
ATOM     11  C   UNL     1      20.243  -6.271  25.755  0.00  0.00    +0.000 A 
ATOM     12  C   UNL     1      19.987  -7.541  26.232  0.00  0.00    +0.000 A 
ENDROOT
BRANCH   6  13
ATOM     13  N   UNL     1      17.050 -10.415  28.856  0.00  0.00    +0.000 NA
BRANCH  13  14
ATOM     14  C   UNL     1      17.260 -10.798  30.206  0.00  0.00    +0.000 C 
ATOM     15  C   UNL     1      16.366 -10.580  31.151  0.00  0.00    +0.000 C 
ATOM     16  C   UNL     1      16.513 -10.946  32.562  0.00  0.00    +0.000 C 
ATOM     17  C   UNL     1      17.807 -11.596  32.911  0.00  0.00    +0.000 C 
ATOM     18  C   UNL     1      18.878 -11.001  31.989  0.00  0.00    +0.000 C 
ATOM     19  C   UNL     1      18.528 -11.471  30.592  0.00  0.00    +0.000 C 
ENDBRANCH  13  14
ENDBRANCH   6  13
TORSDOF 2
ENDMDL
MODEL 10
REMARK VINA RESULT:      -5.9     21.859     23.312
REMARK  Name = 
REMARK  2 active torsions:
REMARK  status: ('A' for Active; 'I' for Inactive)
REMARK    1  A    between atoms: N_6  and  N_7
REMARK    2  A    between atoms: N_7  and  C_8
REMARK                            x       y       z     vdW  Elec       q    Type
REMARK                         _______ _______ _______ _____ _____    ______ ____
ROOT
ATOM      1 CL   UNL     1      21.592  -8.649  24.390  0.00  0.00    +0.000 Cl
ATOM      2  C   UNL     1      19.967  -8.693  25.019  0.00  0.00    +0.000 A 
ATOM      3  N   UNL     1      19.181  -9.776  24.977  0.00  0.00    +0.000 NA
ATOM      4  N   UNL     1      17.953  -9.773  25.465  0.00  0.00    +0.000 NA
ATOM      5  C   UNL     1      17.415  -8.674  26.037  0.00  0.00    +0.000 A 
ATOM      6  N   UNL     1      16.119  -8.614  26.570  0.00  0.00    +0.000 NA
ATOM      7  C   UNL     1      18.193  -7.522  26.106  0.00  0.00    +0.000 A 
ATOM      8  C   UNL     1      17.713  -6.358  26.677  0.00  0.00    +0.000 A 
ATOM      9  C   UNL     1      18.491  -5.220  26.741  0.00  0.00    +0.000 A 
ATOM     10  C   UNL     1      19.774  -5.205  26.237  0.00  0.00    +0.000 A 
ATOM     11  C   UNL     1      20.248  -6.379  25.665  0.00  0.00    +0.000 A 
ATOM     12  C   UNL     1      19.475  -7.521  25.598  0.00  0.00    +0.000 A 
ENDROOT
BRANCH   6  13
ATOM     13  N   UNL     1      15.196  -9.633  26.603  0.00  0.00    +0.000 NA
BRANCH  13  14
ATOM     14  C   UNL     1      13.799  -9.481  26.409  0.00  0.00    +0.000 C 
ATOM     15  C   UNL     1      13.294  -8.653  25.515  0.00  0.00    +0.000 C 
ATOM     16  C   UNL     1      11.868  -8.442  25.259  0.00  0.00    +0.000 C 
ATOM     17  C   UNL     1      10.951  -9.239  26.123  0.00  0.00    +0.000 C 
ATOM     18  C   UNL     1      11.636  -9.404  27.484  0.00  0.00    +0.000 C 
ATOM     19  C   UNL     1      12.850 -10.275  27.233  0.00  0.00    +0.000 C 
ENDBRANCH  13  14
ENDBRANCH   6  13
TORSDOF 2
ENDMDL
