MODEL 1
REMARK VINA RESULT:      -6.8      0.000      0.000
REMARK  Name = 
REMARK  3 active torsions:
REMARK  status: ('A' for Active; 'I' for Inactive)
REMARK    1  A    between atoms: C_2  and  C_5
REMARK    2  A    between atoms: C_8  and  C_9
REMARK    3  A    between atoms: N_11  and  C_12
REMARK                            x       y       z     vdW  Elec       q    Type
REMARK                         _______ _______ _______ _____ _____    ______ ____
ROOT
ATOM      1  C   UNL     1      35.617  21.259  10.944  0.00  0.00    +0.000 A 
ATOM      2  C   UNL     1      35.144  20.285  11.795  0.00  0.00    +0.000 A 
ATOM      3  C   UNL     1      33.812  20.318  12.198  0.00  0.00    +0.000 A 
ATOM      4  C   UNL     1      32.916  21.289  11.791  0.00  0.00    +0.000 A 
ATOM      5  C   UNL     1      33.406  22.263  10.935  0.00  0.00    +0.000 A 
ATOM      6  C   UNL     1      34.737  22.233  10.527  0.00  0.00    +0.000 A 
ENDROOT
BRANCH   1   8
ATOM      7  C   UNL     1      37.766  22.306  11.333  0.00  0.00    +0.000 C 
ATOM      8  C   UNL     1      37.037  21.294  10.459  0.00  0.00    +0.000 C 
ATOM      9  C   UNL     1      37.688  19.954  10.528  0.00  0.00    +0.000 C 
ATOM     10  C   UNL     1      37.052  21.809   9.052  0.00  0.00    +0.000 C 
ENDBRANCH   1   8
BRANCH   4  11
ATOM     11  C   UNL     1      31.522  21.326  12.200  0.00  0.00    +0.000 C 
ATOM     12  O   UNL     1      30.961  20.414  12.853  0.00  0.00    +0.000 OA
ATOM     13  N   UNL     1      30.766  22.461  11.838  0.00  0.00    +0.000 NA
BRANCH  13  14
ATOM     14  C   UNL     1      29.409  22.690  12.135  0.00  0.00    +0.000 A 
ATOM     15  C   UNL     1      29.169  23.332  13.354  0.00  0.00    +0.000 A 
ATOM     16  C   UNL     1      27.892  23.618  13.768  0.00  0.00    +0.000 A 
ATOM     17  C   UNL     1      26.861  23.248  12.938  0.00  0.00    +0.000 A 
ATOM     18  C   UNL     1      27.056  22.609  11.719  0.00  0.00    +0.000 A 
ATOM     19  O   UNL     1      25.938  22.282  10.959  0.00  0.00    +0.000 OA
ATOM     20  C   UNL     1      28.351  22.341  11.341  0.00  0.00    +0.000 A 
ENDBRANCH  13  14
ENDBRANCH   4  11
TORSDOF 3
ENDMDL
MODEL 2
REMARK VINA RESULT:      -6.5     30.729     32.429
REMARK  Name = 
REMARK  3 active torsions:
REMARK  status: ('A' for Active; 'I' for Inactive)
REMARK    1  A    between atoms: C_2  and  C_5
REMARK    2  A    between atoms: C_8  and  C_9
REMARK    3  A    between atoms: N_11  and  C_12
REMARK                            x       y       z     vdW  Elec       q    Type
REMARK                         _______ _______ _______ _____ _____    ______ ____
ROOT
ATOM      1  C   UNL     1      33.767   3.467  34.986  0.00  0.00    +0.000 A 
ATOM      2  C   UNL     1      33.555   2.779  33.812  0.00  0.00    +0.000 A 
ATOM      3  C   UNL     1      33.612   1.388  33.817  0.00  0.00    +0.000 A 
ATOM      4  C   UNL     1      33.874   0.639  34.949  0.00  0.00    +0.000 A 
ATOM      5  C   UNL     1      34.085   1.345  36.122  0.00  0.00    +0.000 A 
ATOM      6  C   UNL     1      34.028   2.737  36.124  0.00  0.00    +0.000 A 
ENDROOT
BRANCH   1   8
ATOM      7  C   UNL     1      33.302   5.307  36.492  0.00  0.00    +0.000 C 
ATOM      8  C   UNL     1      33.721   4.966  35.068  0.00  0.00    +0.000 C 
ATOM      9  C   UNL     1      35.033   5.588  34.727  0.00  0.00    +0.000 C 
ATOM     10  C   UNL     1      32.652   5.465  34.143  0.00  0.00    +0.000 C 
ENDBRANCH   1   8
BRANCH   4  11
ATOM     11  C   UNL     1      33.926  -0.813  34.964  0.00  0.00    +0.000 C 
ATOM     12  O   UNL     1      34.822  -1.474  35.542  0.00  0.00    +0.000 OA
ATOM     13  N   UNL     1      32.904  -1.510  34.286  0.00  0.00    +0.000 NA
BRANCH  13  14
ATOM     14  C   UNL     1      32.774  -2.908  34.180  0.00  0.00    +0.000 A 
ATOM     15  C   UNL     1      33.478  -3.490  33.123  0.00  0.00    +0.000 A 
ATOM     16  C   UNL     1      33.441  -4.845  32.903  0.00  0.00    +0.000 A 
ATOM     17  C   UNL     1      32.684  -5.603  33.763  0.00  0.00    +0.000 A 
ATOM     18  C   UNL     1      31.969  -5.064  34.827  0.00  0.00    +0.000 A 
ATOM     19  O   UNL     1      31.237  -5.927  35.635  0.00  0.00    +0.000 OA
ATOM     20  C   UNL     1      32.033  -3.703  35.012  0.00  0.00    +0.000 A 
ENDBRANCH  13  14
ENDBRANCH   4  11
TORSDOF 3
ENDMDL
MODEL 3
REMARK VINA RESULT:      -6.4     32.580     33.578
REMARK  Name = 
REMARK  3 active torsions:
REMARK  status: ('A' for Active; 'I' for Inactive)
REMARK    1  A    between atoms: C_2  and  C_5
REMARK    2  A    between atoms: C_8  and  C_9
REMARK    3  A    between atoms: N_11  and  C_12
REMARK                            x       y       z     vdW  Elec       q    Type
REMARK                         _______ _______ _______ _____ _____    ______ ____
ROOT
ATOM      1  C   UNL     1      26.019  -8.178  23.048  0.00  0.00    +0.000 A 
ATOM      2  C   UNL     1      25.473  -6.956  23.374  0.00  0.00    +0.000 A 
ATOM      3  C   UNL     1      24.273  -6.911  24.080  0.00  0.00    +0.000 A 
ATOM      4  C   UNL     1      23.582  -8.039  24.482  0.00  0.00    +0.000 A 
ATOM      5  C   UNL     1      24.144  -9.261  24.146  0.00  0.00    +0.000 A 
ATOM      6  C   UNL     1      25.344  -9.312  23.441  0.00  0.00    +0.000 A 
ENDROOT
BRANCH   1   8
ATOM      7  C   UNL     1      26.986  -9.098  21.026  0.00  0.00    +0.000 C 
ATOM      8  C   UNL     1      27.309  -8.314  22.292  0.00  0.00    +0.000 C 
ATOM      9  C   UNL     1      27.913  -6.990  21.967  0.00  0.00    +0.000 C 
ATOM     10  C   UNL     1      28.260  -9.135  23.109  0.00  0.00    +0.000 C 
ENDBRANCH   1   8
BRANCH   4  11
ATOM     11  C   UNL     1      22.335  -8.001  25.226  0.00  0.00    +0.000 C 
ATOM     12  O   UNL     1      22.013  -8.846  26.095  0.00  0.00    +0.000 OA
ATOM     13  N   UNL     1      21.440  -6.947  24.946  0.00  0.00    +0.000 NA
BRANCH  13  14
ATOM     14  C   UNL     1      20.188  -6.731  25.551  0.00  0.00    +0.000 A 
ATOM     15  C   UNL     1      19.952  -5.419  25.974  0.00  0.00    +0.000 A 
ATOM     16  C   UNL     1      18.771  -5.068  26.580  0.00  0.00    +0.000 A 
ATOM     17  C   UNL     1      17.832  -6.056  26.753  0.00  0.00    +0.000 A 
ATOM     18  C   UNL     1      18.026  -7.371  26.347  0.00  0.00    +0.000 A 
ATOM     19  O   UNL     1      17.006  -8.289  26.573  0.00  0.00    +0.000 OA
ATOM     20  C   UNL     1      19.222  -7.682  25.745  0.00  0.00    +0.000 A 
ENDBRANCH  13  14
ENDBRANCH   4  11
TORSDOF 3
ENDMDL
MODEL 4
REMARK VINA RESULT:      -6.4     32.343     33.322
REMARK  Name = 
REMARK  3 active torsions:
REMARK  status: ('A' for Active; 'I' for Inactive)
REMARK    1  A    between atoms: C_2  and  C_5
REMARK    2  A    between atoms: C_8  and  C_9
REMARK    3  A    between atoms: N_11  and  C_12
REMARK                            x       y       z     vdW  Elec       q    Type
REMARK                         _______ _______ _______ _____ _____    ______ ____
ROOT
ATOM      1  C   UNL     1      26.603  -8.339  22.446  0.00  0.00    +0.000 A 
ATOM      2  C   UNL     1      25.777  -9.434  22.325  0.00  0.00    +0.000 A 
ATOM      3  C   UNL     1      24.456  -9.345  22.757  0.00  0.00    +0.000 A 
ATOM      4  C   UNL     1      23.912  -8.202  23.313  0.00  0.00    +0.000 A 
ATOM      5  C   UNL     1      24.755  -7.108  23.429  0.00  0.00    +0.000 A 
ATOM      6  C   UNL     1      26.077  -7.192  22.996  0.00  0.00    +0.000 A 
ENDROOT
BRANCH   1   8
ATOM      7  C   UNL     1      28.456  -6.894  21.858  0.00  0.00    +0.000 C 
ATOM      8  C   UNL     1      28.038  -8.351  22.002  0.00  0.00    +0.000 C 
ATOM      9  C   UNL     1      28.918  -9.073  22.965  0.00  0.00    +0.000 C 
ATOM     10  C   UNL     1      28.116  -8.988  20.647  0.00  0.00    +0.000 C 
ENDBRANCH   1   8
BRANCH   4  11
ATOM     11  C   UNL     1      22.533  -8.098  23.759  0.00  0.00    +0.000 C 
ATOM     12  O   UNL     1      21.552  -8.525  23.104  0.00  0.00    +0.000 OA
ATOM     13  N   UNL     1      22.295  -7.477  25.004  0.00  0.00    +0.000 NA
BRANCH  13  14
ATOM     14  C   UNL     1      21.041  -7.277  25.611  0.00  0.00    +0.000 A 
ATOM     15  C   UNL     1      20.476  -8.416  26.192  0.00  0.00    +0.000 A 
ATOM     16  C   UNL     1      19.256  -8.364  26.820  0.00  0.00    +0.000 A 
ATOM     17  C   UNL     1      18.615  -7.149  26.853  0.00  0.00    +0.000 A 
ATOM     18  C   UNL     1      19.142  -5.993  26.288  0.00  0.00    +0.000 A 
ATOM     19  O   UNL     1      18.405  -4.818  26.382  0.00  0.00    +0.000 OA
ATOM     20  C   UNL     1      20.366  -6.088  25.669  0.00  0.00    +0.000 A 
ENDBRANCH  13  14
ENDBRANCH   4  11
TORSDOF 3
ENDMDL
MODEL 5
REMARK VINA RESULT:      -6.2     30.005     31.676
REMARK  Name = 
REMARK  3 active torsions:
REMARK  status: ('A' for Active; 'I' for Inactive)
REMARK    1  A    between atoms: C_2  and  C_5
REMARK    2  A    between atoms: C_8  and  C_9
REMARK    3  A    between atoms: N_11  and  C_12
REMARK                            x       y       z     vdW  Elec       q    Type
REMARK                         _______ _______ _______ _____ _____    ______ ____
ROOT
ATOM      1  C   UNL     1      34.627   4.684  35.473  0.00  0.00    +0.000 A 
ATOM      2  C   UNL     1      34.120   4.455  34.214  0.00  0.00    +0.000 A 
ATOM      3  C   UNL     1      33.638   3.189  33.892  0.00  0.00    +0.000 A 
ATOM      4  C   UNL     1      33.638   2.126  34.776  0.00  0.00    +0.000 A 
ATOM      5  C   UNL     1      34.152   2.372  36.039  0.00  0.00    +0.000 A 
ATOM      6  C   UNL     1      34.634   3.637  36.367  0.00  0.00    +0.000 A 
ENDROOT
BRANCH   1   8
ATOM      7  C   UNL     1      34.053   7.031  35.650  0.00  0.00    +0.000 C 
ATOM      8  C   UNL     1      35.163   6.020  35.902  0.00  0.00    +0.000 C 
ATOM      9  C   UNL     1      35.583   6.024  37.333  0.00  0.00    +0.000 C 
ATOM     10  C   UNL     1      36.320   6.379  35.019  0.00  0.00    +0.000 C 
ENDBRANCH   1   8
BRANCH   4  11
ATOM     11  C   UNL     1      33.130   0.804  34.451  0.00  0.00    +0.000 C 
ATOM     12  O   UNL     1      32.087   0.600  33.785  0.00  0.00    +0.000 OA
ATOM     13  N   UNL     1      33.861  -0.309  34.917  0.00  0.00    +0.000 NA
BRANCH  13  14
ATOM     14  C   UNL     1      33.540  -1.665  34.713  0.00  0.00    +0.000 A 
ATOM     15  C   UNL     1      32.992  -2.316  35.822  0.00  0.00    +0.000 A 
ATOM     16  C   UNL     1      32.632  -3.640  35.763  0.00  0.00    +0.000 A 
ATOM     17  C   UNL     1      32.832  -4.297  34.573  0.00  0.00    +0.000 A 
ATOM     18  C   UNL     1      33.375  -3.686  33.447  0.00  0.00    +0.000 A 
ATOM     19  O   UNL     1      33.532  -4.447  32.294  0.00  0.00    +0.000 OA
ATOM     20  C   UNL     1      33.721  -2.359  33.548  0.00  0.00    +0.000 A 
ENDBRANCH  13  14
ENDBRANCH   4  11
TORSDOF 3
ENDMDL
MODEL 6
REMARK VINA RESULT:      -6.0     14.080     16.281
REMARK  Name = 
REMARK  3 active torsions:
REMARK  status: ('A' for Active; 'I' for Inactive)
REMARK    1  A    between atoms: C_2  and  C_5
REMARK    2  A    between atoms: C_8  and  C_9
REMARK    3  A    between atoms: N_11  and  C_12
REMARK                            x       y       z     vdW  Elec       q    Type
REMARK                         _______ _______ _______ _____ _____    ______ ____
ROOT
ATOM      1  C   UNL     1      31.196  22.307  30.084  0.00  0.00    +0.000 A 
ATOM      2  C   UNL     1      29.932  22.854  30.081  0.00  0.00    +0.000 A 
ATOM      3  C   UNL     1      29.287  23.076  28.867  0.00  0.00    +0.000 A 
ATOM      4  C   UNL     1      29.849  22.777  27.640  0.00  0.00    +0.000 A 
ATOM      5  C   UNL     1      31.121  22.227  27.659  0.00  0.00    +0.000 A 
ATOM      6  C   UNL     1      31.770  22.001  28.871  0.00  0.00    +0.000 A 
ENDROOT
BRANCH   1   8
ATOM      7  C   UNL     1      32.462  23.380  31.850  0.00  0.00    +0.000 C 
ATOM      8  C   UNL     1      31.958  22.033  31.349  0.00  0.00    +0.000 C 
ATOM      9  C   UNL     1      31.117  21.354  32.377  0.00  0.00    +0.000 C 
ATOM     10  C   UNL     1      33.153  21.191  31.016  0.00  0.00    +0.000 C 
ENDBRANCH   1   8
BRANCH   4  11
ATOM     11  C   UNL     1      29.180  22.998  26.369  0.00  0.00    +0.000 C 
ATOM     12  O   UNL     1      28.241  22.285  25.940  0.00  0.00    +0.000 OA
ATOM     13  N   UNL     1      29.621  24.081  25.580  0.00  0.00    +0.000 NA
BRANCH  13  14
ATOM     14  C   UNL     1      29.109  24.463  24.325  0.00  0.00    +0.000 A 
ATOM     15  C   UNL     1      27.880  25.128  24.363  0.00  0.00    +0.000 A 
ATOM     16  C   UNL     1      27.267  25.557  23.212  0.00  0.00    +0.000 A 
ATOM     17  C   UNL     1      27.909  25.307  22.024  0.00  0.00    +0.000 A 
ATOM     18  C   UNL     1      29.131  24.649  21.941  0.00  0.00    +0.000 A 
ATOM     19  O   UNL     1      29.691  24.451  20.684  0.00  0.00    +0.000 OA
ATOM     20  C   UNL     1      29.712  24.236  23.117  0.00  0.00    +0.000 A 
ENDBRANCH  13  14
ENDBRANCH   4  11
TORSDOF 3
ENDMDL
MODEL 7
REMARK VINA RESULT:      -5.9     33.211     35.024
REMARK  Name = 
REMARK  3 active torsions:
REMARK  status: ('A' for Active; 'I' for Inactive)
REMARK    1  A    between atoms: C_2  and  C_5
REMARK    2  A    between atoms: C_8  and  C_9
REMARK    3  A    between atoms: N_11  and  C_12
REMARK                            x       y       z     vdW  Elec       q    Type
REMARK                         _______ _______ _______ _____ _____    ______ ____
ROOT
ATOM      1  C   UNL     1      19.685  -7.665  26.216  0.00  0.00    +0.000 A 
ATOM      2  C   UNL     1      20.444  -8.814  26.199  0.00  0.00    +0.000 A 
ATOM      3  C   UNL     1      21.708  -8.789  25.614  0.00  0.00    +0.000 A 
ATOM      4  C   UNL     1      22.258  -7.660  25.037  0.00  0.00    +0.000 A 
ATOM      5  C   UNL     1      21.483  -6.511  25.061  0.00  0.00    +0.000 A 
ATOM      6  C   UNL     1      20.219  -6.531  25.647  0.00  0.00    +0.000 A 
ENDROOT
BRANCH   1   8
ATOM      7  C   UNL     1      18.363  -8.481  28.075  0.00  0.00    +0.000 C 
ATOM      8  C   UNL     1      18.316  -7.607  26.829  0.00  0.00    +0.000 C 
ATOM      9  C   UNL     1      17.909  -6.211  27.164  0.00  0.00    +0.000 C 
ATOM     10  C   UNL     1      17.336  -8.220  25.875  0.00  0.00    +0.000 C 
ENDBRANCH   1   8
BRANCH   4  11
ATOM     11  C   UNL     1      23.579  -7.622  24.432  0.00  0.00    +0.000 C 
ATOM     12  O   UNL     1      24.219  -6.566  24.214  0.00  0.00    +0.000 OA
ATOM     13  N   UNL     1      24.166  -8.854  24.071  0.00  0.00    +0.000 NA
BRANCH  13  14
ATOM     14  C   UNL     1      25.429  -9.035  23.476  0.00  0.00    +0.000 A 
ATOM     15  C   UNL     1      25.426  -9.057  22.078  0.00  0.00    +0.000 A 
ATOM     16  C   UNL     1      26.589  -9.225  21.367  0.00  0.00    +0.000 A 
ATOM     17  C   UNL     1      27.752  -9.371  22.083  0.00  0.00    +0.000 A 
ATOM     18  C   UNL     1      27.798  -9.354  23.473  0.00  0.00    +0.000 A 
ATOM     19  O   UNL     1      29.032  -9.510  24.094  0.00  0.00    +0.000 OA
ATOM     20  C   UNL     1      26.612  -9.183  24.147  0.00  0.00    +0.000 A 
ENDBRANCH  13  14
ENDBRANCH   4  11
TORSDOF 3
ENDMDL
MODEL 8
REMARK VINA RESULT:      -5.9     32.710     34.206
REMARK  Name = 
REMARK  3 active torsions:
REMARK  status: ('A' for Active; 'I' for Inactive)
REMARK    1  A    between atoms: C_2  and  C_5
REMARK    2  A    between atoms: C_8  and  C_9
REMARK    3  A    between atoms: N_11  and  C_12
REMARK                            x       y       z     vdW  Elec       q    Type
REMARK                         _______ _______ _______ _____ _____    ______ ____
ROOT
ATOM      1  C   UNL     1      33.830  -1.683  35.518  0.00  0.00    +0.000 A 
ATOM      2  C   UNL     1      33.535  -2.962  35.935  0.00  0.00    +0.000 A 
ATOM      3  C   UNL     1      33.367  -3.968  34.987  0.00  0.00    +0.000 A 
ATOM      4  C   UNL     1      33.478  -3.758  33.625  0.00  0.00    +0.000 A 
ATOM      5  C   UNL     1      33.774  -2.467  33.220  0.00  0.00    +0.000 A 
ATOM      6  C   UNL     1      33.946  -1.457  34.164  0.00  0.00    +0.000 A 
ENDROOT
BRANCH   1   8
ATOM      7  C   UNL     1      35.498  -0.575  36.882  0.00  0.00    +0.000 C 
ATOM      8  C   UNL     1      34.031  -0.543  36.474  0.00  0.00    +0.000 C 
ATOM      9  C   UNL     1      33.668   0.770  35.867  0.00  0.00    +0.000 C 
ATOM     10  C   UNL     1      33.207  -0.794  37.701  0.00  0.00    +0.000 C 
ENDBRANCH   1   8
BRANCH   4  11
ATOM     11  C   UNL     1      33.311  -4.804  32.630  0.00  0.00    +0.000 C 
ATOM     12  O   UNL     1      32.364  -5.627  32.632  0.00  0.00    +0.000 OA
ATOM     13  N   UNL     1      34.277  -4.889  31.605  0.00  0.00    +0.000 NA
BRANCH  13  14
ATOM     14  C   UNL     1      34.299  -5.824  30.553  0.00  0.00    +0.000 A 
ATOM     15  C   UNL     1      33.634  -5.423  29.391  0.00  0.00    +0.000 A 
ATOM     16  C   UNL     1      33.577  -6.237  28.286  0.00  0.00    +0.000 A 
ATOM     17  C   UNL     1      34.198  -7.459  28.370  0.00  0.00    +0.000 A 
ATOM     18  C   UNL     1      34.870  -7.896  29.507  0.00  0.00    +0.000 A 
ATOM     19  O   UNL     1      35.464  -9.153  29.479  0.00  0.00    +0.000 OA
ATOM     20  C   UNL     1      34.904  -7.051  30.590  0.00  0.00    +0.000 A 
ENDBRANCH  13  14
ENDBRANCH   4  11
TORSDOF 3
ENDMDL
MODEL 9
REMARK VINA RESULT:      -5.7      8.908     11.983
REMARK  Name = 
REMARK  3 active torsions:
REMARK  status: ('A' for Active; 'I' for Inactive)
REMARK    1  A    between atoms: C_2  and  C_5
REMARK    2  A    between atoms: C_8  and  C_9
REMARK    3  A    between atoms: N_11  and  C_12
REMARK                            x       y       z     vdW  Elec       q    Type
REMARK                         _______ _______ _______ _____ _____    ______ ____
ROOT
ATOM      1  C   UNL     1      29.494  24.684  23.552  0.00  0.00    +0.000 A 
ATOM      2  C   UNL     1      29.494  26.054  23.689  0.00  0.00    +0.000 A 
ATOM      3  C   UNL     1      29.430  26.854  22.551  0.00  0.00    +0.000 A 
ATOM      4  C   UNL     1      29.366  26.348  21.266  0.00  0.00    +0.000 A 
ATOM      5  C   UNL     1      29.368  24.968  21.144  0.00  0.00    +0.000 A 
ATOM      6  C   UNL     1      29.430  24.163  22.279  0.00  0.00    +0.000 A 
ENDROOT
BRANCH   1   8
ATOM      7  C   UNL     1      29.960  24.596  25.927  0.00  0.00    +0.000 C 
ATOM      8  C   UNL     1      29.557  23.751  24.726  0.00  0.00    +0.000 C 
ATOM      9  C   UNL     1      28.258  23.058  24.965  0.00  0.00    +0.000 C 
ATOM     10  C   UNL     1      30.645  22.748  24.485  0.00  0.00    +0.000 C 
ENDBRANCH   1   8
BRANCH   4  11
ATOM     11  C   UNL     1      29.291  27.176  20.074  0.00  0.00    +0.000 C 
ATOM     12  O   UNL     1      28.487  28.128  19.933  0.00  0.00    +0.000 OA
ATOM     13  N   UNL     1      30.180  26.881  19.018  0.00  0.00    +0.000 NA
BRANCH  13  14
ATOM     14  C   UNL     1      30.267  27.557  17.786  0.00  0.00    +0.000 A 
ATOM     15  C   UNL     1      29.621  26.928  16.718  0.00  0.00    +0.000 A 
ATOM     16  C   UNL     1      29.626  27.478  15.460  0.00  0.00    +0.000 A 
ATOM     17  C   UNL     1      30.290  28.669  15.294  0.00  0.00    +0.000 A 
ATOM     18  C   UNL     1      30.945  29.327  16.329  0.00  0.00    +0.000 A 
ATOM     19  O   UNL     1      31.585  30.529  16.046  0.00  0.00    +0.000 OA
ATOM     20  C   UNL     1      30.916  28.743  17.573  0.00  0.00    +0.000 A 
ENDBRANCH  13  14
ENDBRANCH   4  11
TORSDOF 3
ENDMDL
MODEL 10
REMARK VINA RESULT:      -5.7     14.680     18.795
REMARK  Name = 
REMARK  3 active torsions:
REMARK  status: ('A' for Active; 'I' for Inactive)
REMARK    1  A    between atoms: C_2  and  C_5
REMARK    2  A    between atoms: C_8  and  C_9
REMARK    3  A    between atoms: N_11  and  C_12
REMARK                            x       y       z     vdW  Elec       q    Type
REMARK                         _______ _______ _______ _____ _____    ______ ____
ROOT
ATOM      1  C   UNL     1      23.711  26.424  29.602  0.00  0.00    +0.000 A 
ATOM      2  C   UNL     1      24.834  25.755  30.035  0.00  0.00    +0.000 A 
ATOM      3  C   UNL     1      25.609  25.055  29.113  0.00  0.00    +0.000 A 
ATOM      4  C   UNL     1      25.315  24.988  27.765  0.00  0.00    +0.000 A 
ATOM      5  C   UNL     1      24.182  25.666  27.344  0.00  0.00    +0.000 A 
ATOM      6  C   UNL     1      23.403  26.369  28.261  0.00  0.00    +0.000 A 
ENDROOT
BRANCH   1   8
ATOM      7  C   UNL     1      21.402  27.032  30.010  0.00  0.00    +0.000 C 
ATOM      8  C   UNL     1      22.823  27.204  30.528  0.00  0.00    +0.000 C 
ATOM      9  C   UNL     1      22.942  26.743  31.942  0.00  0.00    +0.000 C 
ATOM     10  C   UNL     1      23.177  28.657  30.423  0.00  0.00    +0.000 C 
ENDBRANCH   1   8
BRANCH   4  11
ATOM     11  C   UNL     1      26.123  24.267  26.796  0.00  0.00    +0.000 C 
ATOM     12  O   UNL     1      25.657  23.449  25.967  0.00  0.00    +0.000 OA
ATOM     13  N   UNL     1      27.513  24.510  26.796  0.00  0.00    +0.000 NA
BRANCH  13  14
ATOM     14  C   UNL     1      28.465  23.917  25.944  0.00  0.00    +0.000 A 
ATOM     15  C   UNL     1      29.206  22.879  26.516  0.00  0.00    +0.000 A 
ATOM     16  C   UNL     1      30.168  22.212  25.799  0.00  0.00    +0.000 A 
ATOM     17  C   UNL     1      30.372  22.606  24.499  0.00  0.00    +0.000 A 
ATOM     18  C   UNL     1      29.657  23.632  23.892  0.00  0.00    +0.000 A 
ATOM     19  O   UNL     1      29.948  23.946  22.569  0.00  0.00    +0.000 OA
ATOM     20  C   UNL     1      28.703  24.275  24.645  0.00  0.00    +0.000 A 
ENDBRANCH  13  14
ENDBRANCH   4  11
TORSDOF 3
ENDMDL
