MODEL 1
REMARK VINA RESULT:      -5.6      0.000      0.000
REMARK  Name = 
REMARK  5 active torsions:
REMARK  status: ('A' for Active; 'I' for Inactive)
REMARK    1  A    between atoms: C_2  and  C_3
REMARK    2  A    between atoms: C_3  and  C_5
REMARK    3  A    between atoms: C_3  and  O_7
REMARK    4  A    between atoms: O_7  and  C_8
REMARK    5  A    between atoms: C_11  and  C_13
REMARK                            x       y       z     vdW  Elec       q    Type
REMARK                         _______ _______ _______ _____ _____    ______ ____
ROOT
ATOM      1  C   UNL     1      18.112   9.632  39.374  0.00  0.00    +0.000 C 
ATOM      2  O   UNL     1      18.938  10.527  39.699  0.00  0.00    +0.000 OA
ATOM      3  N   UNL     1      17.505   9.748  38.102  0.00  0.00    +0.000 NA
ATOM      4  C   UNL     1      17.748  10.778  37.179  0.00  0.00    +0.000 C 
ATOM      5  O   UNL     1      18.583  11.684  37.508  0.00  0.00    +0.000 OA
ENDROOT
BRANCH   4   6
ATOM      6  C   UNL     1      17.110  10.880  35.871  0.00  0.00    +0.000 A 
ATOM      7  C   UNL     1      17.670  10.257  34.776  0.00  0.00    +0.000 A 
ATOM      8  C   UNL     1      17.127  10.309  33.510  0.00  0.00    +0.000 A 
ATOM      9  C   UNL     1      15.961  11.023  33.337  0.00  0.00    +0.000 A 
ATOM     10  C   UNL     1      15.358  11.665  34.398  0.00  0.00    +0.000 A 
ATOM     11  C   UNL     1      15.942  11.584  35.653  0.00  0.00    +0.000 A 
ATOM     12 CL   UNL     1      15.224  12.380  37.048  0.00  0.00    +0.000 Cl
ENDBRANCH   4   6
BRANCH   1  13
ATOM     13  O   UNL     1      17.843   8.596  40.256  0.00  0.00    +0.000 OA
BRANCH  13  14
ATOM     14  C   UNL     1      16.815   8.711  41.247  0.00  0.00    +0.000 C 
ATOM     15  C   UNL     1      15.716   9.561  40.637  0.00  0.00    +0.000 C 
BRANCH  14  17
ATOM     16  C   UNL     1      17.861   9.885  43.425  0.00  0.00    +0.000 C 
ATOM     17  C   UNL     1      17.387   9.366  42.444  0.00  0.00    +0.000 C 
ENDBRANCH  14  17
BRANCH  14  18
ATOM     18  C   UNL     1      16.319   7.367  41.680  0.00  0.00    +0.000 C 
ATOM     19  C   UNL     1      17.108   6.226  41.127  0.00  0.00    +0.000 C 
ENDBRANCH  14  18
ENDBRANCH  13  14
ENDBRANCH   1  13
TORSDOF 5
ENDMDL
MODEL 2
REMARK VINA RESULT:      -5.4     20.088     23.097
REMARK  Name = 
REMARK  5 active torsions:
REMARK  status: ('A' for Active; 'I' for Inactive)
REMARK    1  A    between atoms: C_2  and  C_3
REMARK    2  A    between atoms: C_3  and  C_5
REMARK    3  A    between atoms: C_3  and  O_7
REMARK    4  A    between atoms: O_7  and  C_8
REMARK    5  A    between atoms: C_11  and  C_13
REMARK                            x       y       z     vdW  Elec       q    Type
REMARK                         _______ _______ _______ _____ _____    ______ ____
ROOT
ATOM      1  C   UNL     1      27.067  24.687  23.658  0.00  0.00    +0.000 C 
ATOM      2  O   UNL     1      26.408  23.785  23.073  0.00  0.00    +0.000 OA
ATOM      3  N   UNL     1      27.142  24.617  25.068  0.00  0.00    +0.000 NA
ATOM      4  C   UNL     1      26.542  23.629  25.865  0.00  0.00    +0.000 C 
ATOM      5  O   UNL     1      25.876  22.716  25.274  0.00  0.00    +0.000 OA
ENDROOT
BRANCH   4   6
ATOM      6  C   UNL     1      26.631  23.576  27.320  0.00  0.00    +0.000 A 
ATOM      7  C   UNL     1      25.705  24.241  28.095  0.00  0.00    +0.000 A 
ATOM      8  C   UNL     1      25.723  24.237  29.473  0.00  0.00    +0.000 A 
ATOM      9  C   UNL     1      26.723  23.528  30.104  0.00  0.00    +0.000 A 
ATOM     10  C   UNL     1      27.675  22.845  29.376  0.00  0.00    +0.000 A 
ATOM     11  C   UNL     1      27.615  22.878  27.991  0.00  0.00    +0.000 A 
ATOM     12 CL   UNL     1      28.798  22.028  27.005  0.00  0.00    +0.000 Cl
ENDBRANCH   4   6
BRANCH   1  13
ATOM     13  O   UNL     1      27.676  25.683  22.910  0.00  0.00    +0.000 OA
BRANCH  13  14
ATOM     14  C   UNL     1      29.092  25.688  22.687  0.00  0.00    +0.000 C 
ATOM     15  C   UNL     1      29.683  26.670  23.682  0.00  0.00    +0.000 C 
BRANCH  14  17
ATOM     16  C   UNL     1      29.567  26.493  20.169  0.00  0.00    +0.000 C 
ATOM     17  C   UNL     1      29.347  26.125  21.298  0.00  0.00    +0.000 C 
ENDBRANCH  14  17
BRANCH  14  18
ATOM     18  C   UNL     1      29.673  24.317  22.827  0.00  0.00    +0.000 C 
ATOM     19  C   UNL     1      30.665  24.192  23.936  0.00  0.00    +0.000 C 
ENDBRANCH  14  18
ENDBRANCH  13  14
ENDBRANCH   1  13
TORSDOF 5
ENDMDL
MODEL 3
REMARK VINA RESULT:      -5.3     18.913     20.895
REMARK  Name = 
REMARK  5 active torsions:
REMARK  status: ('A' for Active; 'I' for Inactive)
REMARK    1  A    between atoms: C_2  and  C_3
REMARK    2  A    between atoms: C_3  and  C_5
REMARK    3  A    between atoms: C_3  and  O_7
REMARK    4  A    between atoms: O_7  and  C_8
REMARK    5  A    between atoms: C_11  and  C_13
REMARK                            x       y       z     vdW  Elec       q    Type
REMARK                         _______ _______ _______ _____ _____    ______ ____
ROOT
ATOM      1  C   UNL     1      29.509  23.281  27.943  0.00  0.00    +0.000 C 
ATOM      2  O   UNL     1      30.356  22.347  27.926  0.00  0.00    +0.000 OA
ATOM      3  N   UNL     1      28.921  23.638  26.707  0.00  0.00    +0.000 NA
ATOM      4  C   UNL     1      29.203  23.038  25.470  0.00  0.00    +0.000 C 
ATOM      5  O   UNL     1      30.060  22.093  25.453  0.00  0.00    +0.000 OA
ENDROOT
BRANCH   4   6
ATOM      6  C   UNL     1      28.585  23.422  24.206  0.00  0.00    +0.000 A 
ATOM      7  C   UNL     1      29.365  23.875  23.163  0.00  0.00    +0.000 A 
ATOM      8  C   UNL     1      28.854  24.254  21.941  0.00  0.00    +0.000 A 
ATOM      9  C   UNL     1      27.490  24.175  21.758  0.00  0.00    +0.000 A 
ATOM     10  C   UNL     1      26.664  23.730  22.768  0.00  0.00    +0.000 A 
ATOM     11  C   UNL     1      27.225  23.357  23.981  0.00  0.00    +0.000 A 
ATOM     12 CL   UNL     1      26.227  22.780  25.310  0.00  0.00    +0.000 Cl
ENDBRANCH   4   6
BRANCH   1  13
ATOM     13  O   UNL     1      29.200  23.902  29.143  0.00  0.00    +0.000 OA
BRANCH  13  14
ATOM     14  C   UNL     1      28.380  23.258  30.126  0.00  0.00    +0.000 C 
ATOM     15  C   UNL     1      27.594  24.354  30.821  0.00  0.00    +0.000 C 
BRANCH  14  17
ATOM     16  C   UNL     1      29.970  21.982  31.875  0.00  0.00    +0.000 C 
ATOM     17  C   UNL     1      29.260  22.551  31.082  0.00  0.00    +0.000 C 
ENDBRANCH  14  17
BRANCH  14  18
ATOM     18  C   UNL     1      27.491  22.226  29.506  0.00  0.00    +0.000 C 
ATOM     19  C   UNL     1      26.442  21.699  30.430  0.00  0.00    +0.000 C 
ENDBRANCH  14  18
ENDBRANCH  13  14
ENDBRANCH   1  13
TORSDOF 5
ENDMDL
MODEL 4
REMARK VINA RESULT:      -5.3     20.869     23.981
REMARK  Name = 
REMARK  5 active torsions:
REMARK  status: ('A' for Active; 'I' for Inactive)
REMARK    1  A    between atoms: C_2  and  C_3
REMARK    2  A    between atoms: C_3  and  C_5
REMARK    3  A    between atoms: C_3  and  O_7
REMARK    4  A    between atoms: O_7  and  C_8
REMARK    5  A    between atoms: C_11  and  C_13
REMARK                            x       y       z     vdW  Elec       q    Type
REMARK                         _______ _______ _______ _____ _____    ______ ____
ROOT
ATOM      1  C   UNL     1      27.697  24.156  22.083  0.00  0.00    +0.000 C 
ATOM      2  O   UNL     1      26.731  23.595  21.498  0.00  0.00    +0.000 OA
ATOM      3  N   UNL     1      27.750  24.040  23.492  0.00  0.00    +0.000 NA
ATOM      4  C   UNL     1      26.816  23.356  24.285  0.00  0.00    +0.000 C 
ATOM      5  O   UNL     1      25.838  22.790  23.693  0.00  0.00    +0.000 OA
ENDROOT
BRANCH   4   6
ATOM      6  C   UNL     1      26.887  23.250  25.738  0.00  0.00    +0.000 A 
ATOM      7  C   UNL     1      27.787  22.386  26.326  0.00  0.00    +0.000 A 
ATOM      8  C   UNL     1      27.913  22.231  27.689  0.00  0.00    +0.000 A 
ATOM      9  C   UNL     1      27.094  22.982  28.503  0.00  0.00    +0.000 A 
ATOM     10  C   UNL     1      26.176  23.861  27.968  0.00  0.00    +0.000 A 
ATOM     11  C   UNL     1      26.086  23.984  26.589  0.00  0.00    +0.000 A 
ATOM     12 CL   UNL     1      24.937  25.087  25.844  0.00  0.00    +0.000 Cl
ENDBRANCH   4   6
BRANCH   1  13
ATOM     13  O   UNL     1      28.643  24.843  21.338  0.00  0.00    +0.000 OA
BRANCH  13  14
ATOM     14  C   UNL     1      28.767  26.268  21.424  0.00  0.00    +0.000 C 
ATOM     15  C   UNL     1      27.357  26.827  21.429  0.00  0.00    +0.000 C 
BRANCH  14  17
ATOM     16  C   UNL     1      30.144  27.145  19.290  0.00  0.00    +0.000 C 
ATOM     17  C   UNL     1      29.520  26.746  20.244  0.00  0.00    +0.000 C 
ENDBRANCH  14  17
BRANCH  14  18
ATOM     18  C   UNL     1      29.546  26.678  22.633  0.00  0.00    +0.000 C 
ATOM     19  C   UNL     1      28.888  27.748  23.441  0.00  0.00    +0.000 C 
ENDBRANCH  14  18
ENDBRANCH  13  14
ENDBRANCH   1  13
TORSDOF 5
ENDMDL
MODEL 5
REMARK VINA RESULT:      -5.3     20.087     23.112
REMARK  Name = 
REMARK  5 active torsions:
REMARK  status: ('A' for Active; 'I' for Inactive)
REMARK    1  A    between atoms: C_2  and  C_3
REMARK    2  A    between atoms: C_3  and  C_5
REMARK    3  A    between atoms: C_3  and  O_7
REMARK    4  A    between atoms: O_7  and  C_8
REMARK    5  A    between atoms: C_11  and  C_13
REMARK                            x       y       z     vdW  Elec       q    Type
REMARK                         _______ _______ _______ _____ _____    ______ ____
ROOT
ATOM      1  C   UNL     1      27.471  23.719  23.238  0.00  0.00    +0.000 C 
ATOM      2  O   UNL     1      26.566  23.028  22.695  0.00  0.00    +0.000 OA
ATOM      3  N   UNL     1      27.335  23.984  24.620  0.00  0.00    +0.000 NA
ATOM      4  C   UNL     1      26.277  23.543  25.431  0.00  0.00    +0.000 C 
ATOM      5  O   UNL     1      25.362  22.845  24.882  0.00  0.00    +0.000 OA
ENDROOT
BRANCH   4   6
ATOM      6  C   UNL     1      26.155  23.829  26.856  0.00  0.00    +0.000 A 
ATOM      7  C   UNL     1      25.257  24.777  27.298  0.00  0.00    +0.000 A 
ATOM      8  C   UNL     1      25.085  25.101  28.626  0.00  0.00    +0.000 A 
ATOM      9  C   UNL     1      25.855  24.439  29.557  0.00  0.00    +0.000 A 
ATOM     10  C   UNL     1      26.769  23.482  29.170  0.00  0.00    +0.000 A 
ATOM     11  C   UNL     1      26.905  23.189  27.821  0.00  0.00    +0.000 A 
ATOM     12 CL   UNL     1      28.053  21.979  27.261  0.00  0.00    +0.000 Cl
ENDBRANCH   4   6
BRANCH   1  13
ATOM     13  O   UNL     1      28.534  24.176  22.474  0.00  0.00    +0.000 OA
BRANCH  13  14
ATOM     14  C   UNL     1      28.741  25.575  22.247  0.00  0.00    +0.000 C 
ATOM     15  C   UNL     1      29.389  25.702  20.881  0.00  0.00    +0.000 C 
BRANCH  14  17
ATOM     16  C   UNL     1      30.349  26.520  24.181  0.00  0.00    +0.000 C 
ATOM     17  C   UNL     1      29.633  26.096  23.305  0.00  0.00    +0.000 C 
ENDBRANCH  14  17
BRANCH  14  18
ATOM     18  C   UNL     1      27.459  26.341  22.341  0.00  0.00    +0.000 C 
ATOM     19  C   UNL     1      27.154  27.161  21.131  0.00  0.00    +0.000 C 
ENDBRANCH  14  18
ENDBRANCH  13  14
ENDBRANCH   1  13
TORSDOF 5
ENDMDL
MODEL 6
REMARK VINA RESULT:      -5.2     17.728     18.791
REMARK  Name = 
REMARK  5 active torsions:
REMARK  status: ('A' for Active; 'I' for Inactive)
REMARK    1  A    between atoms: C_2  and  C_3
REMARK    2  A    between atoms: C_3  and  C_5
REMARK    3  A    between atoms: C_3  and  O_7
REMARK    4  A    between atoms: O_7  and  C_8
REMARK    5  A    between atoms: C_11  and  C_13
REMARK                            x       y       z     vdW  Elec       q    Type
REMARK                         _______ _______ _______ _____ _____    ______ ____
ROOT
ATOM      1  C   UNL     1      36.025   5.747  35.558  0.00  0.00    +0.000 C 
ATOM      2  O   UNL     1      37.002   5.554  36.332  0.00  0.00    +0.000 OA
ATOM      3  N   UNL     1      35.538   7.071  35.454  0.00  0.00    +0.000 NA
ATOM      4  C   UNL     1      36.053   8.181  36.142  0.00  0.00    +0.000 C 
ATOM      5  O   UNL     1      37.041   7.986  36.925  0.00  0.00    +0.000 OA
ENDROOT
BRANCH   4   6
ATOM      6  C   UNL     1      35.535   9.539  36.022  0.00  0.00    +0.000 A 
ATOM      7  C   UNL     1      36.040  10.391  35.062  0.00  0.00    +0.000 A 
ATOM      8  C   UNL     1      35.602  11.686  34.887  0.00  0.00    +0.000 A 
ATOM      9  C   UNL     1      34.606  12.148  35.721  0.00  0.00    +0.000 A 
ATOM     10  C   UNL     1      34.066  11.339  36.698  0.00  0.00    +0.000 A 
ATOM     11  C   UNL     1      34.539  10.042  36.834  0.00  0.00    +0.000 A 
ATOM     12 CL   UNL     1      33.892   8.959  38.060  0.00  0.00    +0.000 Cl
ENDBRANCH   4   6
BRANCH   1  13
ATOM     13  O   UNL     1      35.484   4.679  34.859  0.00  0.00    +0.000 OA
BRANCH  13  14
ATOM     14  C   UNL     1      34.176   4.177  35.159  0.00  0.00    +0.000 C 
ATOM     15  C   UNL     1      34.263   3.528  36.527  0.00  0.00    +0.000 C 
BRANCH  14  17
ATOM     16  C   UNL     1      33.517   2.377  33.277  0.00  0.00    +0.000 C 
ATOM     17  C   UNL     1      33.804   3.185  34.126  0.00  0.00    +0.000 C 
ENDBRANCH  14  17
BRANCH  14  18
ATOM     18  C   UNL     1      33.148   5.264  35.109  0.00  0.00    +0.000 C 
ATOM     19  C   UNL     1      32.464   5.388  33.788  0.00  0.00    +0.000 C 
ENDBRANCH  14  18
ENDBRANCH  13  14
ENDBRANCH   1  13
TORSDOF 5
ENDMDL
MODEL 7
REMARK VINA RESULT:      -5.2     22.459     23.609
REMARK  Name = 
REMARK  5 active torsions:
REMARK  status: ('A' for Active; 'I' for Inactive)
REMARK    1  A    between atoms: C_2  and  C_3
REMARK    2  A    between atoms: C_3  and  C_5
REMARK    3  A    between atoms: C_3  and  O_7
REMARK    4  A    between atoms: O_7  and  C_8
REMARK    5  A    between atoms: C_11  and  C_13
REMARK                            x       y       z     vdW  Elec       q    Type
REMARK                         _______ _______ _______ _____ _____    ______ ____
ROOT
ATOM      1  C   UNL     1      24.625   4.607  18.106  0.00  0.00    +0.000 C 
ATOM      2  O   UNL     1      25.243   3.977  19.008  0.00  0.00    +0.000 OA
ATOM      3  N   UNL     1      23.484   3.983  17.552  0.00  0.00    +0.000 NA
ATOM      4  C   UNL     1      22.986   2.725  17.924  0.00  0.00    +0.000 C 
ATOM      5  O   UNL     1      23.610   2.087  18.836  0.00  0.00    +0.000 OA
ENDROOT
BRANCH   4   6
ATOM      6  C   UNL     1      21.806   2.098  17.339  0.00  0.00    +0.000 A 
ATOM      7  C   UNL     1      20.552   2.378  17.841  0.00  0.00    +0.000 A 
ATOM      8  C   UNL     1      19.392   1.826  17.342  0.00  0.00    +0.000 A 
ATOM      9  C   UNL     1      19.498   0.948  16.285  0.00  0.00    +0.000 A 
ATOM     10  C   UNL     1      20.727   0.633  15.744  0.00  0.00    +0.000 A 
ATOM     11  C   UNL     1      21.866   1.215  16.280  0.00  0.00    +0.000 A 
ATOM     12 CL   UNL     1      23.463   0.856  15.637  0.00  0.00    +0.000 Cl
ENDBRANCH   4   6
BRANCH   1  13
ATOM     13  O   UNL     1      25.082   5.854  17.707  0.00  0.00    +0.000 OA
BRANCH  13  14
ATOM     14  C   UNL     1      26.385   6.023  17.135  0.00  0.00    +0.000 C 
ATOM     15  C   UNL     1      26.884   4.635  16.778  0.00  0.00    +0.000 C 
BRANCH  14  17
ATOM     16  C   UNL     1      27.967   7.173  18.977  0.00  0.00    +0.000 C 
ATOM     17  C   UNL     1      27.263   6.656  18.143  0.00  0.00    +0.000 C 
ENDBRANCH  14  17
BRANCH  14  18
ATOM     18  C   UNL     1      26.350   6.937  15.952  0.00  0.00    +0.000 C 
ATOM     19  C   UNL     1      26.416   6.228  14.639  0.00  0.00    +0.000 C 
ENDBRANCH  14  18
ENDBRANCH  13  14
ENDBRANCH   1  13
TORSDOF 5
ENDMDL
MODEL 8
REMARK VINA RESULT:      -5.1     22.040     25.219
REMARK  Name = 
REMARK  5 active torsions:
REMARK  status: ('A' for Active; 'I' for Inactive)
REMARK    1  A    between atoms: C_2  and  C_3
REMARK    2  A    between atoms: C_3  and  C_5
REMARK    3  A    between atoms: C_3  and  O_7
REMARK    4  A    between atoms: O_7  and  C_8
REMARK    5  A    between atoms: C_11  and  C_13
REMARK                            x       y       z     vdW  Elec       q    Type
REMARK                         _______ _______ _______ _____ _____    ______ ____
ROOT
ATOM      1  C   UNL     1      27.600  25.797  22.161  0.00  0.00    +0.000 C 
ATOM      2  O   UNL     1      27.085  25.039  21.295  0.00  0.00    +0.000 OA
ATOM      3  N   UNL     1      28.165  25.179  23.302  0.00  0.00    +0.000 NA
ATOM      4  C   UNL     1      28.196  23.797  23.544  0.00  0.00    +0.000 C 
ATOM      5  O   UNL     1      27.675  23.030  22.669  0.00  0.00    +0.000 OA
ENDROOT
BRANCH   4   6
ATOM      6  C   UNL     1      28.783  23.180  24.729  0.00  0.00    +0.000 A 
ATOM      7  C   UNL     1      30.147  22.990  24.807  0.00  0.00    +0.000 A 
ATOM      8  C   UNL     1      30.773  22.415  25.891  0.00  0.00    +0.000 A 
ATOM      9  C   UNL     1      29.990  22.011  26.951  0.00  0.00    +0.000 A 
ATOM     10  C   UNL     1      28.621  22.177  26.924  0.00  0.00    +0.000 A 
ATOM     11  C   UNL     1      28.036  22.762  25.811  0.00  0.00    +0.000 A 
ATOM     12 CL   UNL     1      26.296  23.003  25.715  0.00  0.00    +0.000 Cl
ENDBRANCH   4   6
BRANCH   1  13
ATOM     13  O   UNL     1      27.591  27.169  21.962  0.00  0.00    +0.000 OA
BRANCH  13  14
ATOM     14  C   UNL     1      28.459  27.789  21.005  0.00  0.00    +0.000 C 
ATOM     15  C   UNL     1      29.163  28.922  21.728  0.00  0.00    +0.000 C 
BRANCH  14  17
ATOM     16  C   UNL     1      26.964  28.739  18.986  0.00  0.00    +0.000 C 
ATOM     17  C   UNL     1      27.637  28.303  19.889  0.00  0.00    +0.000 C 
ENDBRANCH  14  17
BRANCH  14  18
ATOM     18  C   UNL     1      29.421  26.803  20.420  0.00  0.00    +0.000 C 
ATOM     19  C   UNL     1      30.219  27.343  19.278  0.00  0.00    +0.000 C 
ENDBRANCH  14  18
ENDBRANCH  13  14
ENDBRANCH   1  13
TORSDOF 5
ENDMDL
MODEL 9
REMARK VINA RESULT:      -5.1     22.938     26.130
REMARK  Name = 
REMARK  5 active torsions:
REMARK  status: ('A' for Active; 'I' for Inactive)
REMARK    1  A    between atoms: C_2  and  C_3
REMARK    2  A    between atoms: C_3  and  C_5
REMARK    3  A    between atoms: C_3  and  O_7
REMARK    4  A    between atoms: O_7  and  C_8
REMARK    5  A    between atoms: C_11  and  C_13
REMARK                            x       y       z     vdW  Elec       q    Type
REMARK                         _______ _______ _______ _____ _____    ______ ____
ROOT
ATOM      1  C   UNL     1      29.498  26.152  20.914  0.00  0.00    +0.000 C 
ATOM      2  O   UNL     1      29.799  25.349  19.990  0.00  0.00    +0.000 OA
ATOM      3  N   UNL     1      28.844  25.614  22.046  0.00  0.00    +0.000 NA
ATOM      4  C   UNL     1      28.504  24.263  22.221  0.00  0.00    +0.000 C 
ATOM      5  O   UNL     1      28.808  23.450  21.287  0.00  0.00    +0.000 OA
ENDROOT
BRANCH   4   6
ATOM      6  C   UNL     1      27.828  23.728  23.398  0.00  0.00    +0.000 A 
ATOM      7  C   UNL     1      26.450  23.716  23.460  0.00  0.00    +0.000 A 
ATOM      8  C   UNL     1      25.741  23.228  24.536  0.00  0.00    +0.000 A 
ATOM      9  C   UNL     1      26.453  22.725  25.604  0.00  0.00    +0.000 A 
ATOM     10  C   UNL     1      27.832  22.713  25.594  0.00  0.00    +0.000 A 
ATOM     11  C   UNL     1      28.501  23.215  24.488  0.00  0.00    +0.000 A 
ATOM     12 CL   UNL     1      30.259  23.228  24.412  0.00  0.00    +0.000 Cl
ENDBRANCH   4   6
BRANCH   1  13
ATOM     13  O   UNL     1      29.815  27.496  20.783  0.00  0.00    +0.000 OA
BRANCH  13  14
ATOM     14  C   UNL     1      29.091  28.348  19.886  0.00  0.00    +0.000 C 
ATOM     15  C   UNL     1      29.453  29.774  20.256  0.00  0.00    +0.000 C 
BRANCH  14  17
ATOM     16  C   UNL     1      26.461  27.922  20.228  0.00  0.00    +0.000 C 
ATOM     17  C   UNL     1      27.644  28.104  20.072  0.00  0.00    +0.000 C 
ENDBRANCH  14  17
BRANCH  14  18
ATOM     18  C   UNL     1      29.406  28.033  18.458  0.00  0.00    +0.000 C 
ATOM     19  C   UNL     1      30.866  28.058  18.142  0.00  0.00    +0.000 C 
ENDBRANCH  14  18
ENDBRANCH  13  14
ENDBRANCH   1  13
TORSDOF 5
ENDMDL
MODEL 10
REMARK VINA RESULT:      -5.1      3.827      6.736
REMARK  Name = 
REMARK  5 active torsions:
REMARK  status: ('A' for Active; 'I' for Inactive)
REMARK    1  A    between atoms: C_2  and  C_3
REMARK    2  A    between atoms: C_3  and  C_5
REMARK    3  A    between atoms: C_3  and  O_7
REMARK    4  A    between atoms: O_7  and  C_8
REMARK    5  A    between atoms: C_11  and  C_13
REMARK                            x       y       z     vdW  Elec       q    Type
REMARK                         _______ _______ _______ _____ _____    ______ ____
ROOT
ATOM      1  C   UNL     1      20.538  10.516  38.345  0.00  0.00    +0.000 C 
ATOM      2  O   UNL     1      19.899  10.742  37.281  0.00  0.00    +0.000 OA
ATOM      3  N   UNL     1      20.005   9.542  39.220  0.00  0.00    +0.000 NA
ATOM      4  C   UNL     1      18.828   8.810  38.999  0.00  0.00    +0.000 C 
ATOM      5  O   UNL     1      18.182   9.037  37.923  0.00  0.00    +0.000 OA
ENDROOT
BRANCH   4   6
ATOM      6  C   UNL     1      18.294   7.808  39.916  0.00  0.00    +0.000 A 
ATOM      7  C   UNL     1      18.894   6.570  40.014  0.00  0.00    +0.000 A 
ATOM      8  C   UNL     1      18.448   5.574  40.856  0.00  0.00    +0.000 A 
ATOM      9  C   UNL     1      17.344   5.836  41.638  0.00  0.00    +0.000 A 
ATOM     10  C   UNL     1      16.707   7.057  41.580  0.00  0.00    +0.000 A 
ATOM     11  C   UNL     1      17.193   8.029  40.717  0.00  0.00    +0.000 A 
ATOM     12 CL   UNL     1      16.426   9.607  40.595  0.00  0.00    +0.000 Cl
ENDBRANCH   4   6
BRANCH   1  13
ATOM     13  O   UNL     1      21.706  11.217  38.604  0.00  0.00    +0.000 OA
BRANCH  13  14
ATOM     14  C   UNL     1      22.959  10.812  38.037  0.00  0.00    +0.000 C 
ATOM     15  C   UNL     1      23.552   9.788  38.986  0.00  0.00    +0.000 C 
BRANCH  14  17
ATOM     16  C   UNL     1      24.533  12.979  37.833  0.00  0.00    +0.000 C 
ATOM     17  C   UNL     1      23.832  12.001  37.930  0.00  0.00    +0.000 C 
ENDBRANCH  14  17
BRANCH  14  18
ATOM     18  C   UNL     1      22.785  10.272  36.653  0.00  0.00    +0.000 C 
ATOM     19  C   UNL     1      23.546   9.014  36.396  0.00  0.00    +0.000 C 
ENDBRANCH  14  18
ENDBRANCH  13  14
ENDBRANCH   1  13
TORSDOF 5
ENDMDL
