MODEL 1
REMARK VINA RESULT:      -7.7      0.000      0.000
REMARK  Name = 
REMARK  3 active torsions:
REMARK  status: ('A' for Active; 'I' for Inactive)
REMARK    1  A    between atoms: C_2  and  C_13
REMARK    2  A    between atoms: N_3  and  C_4
REMARK    3  A    between atoms: C_16  and  N_17
REMARK                            x       y       z     vdW  Elec       q    Type
REMARK                         _______ _______ _______ _____ _____    ______ ____
ROOT
ATOM      1  O   UNL     1      16.940  12.598  36.572  0.00  0.00    +0.000 OA
ATOM      2  C   UNL     1      16.162  11.671  36.892  0.00  0.00    +0.000 C 
ATOM      3  N   UNL     1      15.024  11.415  36.094  0.00  0.00    +0.000 NA
ENDROOT
BRANCH   3   4
ATOM      4  C   UNL     1      14.717  12.169  34.933  0.00  0.00    +0.000 A 
ATOM      5  C   UNL     1      13.970  13.316  35.061  0.00  0.00    +0.000 A 
ATOM      6  C   UNL     1      13.671  14.056  33.909  0.00  0.00    +0.000 A 
ATOM      7  C   UNL     1      14.106  13.663  32.662  0.00  0.00    +0.000 A 
ATOM      8  C   UNL     1      14.850  12.516  32.556  0.00  0.00    +0.000 A 
ATOM      9  C   UNL     1      15.148  11.781  33.691  0.00  0.00    +0.000 A 
ATOM     10  C   UNL     1      15.223  12.259  31.142  0.00  0.00    +0.000 C 
ATOM     11  C   UNL     1      15.120  13.644  30.528  0.00  0.00    +0.000 C 
ATOM     12  C   UNL     1      13.951  14.228  31.289  0.00  0.00    +0.000 C 
ENDBRANCH   3   4
BRANCH   2  13
ATOM     13  C   UNL     1      16.418  10.861  38.069  0.00  0.00    +0.000 A 
ATOM     14  C   UNL     1      15.385  10.586  38.953  0.00  0.00    +0.000 A 
ATOM     15  C   UNL     1      15.631   9.816  40.069  0.00  0.00    +0.000 A 
ATOM     16  C   UNL     1      16.869   9.303  40.348  0.00  0.00    +0.000 A 
ATOM     17  C   UNL     1      17.886   9.581  39.468  0.00  0.00    +0.000 A 
ATOM     18  C   UNL     1      17.664  10.345  38.349  0.00  0.00    +0.000 A 
BRANCH  16  19
ATOM     19  N   UNL     1      17.106   8.505  41.514  0.00  0.00    +0.000 N 
ATOM     20  O   UNL     1      18.039   8.739  42.277  0.00  0.00    +0.000 OA
ATOM     21  O   UNL     1      16.285   7.449  41.806  0.00  0.00    +0.000 OA
ENDBRANCH  16  19
ENDBRANCH   2  13
TORSDOF 3
ENDMDL
MODEL 2
REMARK VINA RESULT:      -7.6      1.139      1.962
REMARK  Name = 
REMARK  3 active torsions:
REMARK  status: ('A' for Active; 'I' for Inactive)
REMARK    1  A    between atoms: C_2  and  C_13
REMARK    2  A    between atoms: N_3  and  C_4
REMARK    3  A    between atoms: C_16  and  N_17
REMARK                            x       y       z     vdW  Elec       q    Type
REMARK                         _______ _______ _______ _____ _____    ______ ____
ROOT
ATOM      1  O   UNL     1      17.431  12.193  36.062  0.00  0.00    +0.000 OA
ATOM      2  C   UNL     1      17.032  11.019  36.228  0.00  0.00    +0.000 C 
ATOM      3  N   UNL     1      16.284  10.390  35.207  0.00  0.00    +0.000 NA
ENDROOT
BRANCH   3   4
ATOM      4  C   UNL     1      15.960  11.036  33.987  0.00  0.00    +0.000 A 
ATOM      5  C   UNL     1      16.554  10.604  32.824  0.00  0.00    +0.000 A 
ATOM      6  C   UNL     1      16.228  11.247  31.623  0.00  0.00    +0.000 A 
ATOM      7  C   UNL     1      15.332  12.294  31.581  0.00  0.00    +0.000 A 
ATOM      8  C   UNL     1      14.751  12.710  32.752  0.00  0.00    +0.000 A 
ATOM      9  C   UNL     1      15.070  12.078  33.942  0.00  0.00    +0.000 A 
ATOM     10  C   UNL     1      13.822  13.842  32.505  0.00  0.00    +0.000 C 
ATOM     11  C   UNL     1      13.488  13.666  31.034  0.00  0.00    +0.000 C 
ATOM     12  C   UNL     1      14.800  13.154  30.483  0.00  0.00    +0.000 C 
ENDBRANCH   3   4
BRANCH   2  13
ATOM     13  C   UNL     1      17.329  10.300  37.454  0.00  0.00    +0.000 A 
ATOM     14  C   UNL     1      16.498  10.444  38.555  0.00  0.00    +0.000 A 
ATOM     15  C   UNL     1      16.783   9.760  39.717  0.00  0.00    +0.000 A 
ATOM     16  C   UNL     1      17.866   8.931  39.833  0.00  0.00    +0.000 A 
ATOM     17  C   UNL     1      18.683   8.793  38.738  0.00  0.00    +0.000 A 
ATOM     18  C   UNL     1      18.418   9.465  37.570  0.00  0.00    +0.000 A 
BRANCH  16  19
ATOM     19  N   UNL     1      18.146   8.228  41.050  0.00  0.00    +0.000 N 
ATOM     20  O   UNL     1      19.201   7.622  41.216  0.00  0.00    +0.000 OA
ATOM     21  O   UNL     1      17.229   8.217  42.068  0.00  0.00    +0.000 OA
ENDBRANCH  16  19
ENDBRANCH   2  13
TORSDOF 3
ENDMDL
MODEL 3
REMARK VINA RESULT:      -7.5      3.992      5.654
REMARK  Name = 
REMARK  3 active torsions:
REMARK  status: ('A' for Active; 'I' for Inactive)
REMARK    1  A    between atoms: C_2  and  C_13
REMARK    2  A    between atoms: N_3  and  C_4
REMARK    3  A    between atoms: C_16  and  N_17
REMARK                            x       y       z     vdW  Elec       q    Type
REMARK                         _______ _______ _______ _____ _____    ______ ____
ROOT
ATOM      1  O   UNL     1      17.434   9.621  36.410  0.00  0.00    +0.000 OA
ATOM      2  C   UNL     1      18.014  10.583  36.961  0.00  0.00    +0.000 C 
ATOM      3  N   UNL     1      17.253  11.688  37.406  0.00  0.00    +0.000 NA
ENDROOT
BRANCH   3   4
ATOM      4  C   UNL     1      15.845  11.758  37.256  0.00  0.00    +0.000 A 
ATOM      5  C   UNL     1      15.320  12.497  36.221  0.00  0.00    +0.000 A 
ATOM      6  C   UNL     1      13.927  12.561  36.080  0.00  0.00    +0.000 A 
ATOM      7  C   UNL     1      13.080  11.906  36.947  0.00  0.00    +0.000 A 
ATOM      8  C   UNL     1      13.623  11.175  37.972  0.00  0.00    +0.000 A 
ATOM      9  C   UNL     1      14.999  11.108  38.116  0.00  0.00    +0.000 A 
ATOM     10  C   UNL     1      12.557  10.548  38.794  0.00  0.00    +0.000 C 
ATOM     11  C   UNL     1      11.388  10.510  37.826  0.00  0.00    +0.000 C 
ATOM     12  C   UNL     1      11.595  11.791  37.049  0.00  0.00    +0.000 C 
ENDBRANCH   3   4
BRANCH   2  13
ATOM     13  C   UNL     1      19.454  10.576  37.145  0.00  0.00    +0.000 A 
ATOM     14  C   UNL     1      20.239   9.713  36.394  0.00  0.00    +0.000 A 
ATOM     15  C   UNL     1      21.606   9.709  36.571  0.00  0.00    +0.000 A 
ATOM     16  C   UNL     1      22.231  10.531  37.468  0.00  0.00    +0.000 A 
ATOM     17  C   UNL     1      21.447  11.382  38.207  0.00  0.00    +0.000 A 
ATOM     18  C   UNL     1      20.083  11.404  38.047  0.00  0.00    +0.000 A 
BRANCH  16  19
ATOM     19  N   UNL     1      23.654  10.512  37.639  0.00  0.00    +0.000 N 
ATOM     20  O   UNL     1      24.253  11.446  38.166  0.00  0.00    +0.000 OA
ATOM     21  O   UNL     1      24.386   9.436  37.212  0.00  0.00    +0.000 OA
ENDBRANCH  16  19
ENDBRANCH   2  13
TORSDOF 3
ENDMDL
MODEL 4
REMARK VINA RESULT:      -7.4      2.828      8.525
REMARK  Name = 
REMARK  3 active torsions:
REMARK  status: ('A' for Active; 'I' for Inactive)
REMARK    1  A    between atoms: C_2  and  C_13
REMARK    2  A    between atoms: N_3  and  C_4
REMARK    3  A    between atoms: C_16  and  N_17
REMARK                            x       y       z     vdW  Elec       q    Type
REMARK                         _______ _______ _______ _____ _____    ______ ____
ROOT
ATOM      1  O   UNL     1      17.000   9.348  35.456  0.00  0.00    +0.000 OA
ATOM      2  C   UNL     1      16.650  10.549  35.482  0.00  0.00    +0.000 C 
ATOM      3  N   UNL     1      16.767  11.279  36.686  0.00  0.00    +0.000 NA
ENDROOT
BRANCH   3   4
ATOM      4  C   UNL     1      17.267  10.707  37.883  0.00  0.00    +0.000 A 
ATOM      5  C   UNL     1      18.628  10.630  38.069  0.00  0.00    +0.000 A 
ATOM      6  C   UNL     1      19.114  10.064  39.254  0.00  0.00    +0.000 A 
ATOM      7  C   UNL     1      18.266   9.586  40.230  0.00  0.00    +0.000 A 
ATOM      8  C   UNL     1      16.913   9.673  40.026  0.00  0.00    +0.000 A 
ATOM      9  C   UNL     1      16.427  10.231  38.856  0.00  0.00    +0.000 A 
ATOM     10  C   UNL     1      16.170   9.109  41.182  0.00  0.00    +0.000 C 
ATOM     11  C   UNL     1      17.190   9.217  42.301  0.00  0.00    +0.000 C 
ATOM     12  C   UNL     1      18.481   8.948  41.562  0.00  0.00    +0.000 C 
ENDBRANCH   3   4
BRANCH   2  13
ATOM     13  C   UNL     1      16.129  11.196  34.291  0.00  0.00    +0.000 A 
ATOM     14  C   UNL     1      15.102  12.122  34.404  0.00  0.00    +0.000 A 
ATOM     15  C   UNL     1      14.610  12.734  33.272  0.00  0.00    +0.000 A 
ATOM     16  C   UNL     1      15.098  12.465  32.022  0.00  0.00    +0.000 A 
ATOM     17  C   UNL     1      16.114  11.548  31.919  0.00  0.00    +0.000 A 
ATOM     18  C   UNL     1      16.620  10.925  33.034  0.00  0.00    +0.000 A 
BRANCH  16  19
ATOM     19  N   UNL     1      14.573  13.112  30.856  0.00  0.00    +0.000 N 
ATOM     20  O   UNL     1      15.263  13.301  29.857  0.00  0.00    +0.000 OA
ATOM     21  O   UNL     1      13.272  13.539  30.830  0.00  0.00    +0.000 OA
ENDBRANCH  16  19
ENDBRANCH   2  13
TORSDOF 3
ENDMDL
MODEL 5
REMARK VINA RESULT:      -7.1     29.226     31.950
REMARK  Name = 
REMARK  3 active torsions:
REMARK  status: ('A' for Active; 'I' for Inactive)
REMARK    1  A    between atoms: C_2  and  C_13
REMARK    2  A    between atoms: N_3  and  C_4
REMARK    3  A    between atoms: C_16  and  N_17
REMARK                            x       y       z     vdW  Elec       q    Type
REMARK                         _______ _______ _______ _____ _____    ______ ____
ROOT
ATOM      1  O   UNL     1      31.141  19.789  12.028  0.00  0.00    +0.000 OA
ATOM      2  C   UNL     1      31.903  20.640  11.518  0.00  0.00    +0.000 C 
ATOM      3  N   UNL     1      31.492  21.991  11.458  0.00  0.00    +0.000 NA
ENDROOT
BRANCH   3   4
ATOM      4  C   UNL     1      30.240  22.433  11.955  0.00  0.00    +0.000 A 
ATOM      5  C   UNL     1      30.194  23.076  13.170  0.00  0.00    +0.000 A 
ATOM      6  C   UNL     1      28.953  23.511  13.654  0.00  0.00    +0.000 A 
ATOM      7  C   UNL     1      27.788  23.309  12.945  0.00  0.00    +0.000 A 
ATOM      8  C   UNL     1      27.856  22.667  11.736  0.00  0.00    +0.000 A 
ATOM      9  C   UNL     1      29.080  22.236  11.253  0.00  0.00    +0.000 A 
ATOM     10  C   UNL     1      26.507  22.545  11.128  0.00  0.00    +0.000 C 
ATOM     11  C   UNL     1      25.746  23.667  11.811  0.00  0.00    +0.000 C 
ATOM     12  C   UNL     1      26.355  23.649  13.195  0.00  0.00    +0.000 C 
ENDBRANCH   3   4
BRANCH   2  13
ATOM     13  C   UNL     1      33.200  20.254  10.990  0.00  0.00    +0.000 A 
ATOM     14  C   UNL     1      33.334  19.962   9.640  0.00  0.00    +0.000 A 
ATOM     15  C   UNL     1      34.566  19.597   9.143  0.00  0.00    +0.000 A 
ATOM     16  C   UNL     1      35.679  19.509   9.933  0.00  0.00    +0.000 A 
ATOM     17  C   UNL     1      35.538  19.800  11.267  0.00  0.00    +0.000 A 
ATOM     18  C   UNL     1      34.320  20.167  11.786  0.00  0.00    +0.000 A 
BRANCH  16  19
ATOM     19  N   UNL     1      36.952  19.127   9.398  0.00  0.00    +0.000 N 
ATOM     20  O   UNL     1      37.950  19.828   9.542  0.00  0.00    +0.000 OA
ATOM     21  O   UNL     1      37.085  17.954   8.702  0.00  0.00    +0.000 OA
ENDBRANCH  16  19
ENDBRANCH   2  13
TORSDOF 3
ENDMDL
MODEL 6
REMARK VINA RESULT:      -6.6     23.691     24.990
REMARK  Name = 
REMARK  3 active torsions:
REMARK  status: ('A' for Active; 'I' for Inactive)
REMARK    1  A    between atoms: C_2  and  C_13
REMARK    2  A    between atoms: N_3  and  C_4
REMARK    3  A    between atoms: C_16  and  N_17
REMARK                            x       y       z     vdW  Elec       q    Type
REMARK                         _______ _______ _______ _____ _____    ______ ____
ROOT
ATOM      1  O   UNL     1      22.476  -7.984  22.481  0.00  0.00    +0.000 OA
ATOM      2  C   UNL     1      23.448  -8.011  23.268  0.00  0.00    +0.000 C 
ATOM      3  N   UNL     1      23.221  -7.873  24.656  0.00  0.00    +0.000 NA
ENDROOT
BRANCH   3   4
ATOM      4  C   UNL     1      21.926  -7.701  25.206  0.00  0.00    +0.000 A 
ATOM      5  C   UNL     1      21.238  -8.806  25.652  0.00  0.00    +0.000 A 
ATOM      6  C   UNL     1      19.959  -8.629  26.195  0.00  0.00    +0.000 A 
ATOM      7  C   UNL     1      19.379  -7.382  26.291  0.00  0.00    +0.000 A 
ATOM      8  C   UNL     1      20.081  -6.293  25.842  0.00  0.00    +0.000 A 
ATOM      9  C   UNL     1      21.346  -6.463  25.304  0.00  0.00    +0.000 A 
ATOM     10  C   UNL     1      19.296  -5.047  26.029  0.00  0.00    +0.000 C 
ATOM     11  C   UNL     1      18.334  -5.438  27.136  0.00  0.00    +0.000 C 
ATOM     12  C   UNL     1      18.068  -6.890  26.809  0.00  0.00    +0.000 C 
ENDBRANCH   3   4
BRANCH   2  13
ATOM     13  C   UNL     1      24.801  -8.183  22.770  0.00  0.00    +0.000 A 
ATOM     14  C   UNL     1      25.798  -7.304  23.167  0.00  0.00    +0.000 A 
ATOM     15  C   UNL     1      27.081  -7.471  22.692  0.00  0.00    +0.000 A 
ATOM     16  C   UNL     1      27.420  -8.481  21.834  0.00  0.00    +0.000 A 
ATOM     17  C   UNL     1      26.428  -9.347  21.446  0.00  0.00    +0.000 A 
ATOM     18  C   UNL     1      25.142  -9.200  21.907  0.00  0.00    +0.000 A 
BRANCH  16  19
ATOM     19  N   UNL     1      28.759  -8.638  21.351  0.00  0.00    +0.000 N 
ATOM     20  O   UNL     1      29.077  -9.575  20.623  0.00  0.00    +0.000 OA
ATOM     21  O   UNL     1      29.728  -7.733  21.697  0.00  0.00    +0.000 OA
ENDBRANCH  16  19
ENDBRANCH   2  13
TORSDOF 3
ENDMDL
MODEL 7
REMARK VINA RESULT:      -6.5     19.540     21.270
REMARK  Name = 
REMARK  3 active torsions:
REMARK  status: ('A' for Active; 'I' for Inactive)
REMARK    1  A    between atoms: C_2  and  C_13
REMARK    2  A    between atoms: N_3  and  C_4
REMARK    3  A    between atoms: C_16  and  N_17
REMARK                            x       y       z     vdW  Elec       q    Type
REMARK                         _______ _______ _______ _____ _____    ______ ____
ROOT
ATOM      1  O   UNL     1      33.839   2.423  33.076  0.00  0.00    +0.000 OA
ATOM      2  C   UNL     1      33.737   1.807  34.161  0.00  0.00    +0.000 C 
ATOM      3  N   UNL     1      33.922   2.506  35.375  0.00  0.00    +0.000 NA
ENDROOT
BRANCH   3   4
ATOM      4  C   UNL     1      34.222   3.891  35.423  0.00  0.00    +0.000 A 
ATOM      5  C   UNL     1      33.281   4.794  34.988  0.00  0.00    +0.000 A 
ATOM      6  C   UNL     1      33.585   6.161  35.039  0.00  0.00    +0.000 A 
ATOM      7  C   UNL     1      34.797   6.616  35.512  0.00  0.00    +0.000 A 
ATOM      8  C   UNL     1      35.722   5.699  35.942  0.00  0.00    +0.000 A 
ATOM      9  C   UNL     1      35.426   4.348  35.893  0.00  0.00    +0.000 A 
ATOM     10  C   UNL     1      36.956   6.378  36.412  0.00  0.00    +0.000 C 
ATOM     11  C   UNL     1      36.448   7.768  36.749  0.00  0.00    +0.000 C 
ATOM     12  C   UNL     1      35.394   7.974  35.685  0.00  0.00    +0.000 C 
ENDBRANCH   3   4
BRANCH   2  13
ATOM     13  C   UNL     1      33.432   0.388  34.182  0.00  0.00    +0.000 A 
ATOM     14  C   UNL     1      32.467  -0.096  35.053  0.00  0.00    +0.000 A 
ATOM     15  C   UNL     1      32.180  -1.443  35.071  0.00  0.00    +0.000 A 
ATOM     16  C   UNL     1      32.814  -2.339  34.253  0.00  0.00    +0.000 A 
ATOM     17  C   UNL     1      33.767  -1.852  33.394  0.00  0.00    +0.000 A 
ATOM     18  C   UNL     1      34.070  -0.513  33.359  0.00  0.00    +0.000 A 
BRANCH  16  19
ATOM     19  N   UNL     1      32.502  -3.737  34.286  0.00  0.00    +0.000 N 
ATOM     20  O   UNL     1      31.860  -4.233  35.207  0.00  0.00    +0.000 OA
ATOM     21  O   UNL     1      32.920  -4.561  33.275  0.00  0.00    +0.000 OA
ENDBRANCH  16  19
ENDBRANCH   2  13
TORSDOF 3
ENDMDL
MODEL 8
REMARK VINA RESULT:      -6.5      1.636      2.190
REMARK  Name = 
REMARK  3 active torsions:
REMARK  status: ('A' for Active; 'I' for Inactive)
REMARK    1  A    between atoms: C_2  and  C_13
REMARK    2  A    between atoms: N_3  and  C_4
REMARK    3  A    between atoms: C_16  and  N_17
REMARK                            x       y       z     vdW  Elec       q    Type
REMARK                         _______ _______ _______ _____ _____    ______ ____
ROOT
ATOM      1  O   UNL     1      18.473  11.524  37.096  0.00  0.00    +0.000 OA
ATOM      2  C   UNL     1      17.789  10.590  37.569  0.00  0.00    +0.000 C 
ATOM      3  N   UNL     1      16.589  10.213  36.925  0.00  0.00    +0.000 NA
ENDROOT
BRANCH   3   4
ATOM      4  C   UNL     1      16.116  10.853  35.753  0.00  0.00    +0.000 A 
ATOM      5  C   UNL     1      15.268  11.930  35.875  0.00  0.00    +0.000 A 
ATOM      6  C   UNL     1      14.805  12.558  34.712  0.00  0.00    +0.000 A 
ATOM      7  C   UNL     1      15.176  12.124  33.457  0.00  0.00    +0.000 A 
ATOM      8  C   UNL     1      16.022  11.048  33.356  0.00  0.00    +0.000 A 
ATOM      9  C   UNL     1      16.483  10.425  34.504  0.00  0.00    +0.000 A 
ATOM     10  C   UNL     1      16.304  10.733  31.933  0.00  0.00    +0.000 C 
ATOM     11  C   UNL     1      16.013  12.056  31.249  0.00  0.00    +0.000 C 
ATOM     12  C   UNL     1      14.856  12.576  32.071  0.00  0.00    +0.000 C 
ENDBRANCH   3   4
BRANCH   2  13
ATOM     13  C   UNL     1      18.217   9.892  38.769  0.00  0.00    +0.000 A 
ATOM     14  C   UNL     1      17.285   9.559  39.741  0.00  0.00    +0.000 A 
ATOM     15  C   UNL     1      17.694   8.896  40.878  0.00  0.00    +0.000 A 
ATOM     16  C   UNL     1      18.999   8.547  41.092  0.00  0.00    +0.000 A 
ATOM     17  C   UNL     1      19.916   8.880  40.126  0.00  0.00    +0.000 A 
ATOM     18  C   UNL     1      19.530   9.540  38.985  0.00  0.00    +0.000 A 
BRANCH  16  19
ATOM     19  N   UNL     1      19.406   7.859  42.282  0.00  0.00    +0.000 N 
ATOM     20  O   UNL     1      20.465   8.118  42.847  0.00  0.00    +0.000 OA
ATOM     21  O   UNL     1      18.611   6.881  42.820  0.00  0.00    +0.000 OA
ENDBRANCH  16  19
ENDBRANCH   2  13
TORSDOF 3
ENDMDL
MODEL 9
REMARK VINA RESULT:      -6.4     19.541     20.581
REMARK  Name = 
REMARK  3 active torsions:
REMARK  status: ('A' for Active; 'I' for Inactive)
REMARK    1  A    between atoms: C_2  and  C_13
REMARK    2  A    between atoms: N_3  and  C_4
REMARK    3  A    between atoms: C_16  and  N_17
REMARK                            x       y       z     vdW  Elec       q    Type
REMARK                         _______ _______ _______ _____ _____    ______ ____
ROOT
ATOM      1  O   UNL     1      30.999  24.085  27.989  0.00  0.00    +0.000 OA
ATOM      2  C   UNL     1      31.092  22.856  28.203  0.00  0.00    +0.000 C 
ATOM      3  N   UNL     1      30.440  21.950  27.337  0.00  0.00    +0.000 NA
ENDROOT
BRANCH   3   4
ATOM      4  C   UNL     1      29.674  22.374  26.222  0.00  0.00    +0.000 A 
ATOM      5  C   UNL     1      30.299  22.545  25.008  0.00  0.00    +0.000 A 
ATOM      6  C   UNL     1      29.535  22.963  23.911  0.00  0.00    +0.000 A 
ATOM      7  C   UNL     1      28.182  23.206  24.020  0.00  0.00    +0.000 A 
ATOM      8  C   UNL     1      27.578  23.030  25.238  0.00  0.00    +0.000 A 
ATOM      9  C   UNL     1      28.329  22.616  26.326  0.00  0.00    +0.000 A 
ATOM     10  C   UNL     1      26.128  23.338  25.156  0.00  0.00    +0.000 C 
ATOM     11  C   UNL     1      25.845  23.152  23.676  0.00  0.00    +0.000 C 
ATOM     12  C   UNL     1      27.132  23.649  23.056  0.00  0.00    +0.000 C 
ENDBRANCH   3   4
BRANCH   2  13
ATOM     13  C   UNL     1      31.861  22.355  29.328  0.00  0.00    +0.000 A 
ATOM     14  C   UNL     1      33.244  22.289  29.243  0.00  0.00    +0.000 A 
ATOM     15  C   UNL     1      33.970  21.813  30.313  0.00  0.00    +0.000 A 
ATOM     16  C   UNL     1      33.377  21.397  31.474  0.00  0.00    +0.000 A 
ATOM     17  C   UNL     1      32.008  21.466  31.551  0.00  0.00    +0.000 A 
ATOM     18  C   UNL     1      31.264  21.937  30.497  0.00  0.00    +0.000 A 
BRANCH  16  19
ATOM     19  N   UNL     1      34.149  20.904  32.576  0.00  0.00    +0.000 N 
ATOM     20  O   UNL     1      35.077  20.116  32.413  0.00  0.00    +0.000 OA
ATOM     21  O   UNL     1      33.864  21.307  33.854  0.00  0.00    +0.000 OA
ENDBRANCH  16  19
ENDBRANCH   2  13
TORSDOF 3
ENDMDL
MODEL 10
REMARK VINA RESULT:      -6.4     20.466     21.906
REMARK  Name = 
REMARK  3 active torsions:
REMARK  status: ('A' for Active; 'I' for Inactive)
REMARK    1  A    between atoms: C_2  and  C_13
REMARK    2  A    between atoms: N_3  and  C_4
REMARK    3  A    between atoms: C_16  and  N_17
REMARK                            x       y       z     vdW  Elec       q    Type
REMARK                         _______ _______ _______ _____ _____    ______ ____
ROOT
ATOM      1  O   UNL     1      34.703  -0.559  33.302  0.00  0.00    +0.000 OA
ATOM      2  C   UNL     1      33.677  -0.855  33.954  0.00  0.00    +0.000 C 
ATOM      3  N   UNL     1      32.963   0.164  34.623  0.00  0.00    +0.000 NA
ENDROOT
BRANCH   3   4
ATOM      4  C   UNL     1      33.359   1.524  34.591  0.00  0.00    +0.000 A 
ATOM      5  C   UNL     1      33.250   2.224  33.411  0.00  0.00    +0.000 A 
ATOM      6  C   UNL     1      33.643   3.569  33.387  0.00  0.00    +0.000 A 
ATOM      7  C   UNL     1      34.133   4.200  34.510  0.00  0.00    +0.000 A 
ATOM      8  C   UNL     1      34.234   3.485  35.677  0.00  0.00    +0.000 A 
ATOM      9  C   UNL     1      33.846   2.156  35.705  0.00  0.00    +0.000 A 
ATOM     10  C   UNL     1      34.779   4.333  36.767  0.00  0.00    +0.000 C 
ATOM     11  C   UNL     1      34.446   5.732  36.282  0.00  0.00    +0.000 C 
ATOM     12  C   UNL     1      34.618   5.585  34.787  0.00  0.00    +0.000 C 
ENDBRANCH   3   4
BRANCH   2  13
ATOM     13  C   UNL     1      33.217  -2.230  34.028  0.00  0.00    +0.000 A 
ATOM     14  C   UNL     1      32.344  -2.611  35.037  0.00  0.00    +0.000 A 
ATOM     15  C   UNL     1      31.909  -3.917  35.104  0.00  0.00    +0.000 A 
ATOM     16  C   UNL     1      32.306  -4.869  34.205  0.00  0.00    +0.000 A 
ATOM     17  C   UNL     1      33.170  -4.484  33.210  0.00  0.00    +0.000 A 
ATOM     18  C   UNL     1      33.616  -3.188  33.123  0.00  0.00    +0.000 A 
BRANCH  16  19
ATOM     19  N   UNL     1      31.844  -6.222  34.292  0.00  0.00    +0.000 N 
ATOM     20  O   UNL     1      30.670  -6.518  34.081  0.00  0.00    +0.000 OA
ATOM     21  O   UNL     1      32.713  -7.230  34.617  0.00  0.00    +0.000 OA
ENDBRANCH  16  19
ENDBRANCH   2  13
TORSDOF 3
ENDMDL
