MODEL 1
REMARK VINA RESULT:      -5.9      0.000      0.000
REMARK  Name = 
REMARK  3 active torsions:
REMARK  status: ('A' for Active; 'I' for Inactive)
REMARK    1  A    between atoms: C_2  and  O_3
REMARK    2  A    between atoms: O_3  and  C_4
REMARK    3  A    between atoms: C_11  and  C_12
REMARK                            x       y       z     vdW  Elec       q    Type
REMARK                         _______ _______ _______ _____ _____    ______ ____
ROOT
ATOM      1  C   UNL     1      31.727  24.003  24.757  0.00  0.00    +0.000 A 
ATOM      2  C   UNL     1      31.218  22.877  25.367  0.00  0.00    +0.000 A 
ATOM      3  C   UNL     1      29.981  22.421  24.970  0.00  0.00    +0.000 A 
ATOM      4  C   UNL     1      29.234  23.041  23.991  0.00  0.00    +0.000 A 
ATOM      5  N   UNL     1      28.043  22.840  23.411  0.00  0.00    +0.000 NA
ATOM      6  C   UNL     1      27.830  23.804  22.482  0.00  0.00    +0.000 A 
ATOM      7  C   UNL     1      26.636  23.959  21.607  0.00  0.00    +0.000 C 
ATOM      8  C   UNL     1      28.901  24.652  22.452  0.00  0.00    +0.000 A 
ATOM      9  C   UNL     1      29.788  24.177  23.400  0.00  0.00    +0.000 A 
ATOM     10  C   UNL     1      31.011  24.639  23.783  0.00  0.00    +0.000 A 
ENDROOT
BRANCH   8  11
ATOM     11  C   UNL     1      29.121  25.844  21.607  0.00  0.00    +0.000 A 
ATOM     12  C   UNL     1      28.724  27.082  22.044  0.00  0.00    +0.000 A 
ATOM     13  S   UNL     1      29.203  28.083  20.717  0.00  0.00    +0.000 S 
ATOM     14  C   UNL     1      29.861  26.858  19.727  0.00  0.00    +0.000 A 
ATOM     15  N   UNL     1      30.476  26.908  18.421  0.00  0.00    +0.000 NA
ATOM     16  C   UNL     1      30.556  28.237  17.825  0.00  0.00    +0.000 C 
ATOM     17  N   UNL     1      29.687  25.778  20.440  0.00  0.00    +0.000 NA
ENDBRANCH   8  11
BRANCH   1  18
ATOM     18  O   UNL     1      32.963  24.465  25.148  0.00  0.00    +0.000 OA
BRANCH  18  20
ATOM     19  C   UNL     1      34.786  25.971  24.797  0.00  0.00    +0.000 C 
ATOM     20  C   UNL     1      33.293  25.843  25.089  0.00  0.00    +0.000 C 
ENDBRANCH  18  20
ENDBRANCH   1  18
TORSDOF 3
ENDMDL
MODEL 2
REMARK VINA RESULT:      -5.8     24.949     27.981
REMARK  Name = 
REMARK  3 active torsions:
REMARK  status: ('A' for Active; 'I' for Inactive)
REMARK    1  A    between atoms: C_2  and  O_3
REMARK    2  A    between atoms: O_3  and  C_4
REMARK    3  A    between atoms: C_11  and  C_12
REMARK                            x       y       z     vdW  Elec       q    Type
REMARK                         _______ _______ _______ _____ _____    ______ ____
ROOT
ATOM      1  C   UNL     1      34.037   4.128  35.181  0.00  0.00    +0.000 A 
ATOM      2  C   UNL     1      33.763   4.230  33.834  0.00  0.00    +0.000 A 
ATOM      3  C   UNL     1      33.480   3.078  33.135  0.00  0.00    +0.000 A 
ATOM      4  C   UNL     1      33.458   1.832  33.724  0.00  0.00    +0.000 A 
ATOM      5  N   UNL     1      33.224   0.576  33.321  0.00  0.00    +0.000 NA
ATOM      6  C   UNL     1      33.349  -0.264  34.378  0.00  0.00    +0.000 A 
ATOM      7  C   UNL     1      33.174  -1.742  34.376  0.00  0.00    +0.000 C 
ATOM      8  C   UNL     1      33.670   0.455  35.495  0.00  0.00    +0.000 A 
ATOM      9  C   UNL     1      33.740   1.775  35.090  0.00  0.00    +0.000 A 
ATOM     10  C   UNL     1      34.023   2.907  35.794  0.00  0.00    +0.000 A 
ENDROOT
BRANCH   8  11
ATOM     11  C   UNL     1      33.906  -0.022  36.873  0.00  0.00    +0.000 A 
ATOM     12  C   UNL     1      35.130  -0.533  37.226  0.00  0.00    +0.000 A 
ATOM     13  S   UNL     1      34.869  -0.927  38.890  0.00  0.00    +0.000 S 
ATOM     14  C   UNL     1      33.245  -0.416  38.999  0.00  0.00    +0.000 A 
ATOM     15  N   UNL     1      32.309  -0.420  40.099  0.00  0.00    +0.000 NA
ATOM     16  C   UNL     1      32.831  -0.957  41.352  0.00  0.00    +0.000 C 
ATOM     17  N   UNL     1      32.991   0.018  37.793  0.00  0.00    +0.000 NA
ENDBRANCH   8  11
BRANCH   1  18
ATOM     18  O   UNL     1      34.321   5.275  35.886  0.00  0.00    +0.000 OA
BRANCH  18  20
ATOM     19  C   UNL     1      36.669   5.612  35.585  0.00  0.00    +0.000 C 
ATOM     20  C   UNL     1      35.276   6.215  35.421  0.00  0.00    +0.000 C 
ENDBRANCH  18  20
ENDBRANCH   1  18
TORSDOF 3
ENDMDL
MODEL 3
REMARK VINA RESULT:      -5.8     33.155     35.696
REMARK  Name = 
REMARK  3 active torsions:
REMARK  status: ('A' for Active; 'I' for Inactive)
REMARK    1  A    between atoms: C_2  and  O_3
REMARK    2  A    between atoms: O_3  and  C_4
REMARK    3  A    between atoms: C_11  and  C_12
REMARK                            x       y       z     vdW  Elec       q    Type
REMARK                         _______ _______ _______ _____ _____    ______ ____
ROOT
ATOM      1  C   UNL     1      18.057  -8.034  27.405  0.00  0.00    +0.000 A 
ATOM      2  C   UNL     1      17.698  -6.706  27.311  0.00  0.00    +0.000 A 
ATOM      3  C   UNL     1      18.514  -5.857  26.599  0.00  0.00    +0.000 A 
ATOM      4  C   UNL     1      19.672  -6.276  25.979  0.00  0.00    +0.000 A 
ATOM      5  N   UNL     1      20.635  -5.707  25.242  0.00  0.00    +0.000 NA
ATOM      6  C   UNL     1      21.549  -6.647  24.898  0.00  0.00    +0.000 A 
ATOM      7  C   UNL     1      22.779  -6.447  24.084  0.00  0.00    +0.000 C 
ATOM      8  C   UNL     1      21.178  -7.855  25.418  0.00  0.00    +0.000 A 
ATOM      9  C   UNL     1      19.997  -7.629  26.099  0.00  0.00    +0.000 A 
ATOM     10  C   UNL     1      19.198  -8.481  26.801  0.00  0.00    +0.000 A 
ENDROOT
BRANCH   8  11
ATOM     11  C   UNL     1      21.856  -9.163  25.309  0.00  0.00    +0.000 A 
ATOM     12  C   UNL     1      21.574 -10.000  24.259  0.00  0.00    +0.000 A 
ATOM     13  S   UNL     1      22.607 -11.344  24.607  0.00  0.00    +0.000 S 
ATOM     14  C   UNL     1      23.303 -10.738  26.042  0.00  0.00    +0.000 A 
ATOM     15  N   UNL     1      24.284 -11.297  26.942  0.00  0.00    +0.000 NA
ATOM     16  C   UNL     1      24.780 -12.619  26.573  0.00  0.00    +0.000 C 
ATOM     17  N   UNL     1      22.728  -9.573  26.179  0.00  0.00    +0.000 NA
ENDBRANCH   8  11
BRANCH   1  18
ATOM     18  O   UNL     1      17.246  -8.889  28.114  0.00  0.00    +0.000 OA
BRANCH  18  20
ATOM     19  C   UNL     1      17.581  -9.893  30.258  0.00  0.00    +0.000 C 
ATOM     20  C   UNL     1      17.763 -10.046  28.750  0.00  0.00    +0.000 C 
ENDBRANCH  18  20
ENDBRANCH   1  18
TORSDOF 3
ENDMDL
MODEL 4
REMARK VINA RESULT:      -5.7     25.566     28.593
REMARK  Name = 
REMARK  3 active torsions:
REMARK  status: ('A' for Active; 'I' for Inactive)
REMARK    1  A    between atoms: C_2  and  O_3
REMARK    2  A    between atoms: O_3  and  C_4
REMARK    3  A    between atoms: C_11  and  C_12
REMARK                            x       y       z     vdW  Elec       q    Type
REMARK                         _______ _______ _______ _____ _____    ______ ____
ROOT
ATOM      1  C   UNL     1      18.240   9.122  38.740  0.00  0.00    +0.000 A 
ATOM      2  C   UNL     1      17.149   9.903  39.056  0.00  0.00    +0.000 A 
ATOM      3  C   UNL     1      16.419   9.583  40.178  0.00  0.00    +0.000 A 
ATOM      4  C   UNL     1      16.731   8.518  40.996  0.00  0.00    +0.000 A 
ATOM      5  N   UNL     1      16.229   7.977  42.114  0.00  0.00    +0.000 NA
ATOM      6  C   UNL     1      16.982   6.908  42.470  0.00  0.00    +0.000 A 
ATOM      7  C   UNL     1      16.778   6.019  43.647  0.00  0.00    +0.000 C 
ATOM      8  C   UNL     1      17.996   6.744  41.570  0.00  0.00    +0.000 A 
ATOM      9  C   UNL     1      17.845   7.755  40.639  0.00  0.00    +0.000 A 
ATOM     10  C   UNL     1      18.576   8.060  39.531  0.00  0.00    +0.000 A 
ENDROOT
BRANCH   8  11
ATOM     11  C   UNL     1      19.062   5.720  41.543  0.00  0.00    +0.000 A 
ATOM     12  C   UNL     1      20.276   5.974  42.130  0.00  0.00    +0.000 A 
ATOM     13  S   UNL     1      21.120   4.497  41.820  0.00  0.00    +0.000 S 
ATOM     14  C   UNL     1      19.875   3.688  40.980  0.00  0.00    +0.000 A 
ATOM     15  N   UNL     1      19.816   2.373  40.386  0.00  0.00    +0.000 NA
ATOM     16  C   UNL     1      21.033   1.579  40.518  0.00  0.00    +0.000 C 
ATOM     17  N   UNL     1      18.905   4.562  40.979  0.00  0.00    +0.000 NA
ENDBRANCH   8  11
BRANCH   1  18
ATOM     18  O   UNL     1      18.975   9.436  37.620  0.00  0.00    +0.000 OA
BRANCH  18  20
ATOM     19  C   UNL     1      17.959   8.881  35.529  0.00  0.00    +0.000 C 
ATOM     20  C   UNL     1      18.372  10.008  36.472  0.00  0.00    +0.000 C 
ENDBRANCH  18  20
ENDBRANCH   1  18
TORSDOF 3
ENDMDL
MODEL 5
REMARK VINA RESULT:      -5.6     33.406     35.676
REMARK  Name = 
REMARK  3 active torsions:
REMARK  status: ('A' for Active; 'I' for Inactive)
REMARK    1  A    between atoms: C_2  and  O_3
REMARK    2  A    between atoms: O_3  and  C_4
REMARK    3  A    between atoms: C_11  and  C_12
REMARK                            x       y       z     vdW  Elec       q    Type
REMARK                         _______ _______ _______ _____ _____    ______ ____
ROOT
ATOM      1  C   UNL     1      22.630  -9.112  25.095  0.00  0.00    +0.000 A 
ATOM      2  C   UNL     1      23.181  -7.981  24.532  0.00  0.00    +0.000 A 
ATOM      3  C   UNL     1      22.485  -6.797  24.627  0.00  0.00    +0.000 A 
ATOM      4  C   UNL     1      21.264  -6.695  25.260  0.00  0.00    +0.000 A 
ATOM      5  N   UNL     1      20.381  -5.719  25.506  0.00  0.00    +0.000 NA
ATOM      6  C   UNL     1      19.330  -6.229  26.192  0.00  0.00    +0.000 A 
ATOM      7  C   UNL     1      18.126  -5.494  26.667  0.00  0.00    +0.000 C 
ATOM      8  C   UNL     1      19.527  -7.565  26.401  0.00  0.00    +0.000 A 
ATOM      9  C   UNL     1      20.744  -7.865  25.817  0.00  0.00    +0.000 A 
ATOM     10  C   UNL     1      21.422  -9.044  25.729  0.00  0.00    +0.000 A 
ENDROOT
BRANCH   8  11
ATOM     11  C   UNL     1      18.659  -8.537  27.097  0.00  0.00    +0.000 A 
ATOM     12  C   UNL     1      17.853  -9.381  26.376  0.00  0.00    +0.000 A 
ATOM     13  S   UNL     1      17.079 -10.275  27.639  0.00  0.00    +0.000 S 
ATOM     14  C   UNL     1      17.835  -9.511  28.963  0.00  0.00    +0.000 A 
ATOM     15  N   UNL     1      17.707  -9.712  30.388  0.00  0.00    +0.000 NA
ATOM     16  C   UNL     1      16.764 -10.752  30.783  0.00  0.00    +0.000 C 
ATOM     17  N   UNL     1      18.618  -8.637  28.391  0.00  0.00    +0.000 NA
ENDBRANCH   8  11
BRANCH   1  18
ATOM     18  O   UNL     1      23.319 -10.299  25.003  0.00  0.00    +0.000 OA
BRANCH  18  20
ATOM     19  C   UNL     1      24.856 -11.296  26.539  0.00  0.00    +0.000 C 
ATOM     20  C   UNL     1      24.697 -10.384  25.326  0.00  0.00    +0.000 C 
ENDBRANCH  18  20
ENDBRANCH   1  18
TORSDOF 3
ENDMDL
MODEL 6
REMARK VINA RESULT:      -5.3     33.207     35.556
REMARK  Name = 
REMARK  3 active torsions:
REMARK  status: ('A' for Active; 'I' for Inactive)
REMARK    1  A    between atoms: C_2  and  O_3
REMARK    2  A    between atoms: O_3  and  C_4
REMARK    3  A    between atoms: C_11  and  C_12
REMARK                            x       y       z     vdW  Elec       q    Type
REMARK                         _______ _______ _______ _____ _____    ______ ____
ROOT
ATOM      1  C   UNL     1      18.963 -10.867  27.919  0.00  0.00    +0.000 A 
ATOM      2  C   UNL     1      17.917 -10.440  28.709  0.00  0.00    +0.000 A 
ATOM      3  C   UNL     1      17.546  -9.117  28.644  0.00  0.00    +0.000 A 
ATOM      4  C   UNL     1      18.174  -8.203  27.824  0.00  0.00    +0.000 A 
ATOM      5  N   UNL     1      18.043  -6.898  27.553  0.00  0.00    +0.000 NA
ATOM      6  C   UNL     1      18.971  -6.537  26.633  0.00  0.00    +0.000 A 
ATOM      7  C   UNL     1      19.178  -5.183  26.050  0.00  0.00    +0.000 C 
ATOM      8  C   UNL     1      19.724  -7.626  26.295  0.00  0.00    +0.000 A 
ATOM      9  C   UNL     1      19.227  -8.678  27.041  0.00  0.00    +0.000 A 
ATOM     10  C   UNL     1      19.605  -9.986  27.096  0.00  0.00    +0.000 A 
ENDROOT
BRANCH   8  11
ATOM     11  C   UNL     1      20.847  -7.721  25.339  0.00  0.00    +0.000 A 
ATOM     12  C   UNL     1      20.761  -8.558  24.255  0.00  0.00    +0.000 A 
ATOM     13  S   UNL     1      22.292  -8.291  23.495  0.00  0.00    +0.000 S 
ATOM     14  C   UNL     1      22.908  -7.151  24.605  0.00  0.00    +0.000 A 
ATOM     15  N   UNL     1      24.165  -6.441  24.653  0.00  0.00    +0.000 NA
ATOM     16  C   UNL     1      25.087  -6.742  23.563  0.00  0.00    +0.000 C 
ATOM     17  N   UNL     1      21.941  -7.035  25.475  0.00  0.00    +0.000 NA
ENDBRANCH   8  11
BRANCH   1  18
ATOM     18  O   UNL     1      19.340 -12.188  27.979  0.00  0.00    +0.000 OA
BRANCH  18  20
ATOM     19  C   UNL     1      20.608 -12.602  29.964  0.00  0.00    +0.000 C 
ATOM     20  C   UNL     1      20.626 -12.574  28.438  0.00  0.00    +0.000 C 
ENDBRANCH  18  20
ENDBRANCH   1  18
TORSDOF 3
ENDMDL
MODEL 7
REMARK VINA RESULT:      -5.2      3.180      5.522
REMARK  Name = 
REMARK  3 active torsions:
REMARK  status: ('A' for Active; 'I' for Inactive)
REMARK    1  A    between atoms: C_2  and  O_3
REMARK    2  A    between atoms: O_3  and  C_4
REMARK    3  A    between atoms: C_11  and  C_12
REMARK                            x       y       z     vdW  Elec       q    Type
REMARK                         _______ _______ _______ _____ _____    ______ ____
ROOT
ATOM      1  C   UNL     1      28.870  24.838  21.841  0.00  0.00    +0.000 A 
ATOM      2  C   UNL     1      27.736  24.094  22.087  0.00  0.00    +0.000 A 
ATOM      3  C   UNL     1      27.695  23.323  23.227  0.00  0.00    +0.000 A 
ATOM      4  C   UNL     1      28.736  23.264  24.129  0.00  0.00    +0.000 A 
ATOM      5  N   UNL     1      28.981  22.630  25.283  0.00  0.00    +0.000 NA
ATOM      6  C   UNL     1      30.215  22.971  25.728  0.00  0.00    +0.000 A 
ATOM      7  C   UNL     1      30.884  22.497  26.970  0.00  0.00    +0.000 C 
ATOM      8  C   UNL     1      30.790  23.844  24.849  0.00  0.00    +0.000 A 
ATOM      9  C   UNL     1      29.865  24.033  23.840  0.00  0.00    +0.000 A 
ATOM     10  C   UNL     1      29.919  24.801  22.715  0.00  0.00    +0.000 A 
ENDROOT
BRANCH   8  11
ATOM     11  C   UNL     1      32.120  24.486  24.909  0.00  0.00    +0.000 A 
ATOM     12  C   UNL     1      32.249  25.759  25.405  0.00  0.00    +0.000 A 
ATOM     13  S   UNL     1      33.953  26.013  25.253  0.00  0.00    +0.000 S 
ATOM     14  C   UNL     1      34.356  24.499  24.580  0.00  0.00    +0.000 A 
ATOM     15  N   UNL     1      35.622  23.939  24.165  0.00  0.00    +0.000 NA
ATOM     16  C   UNL     1      36.775  24.815  24.347  0.00  0.00    +0.000 C 
ATOM     17  N   UNL     1      33.202  23.892  24.507  0.00  0.00    +0.000 NA
ENDBRANCH   8  11
BRANCH   1  18
ATOM     18  O   UNL     1      28.919  25.611  20.704  0.00  0.00    +0.000 OA
BRANCH  18  20
ATOM     19  C   UNL     1      27.909  27.740  21.113  0.00  0.00    +0.000 C 
ATOM     20  C   UNL     1      29.198  27.001  20.762  0.00  0.00    +0.000 C 
ENDBRANCH  18  20
ENDBRANCH   1  18
TORSDOF 3
ENDMDL
MODEL 8
REMARK VINA RESULT:      -5.2     33.733     36.263
REMARK  Name = 
REMARK  3 active torsions:
REMARK  status: ('A' for Active; 'I' for Inactive)
REMARK    1  A    between atoms: C_2  and  O_3
REMARK    2  A    between atoms: O_3  and  C_4
REMARK    3  A    between atoms: C_11  and  C_12
REMARK                            x       y       z     vdW  Elec       q    Type
REMARK                         _______ _______ _______ _____ _____    ______ ____
ROOT
ATOM      1  C   UNL     1      20.720  -6.646  25.504  0.00  0.00    +0.000 A 
ATOM      2  C   UNL     1      19.805  -5.661  25.810  0.00  0.00    +0.000 A 
ATOM      3  C   UNL     1      18.730  -5.991  26.604  0.00  0.00    +0.000 A 
ATOM      4  C   UNL     1      18.530  -7.260  27.104  0.00  0.00    +0.000 A 
ATOM      5  N   UNL     1      17.615  -7.863  27.874  0.00  0.00    +0.000 NA
ATOM      6  C   UNL     1      17.953  -9.166  28.034  0.00  0.00    +0.000 A 
ATOM      7  C   UNL     1      17.214 -10.196  28.814  0.00  0.00    +0.000 C 
ATOM      8  C   UNL     1      19.112  -9.422  27.357  0.00  0.00    +0.000 A 
ATOM      9  C   UNL     1      19.481  -8.226  26.769  0.00  0.00    +0.000 A 
ATOM     10  C   UNL     1      20.550  -7.914  25.984  0.00  0.00    +0.000 A 
ENDROOT
BRANCH   8  11
ATOM     11  C   UNL     1      19.861 -10.690  27.240  0.00  0.00    +0.000 A 
ATOM     12  C   UNL     1      19.586 -11.562  26.216  0.00  0.00    +0.000 A 
ATOM     13  S   UNL     1      20.710 -12.836  26.541  0.00  0.00    +0.000 S 
ATOM     14  C   UNL     1      21.428 -12.164  27.935  0.00  0.00    +0.000 A 
ATOM     15  N   UNL     1      22.478 -12.647  28.802  0.00  0.00    +0.000 NA
ATOM     16  C   UNL     1      23.035 -13.944  28.433  0.00  0.00    +0.000 C 
ATOM     17  N   UNL     1      20.792 -11.032  28.078  0.00  0.00    +0.000 NA
ENDBRANCH   8  11
BRANCH   1  18
ATOM     18  O   UNL     1      21.797  -6.324  24.711  0.00  0.00    +0.000 OA
BRANCH  18  20
ATOM     19  C   UNL     1      24.129  -6.384  24.186  0.00  0.00    +0.000 C 
ATOM     20  C   UNL     1      22.898  -7.206  24.561  0.00  0.00    +0.000 C 
ENDBRANCH  18  20
ENDBRANCH   1  18
TORSDOF 3
ENDMDL
MODEL 9
REMARK VINA RESULT:      -5.2      6.095      7.669
REMARK  Name = 
REMARK  3 active torsions:
REMARK  status: ('A' for Active; 'I' for Inactive)
REMARK    1  A    between atoms: C_2  and  O_3
REMARK    2  A    between atoms: O_3  and  C_4
REMARK    3  A    between atoms: C_11  and  C_12
REMARK                            x       y       z     vdW  Elec       q    Type
REMARK                         _______ _______ _______ _____ _____    ______ ____
ROOT
ATOM      1  C   UNL     1      24.050  26.340  28.688  0.00  0.00    +0.000 A 
ATOM      2  C   UNL     1      24.326  26.113  30.019  0.00  0.00    +0.000 A 
ATOM      3  C   UNL     1      25.297  25.192  30.339  0.00  0.00    +0.000 A 
ATOM      4  C   UNL     1      26.003  24.488  29.386  0.00  0.00    +0.000 A 
ATOM      5  N   UNL     1      26.971  23.562  29.388  0.00  0.00    +0.000 NA
ATOM      6  C   UNL     1      27.278  23.233  28.110  0.00  0.00    +0.000 A 
ATOM      7  C   UNL     1      28.295  22.246  27.657  0.00  0.00    +0.000 C 
ATOM      8  C   UNL     1      26.497  23.956  27.254  0.00  0.00    +0.000 A 
ATOM      9  C   UNL     1      25.692  24.749  28.051  0.00  0.00    +0.000 A 
ATOM     10  C   UNL     1      24.733  25.659  27.720  0.00  0.00    +0.000 A 
ENDROOT
BRANCH   8  11
ATOM     11  C   UNL     1      26.471  23.939  25.776  0.00  0.00    +0.000 A 
ATOM     12  C   UNL     1      25.756  22.976  25.110  0.00  0.00    +0.000 A 
ATOM     13  S   UNL     1      26.058  23.405  23.462  0.00  0.00    +0.000 S 
ATOM     14  C   UNL     1      27.058  24.756  23.752  0.00  0.00    +0.000 A 
ATOM     15  N   UNL     1      27.723  25.669  22.851  0.00  0.00    +0.000 NA
ATOM     16  C   UNL     1      27.513  25.400  21.432  0.00  0.00    +0.000 C 
ATOM     17  N   UNL     1      27.109  24.811  25.056  0.00  0.00    +0.000 NA
ENDBRANCH   8  11
BRANCH   1  18
ATOM     18  O   UNL     1      23.081  27.259  28.361  0.00  0.00    +0.000 OA
BRANCH  18  20
ATOM     19  C   UNL     1      21.050  26.155  27.749  0.00  0.00    +0.000 C 
ATOM     20  C   UNL     1      21.729  27.084  28.752  0.00  0.00    +0.000 C 
ENDBRANCH  18  20
ENDBRANCH   1  18
TORSDOF 3
ENDMDL
MODEL 10
REMARK VINA RESULT:      -5.1      2.438      2.900
REMARK  Name = 
REMARK  3 active torsions:
REMARK  status: ('A' for Active; 'I' for Inactive)
REMARK    1  A    between atoms: C_2  and  O_3
REMARK    2  A    between atoms: O_3  and  C_4
REMARK    3  A    between atoms: C_11  and  C_12
REMARK                            x       y       z     vdW  Elec       q    Type
REMARK                         _______ _______ _______ _____ _____    ______ ____
ROOT
ATOM      1  C   UNL     1      30.721  23.173  26.687  0.00  0.00    +0.000 A 
ATOM      2  C   UNL     1      30.012  22.391  27.573  0.00  0.00    +0.000 A 
ATOM      3  C   UNL     1      28.690  22.124  27.297  0.00  0.00    +0.000 A 
ATOM      4  C   UNL     1      28.048  22.604  26.175  0.00  0.00    +0.000 A 
ATOM      5  N   UNL     1      26.817  22.517  25.655  0.00  0.00    +0.000 NA
ATOM      6  C   UNL     1      26.771  23.218  24.495  0.00  0.00    +0.000 A 
ATOM      7  C   UNL     1      25.599  23.386  23.594  0.00  0.00    +0.000 C 
ATOM      8  C   UNL     1      27.995  23.774  24.251  0.00  0.00    +0.000 A 
ATOM      9  C   UNL     1      28.804  23.391  25.305  0.00  0.00    +0.000 A 
ATOM     10  C   UNL     1      30.113  23.664  25.566  0.00  0.00    +0.000 A 
ENDROOT
BRANCH   8  11
ATOM     11  C   UNL     1      28.425  24.617  23.116  0.00  0.00    +0.000 A 
ATOM     12  C   UNL     1      28.864  24.036  21.953  0.00  0.00    +0.000 A 
ATOM     13  S   UNL     1      29.228  25.428  20.993  0.00  0.00    +0.000 S 
ATOM     14  C   UNL     1      28.798  26.620  22.136  0.00  0.00    +0.000 A 
ATOM     15  N   UNL     1      28.822  28.063  22.073  0.00  0.00    +0.000 NA
ATOM     16  C   UNL     1      29.300  28.619  20.811  0.00  0.00    +0.000 C 
ATOM     17  N   UNL     1      28.408  25.915  23.163  0.00  0.00    +0.000 NA
ENDBRANCH   8  11
BRANCH   1  18
ATOM     18  O   UNL     1      32.042  23.445  26.956  0.00  0.00    +0.000 OA
BRANCH  18  20
ATOM     19  C   UNL     1      33.414  23.108  28.885  0.00  0.00    +0.000 C 
ATOM     20  C   UNL     1      32.443  24.048  28.175  0.00  0.00    +0.000 C 
ENDBRANCH  18  20
ENDBRANCH   1  18
TORSDOF 3
ENDMDL
