MODEL 1
REMARK VINA RESULT:      -8.2      0.000      0.000
REMARK  Name = 
REMARK  6 active torsions:
REMARK  status: ('A' for Active; 'I' for Inactive)
REMARK    1  A    between atoms: C_2  and  O_3
REMARK    2  A    between atoms: O_3  and  C_4
REMARK    3  A    between atoms: C_7  and  C_8
REMARK    4  A    between atoms: C_10  and  C_11
REMARK    5  A    between atoms: N_13  and  N_14
REMARK    6  A    between atoms: C_15  and  C_17
REMARK                            x       y       z     vdW  Elec       q    Type
REMARK                         _______ _______ _______ _____ _____    ______ ____
ROOT
ATOM      1  C   UNL     1      38.774   5.543  16.968  0.00  0.00    +0.000 A 
ATOM      2  C   UNL     1      38.230   4.254  17.025  0.00  0.00    +0.000 A 
ATOM      3  C   UNL     1      37.293   3.892  16.087  0.00  0.00    +0.000 A 
ATOM      4  C   UNL     1      36.947   4.833  15.140  0.00  0.00    +0.000 A 
ATOM      5  C   UNL     1      36.017   4.496  14.194  0.00  0.00    +0.000 A 
ATOM      6  C   UNL     1      35.612   5.390  13.202  0.00  0.00    +0.000 A 
ATOM      7  C   UNL     1      36.150   6.647  13.156  0.00  0.00    +0.000 A 
ATOM      8  C   UNL     1      37.093   7.005  14.105  0.00  0.00    +0.000 A 
ATOM      9  C   UNL     1      37.486   6.099  15.090  0.00  0.00    +0.000 A 
ATOM     10  N   UNL     1      38.396   6.414  16.023  0.00  0.00    +0.000 NA
ENDROOT
BRANCH   1  14
ATOM     11  C   UNL     1      41.749   6.771  19.744  0.00  0.00    +0.000 A 
ATOM     12  C   UNL     1      42.041   6.597  18.420  0.00  0.00    +0.000 A 
ATOM     13  C   UNL     1      41.056   6.199  17.546  0.00  0.00    +0.000 A 
ATOM     14  C   UNL     1      39.765   5.961  17.943  0.00  0.00    +0.000 A 
ATOM     15  C   UNL     1      39.481   6.139  19.280  0.00  0.00    +0.000 A 
ATOM     16  C   UNL     1      40.464   6.541  20.171  0.00  0.00    +0.000 A 
BRANCH  11  17
ATOM     17  O   UNL     1      42.702   7.168  20.650  0.00  0.00    +0.000 OA
BRANCH  17  19
ATOM     18  C   UNL     1      44.039   5.476  21.734  0.00  0.00    +0.000 C 
ATOM     19  C   UNL     1      43.961   6.558  20.690  0.00  0.00    +0.000 C 
ENDBRANCH  17  19
ENDBRANCH  11  17
ENDBRANCH   1  14
BRANCH   3  20
ATOM     20  C   UNL     1      36.677   2.552  16.084  0.00  0.00    +0.000 C 
ATOM     21  O   UNL     1      35.505   2.420  16.516  0.00  0.00    +0.000 OA
ATOM     22  N   UNL     1      37.355   1.410  15.615  0.00  0.00    +0.000 NA
BRANCH  22  23
ATOM     23  N   UNL     1      36.805   0.124  15.596  0.00  0.00    +0.000 NA
ATOM     24  C   UNL     1      37.484  -0.933  15.292  0.00  0.00    +0.000 C 
ATOM     25  C   UNL     1      38.906  -0.748  14.952  0.00  0.00    +0.000 C 
BRANCH  24  26
ATOM     26  C   UNL     1      36.866  -2.265  15.285  0.00  0.00    +0.000 A 
ATOM     27  C   UNL     1      37.502  -3.421  15.683  0.00  0.00    +0.000 A 
ATOM     28  C   UNL     1      36.593  -4.471  15.531  0.00  0.00    +0.000 A 
ATOM     29  C   UNL     1      35.450  -3.869  15.042  0.00  0.00    +0.000 A 
ATOM     30  C   UNL     1      34.213  -4.632  14.732  0.00  0.00    +0.000 C 
ATOM     31  O   UNL     1      35.658  -2.569  14.913  0.00  0.00    +0.000 OA
ENDBRANCH  24  26
ENDBRANCH  22  23
ENDBRANCH   3  20
TORSDOF 6
ENDMDL
MODEL 2
REMARK VINA RESULT:      -8.0      3.347      7.029
REMARK  Name = 
REMARK  6 active torsions:
REMARK  status: ('A' for Active; 'I' for Inactive)
REMARK    1  A    between atoms: C_2  and  O_3
REMARK    2  A    between atoms: O_3  and  C_4
REMARK    3  A    between atoms: C_7  and  C_8
REMARK    4  A    between atoms: C_10  and  C_11
REMARK    5  A    between atoms: N_13  and  N_14
REMARK    6  A    between atoms: C_15  and  C_17
REMARK                            x       y       z     vdW  Elec       q    Type
REMARK                         _______ _______ _______ _____ _____    ______ ____
ROOT
ATOM      1  C   UNL     1      38.600   5.002  16.823  0.00  0.00    +0.000 A 
ATOM      2  C   UNL     1      38.423   5.500  15.527  0.00  0.00    +0.000 A 
ATOM      3  C   UNL     1      37.485   4.910  14.715  0.00  0.00    +0.000 A 
ATOM      4  C   UNL     1      36.769   3.853  15.238  0.00  0.00    +0.000 A 
ATOM      5  C   UNL     1      35.827   3.248  14.450  0.00  0.00    +0.000 A 
ATOM      6  C   UNL     1      35.062   2.174  14.902  0.00  0.00    +0.000 A 
ATOM      7  C   UNL     1      35.243   1.695  16.171  0.00  0.00    +0.000 A 
ATOM      8  C   UNL     1      36.190   2.294  16.983  0.00  0.00    +0.000 A 
ATOM      9  C   UNL     1      36.948   3.368  16.514  0.00  0.00    +0.000 A 
ATOM     10  N   UNL     1      37.873   3.970  17.275  0.00  0.00    +0.000 NA
ENDROOT
BRANCH   1  14
ATOM     11  C   UNL     1      41.543   6.764  19.333  0.00  0.00    +0.000 A 
ATOM     12  C   UNL     1      41.763   6.587  17.996  0.00  0.00    +0.000 A 
ATOM     13  C   UNL     1      40.791   6.014  17.209  0.00  0.00    +0.000 A 
ATOM     14  C   UNL     1      39.582   5.600  17.708  0.00  0.00    +0.000 A 
ATOM     15  C   UNL     1      39.370   5.784  19.058  0.00  0.00    +0.000 A 
ATOM     16  C   UNL     1      40.341   6.361  19.862  0.00  0.00    +0.000 A 
BRANCH  11  17
ATOM     17  O   UNL     1      42.486   7.333  20.153  0.00  0.00    +0.000 OA
BRANCH  17  19
ATOM     18  C   UNL     1      43.634   5.768  21.587  0.00  0.00    +0.000 C 
ATOM     19  C   UNL     1      43.706   6.695  20.404  0.00  0.00    +0.000 C 
ENDBRANCH  17  19
ENDBRANCH  11  17
ENDBRANCH   1  14
BRANCH   3  20
ATOM     20  C   UNL     1      37.244   5.381  13.339  0.00  0.00    +0.000 C 
ATOM     21  O   UNL     1      37.866   4.837  12.392  0.00  0.00    +0.000 OA
ATOM     22  N   UNL     1      36.341   6.421  13.042  0.00  0.00    +0.000 NA
BRANCH  22  23
ATOM     23  N   UNL     1      36.087   6.895  11.752  0.00  0.00    +0.000 NA
ATOM     24  C   UNL     1      34.903   7.192  11.326  0.00  0.00    +0.000 C 
ATOM     25  C   UNL     1      33.783   7.016  12.267  0.00  0.00    +0.000 C 
BRANCH  24  26
ATOM     26  C   UNL     1      34.680   7.687   9.962  0.00  0.00    +0.000 A 
ATOM     27  C   UNL     1      34.934   8.977   9.550  0.00  0.00    +0.000 A 
ATOM     28  C   UNL     1      34.597   9.057   8.195  0.00  0.00    +0.000 A 
ATOM     29  C   UNL     1      34.154   7.788   7.876  0.00  0.00    +0.000 A 
ATOM     30  C   UNL     1      33.688   7.422   6.513  0.00  0.00    +0.000 C 
ATOM     31  O   UNL     1      34.221   7.016   8.948  0.00  0.00    +0.000 OA
ENDBRANCH  24  26
ENDBRANCH  22  23
ENDBRANCH   3  20
TORSDOF 6
ENDMDL
MODEL 3
REMARK VINA RESULT:      -7.9      2.725      6.847
REMARK  Name = 
REMARK  6 active torsions:
REMARK  status: ('A' for Active; 'I' for Inactive)
REMARK    1  A    between atoms: C_2  and  O_3
REMARK    2  A    between atoms: O_3  and  C_4
REMARK    3  A    between atoms: C_7  and  C_8
REMARK    4  A    between atoms: C_10  and  C_11
REMARK    5  A    between atoms: N_13  and  N_14
REMARK    6  A    between atoms: C_15  and  C_17
REMARK                            x       y       z     vdW  Elec       q    Type
REMARK                         _______ _______ _______ _____ _____    ______ ____
ROOT
ATOM      1  C   UNL     1      36.267   5.583  14.077  0.00  0.00    +0.000 A 
ATOM      2  C   UNL     1      36.102   4.241  14.439  0.00  0.00    +0.000 A 
ATOM      3  C   UNL     1      36.763   3.771  15.548  0.00  0.00    +0.000 A 
ATOM      4  C   UNL     1      37.554   4.664  16.240  0.00  0.00    +0.000 A 
ATOM      5  C   UNL     1      38.222   4.221  17.350  0.00  0.00    +0.000 A 
ATOM      6  C   UNL     1      39.042   5.059  18.105  0.00  0.00    +0.000 A 
ATOM      7  C   UNL     1      39.196   6.369  17.743  0.00  0.00    +0.000 A 
ATOM      8  C   UNL     1      38.527   6.835  16.624  0.00  0.00    +0.000 A 
ATOM      9  C   UNL     1      37.711   5.983  15.879  0.00  0.00    +0.000 A 
ATOM     10  N   UNL     1      37.051   6.403  14.791  0.00  0.00    +0.000 NA
ENDROOT
BRANCH   1  14
ATOM     11  C   UNL     1      34.352   7.108  10.602  0.00  0.00    +0.000 A 
ATOM     12  C   UNL     1      35.569   6.489  10.529  0.00  0.00    +0.000 A 
ATOM     13  C   UNL     1      36.163   6.006  11.672  0.00  0.00    +0.000 A 
ATOM     14  C   UNL     1      35.585   6.115  12.911  0.00  0.00    +0.000 A 
ATOM     15  C   UNL     1      34.357   6.740  12.973  0.00  0.00    +0.000 A 
ATOM     16  C   UNL     1      33.747   7.230  11.830  0.00  0.00    +0.000 A 
BRANCH  11  17
ATOM     17  O   UNL     1      33.723   7.603   9.486  0.00  0.00    +0.000 OA
BRANCH  17  19
ATOM     18  C   UNL     1      33.509   6.360   7.428  0.00  0.00    +0.000 C 
ATOM     19  C   UNL     1      34.258   7.407   8.208  0.00  0.00    +0.000 C 
ENDBRANCH  17  19
ENDBRANCH  11  17
ENDBRANCH   1  14
BRANCH   3  20
ATOM     20  C   UNL     1      36.637   2.370  15.989  0.00  0.00    +0.000 C 
ATOM     21  O   UNL     1      35.710   2.060  16.779  0.00  0.00    +0.000 OA
ATOM     22  N   UNL     1      37.520   1.360  15.558  0.00  0.00    +0.000 NA
BRANCH  22  23
ATOM     23  N   UNL     1      37.434   0.022  15.954  0.00  0.00    +0.000 NA
ATOM     24  C   UNL     1      38.324  -0.866  15.652  0.00  0.00    +0.000 C 
ATOM     25  C   UNL     1      39.477  -0.420  14.851  0.00  0.00    +0.000 C 
BRANCH  24  26
ATOM     26  C   UNL     1      38.194  -2.262  16.089  0.00  0.00    +0.000 A 
ATOM     27  C   UNL     1      39.176  -2.966  16.750  0.00  0.00    +0.000 A 
ATOM     28  C   UNL     1      38.678  -4.250  16.992  0.00  0.00    +0.000 A 
ATOM     29  C   UNL     1      37.408  -4.234  16.449  0.00  0.00    +0.000 A 
ATOM     30  C   UNL     1      36.508  -5.416  16.485  0.00  0.00    +0.000 C 
ATOM     31  O   UNL     1      37.167  -3.043  15.928  0.00  0.00    +0.000 OA
ENDBRANCH  24  26
ENDBRANCH  22  23
ENDBRANCH   3  20
TORSDOF 6
ENDMDL
MODEL 4
REMARK VINA RESULT:      -7.8      2.396      2.959
REMARK  Name = 
REMARK  6 active torsions:
REMARK  status: ('A' for Active; 'I' for Inactive)
REMARK    1  A    between atoms: C_2  and  O_3
REMARK    2  A    between atoms: O_3  and  C_4
REMARK    3  A    between atoms: C_7  and  C_8
REMARK    4  A    between atoms: C_10  and  C_11
REMARK    5  A    between atoms: N_13  and  N_14
REMARK    6  A    between atoms: C_15  and  C_17
REMARK                            x       y       z     vdW  Elec       q    Type
REMARK                         _______ _______ _______ _____ _____    ______ ____
ROOT
ATOM      1  C   UNL     1      39.145   5.254  16.591  0.00  0.00    +0.000 A 
ATOM      2  C   UNL     1      38.298   4.151  16.438  0.00  0.00    +0.000 A 
ATOM      3  C   UNL     1      38.449   3.351  15.331  0.00  0.00    +0.000 A 
ATOM      4  C   UNL     1      39.438   3.693  14.432  0.00  0.00    +0.000 A 
ATOM      5  C   UNL     1      39.609   2.912  13.321  0.00  0.00    +0.000 A 
ATOM      6  C   UNL     1      40.585   3.189  12.365  0.00  0.00    +0.000 A 
ATOM      7  C   UNL     1      41.408   4.270  12.523  0.00  0.00    +0.000 A 
ATOM      8  C   UNL     1      41.250   5.071  13.641  0.00  0.00    +0.000 A 
ATOM      9  C   UNL     1      40.268   4.780  14.588  0.00  0.00    +0.000 A 
ATOM     10  N   UNL     1      40.089   5.536  15.681  0.00  0.00    +0.000 NA
ENDROOT
BRANCH   1  14
ATOM     11  C   UNL     1      38.842   7.741  20.024  0.00  0.00    +0.000 A 
ATOM     12  C   UNL     1      39.761   6.732  19.957  0.00  0.00    +0.000 A 
ATOM     13  C   UNL     1      39.835   5.944  18.832  0.00  0.00    +0.000 A 
ATOM     14  C   UNL     1      39.015   6.122  17.747  0.00  0.00    +0.000 A 
ATOM     15  C   UNL     1      38.091   7.143  17.825  0.00  0.00    +0.000 A 
ATOM     16  C   UNL     1      38.007   7.944  18.953  0.00  0.00    +0.000 A 
BRANCH  11  17
ATOM     17  O   UNL     1      38.735   8.551  21.128  0.00  0.00    +0.000 OA
BRANCH  17  19
ATOM     18  C   UNL     1      40.133  10.493  20.808  0.00  0.00    +0.000 C 
ATOM     19  C   UNL     1      38.746   9.945  21.006  0.00  0.00    +0.000 C 
ENDBRANCH  17  19
ENDBRANCH  11  17
ENDBRANCH   1  14
BRANCH   3  20
ATOM     20  C   UNL     1      37.593   2.172  15.104  0.00  0.00    +0.000 C 
ATOM     21  O   UNL     1      36.585   2.285  14.364  0.00  0.00    +0.000 OA
ATOM     22  N   UNL     1      37.863   0.919  15.688  0.00  0.00    +0.000 NA
BRANCH  22  23
ATOM     23  N   UNL     1      37.076  -0.221  15.497  0.00  0.00    +0.000 NA
ATOM     24  C   UNL     1      37.555  -1.422  15.499  0.00  0.00    +0.000 C 
ATOM     25  C   UNL     1      39.005  -1.571  15.716  0.00  0.00    +0.000 C 
BRANCH  24  26
ATOM     26  C   UNL     1      36.692  -2.592  15.294  0.00  0.00    +0.000 A 
ATOM     27  C   UNL     1      37.148  -3.887  15.184  0.00  0.00    +0.000 A 
ATOM     28  C   UNL     1      36.033  -4.709  14.998  0.00  0.00    +0.000 A 
ATOM     29  C   UNL     1      34.960  -3.839  15.008  0.00  0.00    +0.000 A 
ATOM     30  C   UNL     1      33.556  -4.298  14.838  0.00  0.00    +0.000 C 
ATOM     31  O   UNL     1      35.396  -2.603  15.185  0.00  0.00    +0.000 OA
ENDBRANCH  24  26
ENDBRANCH  22  23
ENDBRANCH   3  20
TORSDOF 6
ENDMDL
MODEL 5
REMARK VINA RESULT:      -7.8      5.204      8.365
REMARK  Name = 
REMARK  6 active torsions:
REMARK  status: ('A' for Active; 'I' for Inactive)
REMARK    1  A    between atoms: C_2  and  O_3
REMARK    2  A    between atoms: O_3  and  C_4
REMARK    3  A    between atoms: C_7  and  C_8
REMARK    4  A    between atoms: C_10  and  C_11
REMARK    5  A    between atoms: N_13  and  N_14
REMARK    6  A    between atoms: C_15  and  C_17
REMARK                            x       y       z     vdW  Elec       q    Type
REMARK                         _______ _______ _______ _____ _____    ______ ____
ROOT
ATOM      1  C   UNL     1      36.948   0.303  15.927  0.00  0.00    +0.000 A 
ATOM      2  C   UNL     1      37.717  -0.382  14.978  0.00  0.00    +0.000 A 
ATOM      3  C   UNL     1      38.383  -1.519  15.367  0.00  0.00    +0.000 A 
ATOM      4  C   UNL     1      38.250  -1.915  16.681  0.00  0.00    +0.000 A 
ATOM      5  C   UNL     1      38.903  -3.046  17.092  0.00  0.00    +0.000 A 
ATOM      6  C   UNL     1      38.820  -3.513  18.404  0.00  0.00    +0.000 A 
ATOM      7  C   UNL     1      38.066  -2.836  19.323  0.00  0.00    +0.000 A 
ATOM      8  C   UNL     1      37.398  -1.691  18.924  0.00  0.00    +0.000 A 
ATOM      9  C   UNL     1      37.492  -1.237  17.609  0.00  0.00    +0.000 A 
ATOM     10  N   UNL     1      36.857  -0.132  17.191  0.00  0.00    +0.000 NA
ENDROOT
BRANCH   1  14
ATOM     11  C   UNL     1      34.923   3.854  14.763  0.00  0.00    +0.000 A 
ATOM     12  C   UNL     1      36.104   3.486  14.181  0.00  0.00    +0.000 A 
ATOM     13  C   UNL     1      36.736   2.331  14.579  0.00  0.00    +0.000 A 
ATOM     14  C   UNL     1      36.231   1.508  15.553  0.00  0.00    +0.000 A 
ATOM     15  C   UNL     1      35.039   1.888  16.133  0.00  0.00    +0.000 A 
ATOM     16  C   UNL     1      34.392   3.049  15.741  0.00  0.00    +0.000 A 
BRANCH  11  17
ATOM     17  O   UNL     1      34.259   4.998  14.394  0.00  0.00    +0.000 OA
BRANCH  17  19
ATOM     18  C   UNL     1      33.937   7.045  13.156  0.00  0.00    +0.000 C 
ATOM     19  C   UNL     1      34.897   5.996  13.649  0.00  0.00    +0.000 C 
ENDBRANCH  17  19
ENDBRANCH  11  17
ENDBRANCH   1  14
BRANCH   3  20
ATOM     20  C   UNL     1      39.212  -2.292  14.423  0.00  0.00    +0.000 C 
ATOM     21  O   UNL     1      38.655  -3.128  13.667  0.00  0.00    +0.000 OA
ATOM     22  N   UNL     1      40.608  -2.130  14.335  0.00  0.00    +0.000 NA
BRANCH  22  23
ATOM     23  N   UNL     1      41.427  -2.844  13.454  0.00  0.00    +0.000 NA
ATOM     24  C   UNL     1      42.686  -2.599  13.300  0.00  0.00    +0.000 C 
ATOM     25  C   UNL     1      43.265  -1.508  14.104  0.00  0.00    +0.000 C 
BRANCH  24  26
ATOM     26  C   UNL     1      43.510  -3.374  12.363  0.00  0.00    +0.000 A 
ATOM     27  C   UNL     1      43.226  -3.533  11.024  0.00  0.00    +0.000 A 
ATOM     28  C   UNL     1      44.235  -4.329  10.476  0.00  0.00    +0.000 A 
ATOM     29  C   UNL     1      45.074  -4.602  11.539  0.00  0.00    +0.000 A 
ATOM     30  C   UNL     1      46.298  -5.434  11.399  0.00  0.00    +0.000 C 
ATOM     31  O   UNL     1      44.606  -4.019  12.629  0.00  0.00    +0.000 OA
ENDBRANCH  24  26
ENDBRANCH  22  23
ENDBRANCH   3  20
TORSDOF 6
ENDMDL
MODEL 6
REMARK VINA RESULT:      -7.6      3.647      9.253
REMARK  Name = 
REMARK  6 active torsions:
REMARK  status: ('A' for Active; 'I' for Inactive)
REMARK    1  A    between atoms: C_2  and  O_3
REMARK    2  A    between atoms: O_3  and  C_4
REMARK    3  A    between atoms: C_7  and  C_8
REMARK    4  A    between atoms: C_10  and  C_11
REMARK    5  A    between atoms: N_13  and  N_14
REMARK    6  A    between atoms: C_15  and  C_17
REMARK                            x       y       z     vdW  Elec       q    Type
REMARK                         _______ _______ _______ _____ _____    ______ ____
ROOT
ATOM      1  C   UNL     1      36.342   2.398  15.710  0.00  0.00    +0.000 A 
ATOM      2  C   UNL     1      35.727   3.166  14.714  0.00  0.00    +0.000 A 
ATOM      3  C   UNL     1      36.118   4.473  14.554  0.00  0.00    +0.000 A 
ATOM      4  C   UNL     1      37.102   4.949  15.395  0.00  0.00    +0.000 A 
ATOM      5  C   UNL     1      37.510   6.248  15.255  0.00  0.00    +0.000 A 
ATOM      6  C   UNL     1      38.499   6.806  16.065  0.00  0.00    +0.000 A 
ATOM      7  C   UNL     1      39.094   6.046  17.036  0.00  0.00    +0.000 A 
ATOM      8  C   UNL     1      38.695   4.730  17.191  0.00  0.00    +0.000 A 
ATOM      9  C   UNL     1      37.704   4.188  16.372  0.00  0.00    +0.000 A 
ATOM     10  N   UNL     1      37.295   2.917  16.498  0.00  0.00    +0.000 NA
ENDROOT
BRANCH   1  14
ATOM     11  C   UNL     1      35.149  -1.627  16.375  0.00  0.00    +0.000 A 
ATOM     12  C   UNL     1      34.690  -0.610  17.165  0.00  0.00    +0.000 A 
ATOM     13  C   UNL     1      35.094   0.683  16.925  0.00  0.00    +0.000 A 
ATOM     14  C   UNL     1      35.955   1.014  15.909  0.00  0.00    +0.000 A 
ATOM     15  C   UNL     1      36.411  -0.020  15.118  0.00  0.00    +0.000 A 
ATOM     16  C   UNL     1      36.012  -1.326  15.349  0.00  0.00    +0.000 A 
BRANCH  11  17
ATOM     17  O   UNL     1      34.769  -2.931  16.580  0.00  0.00    +0.000 OA
BRANCH  17  19
ATOM     18  C   UNL     1      33.831  -4.357  14.874  0.00  0.00    +0.000 C 
ATOM     19  C   UNL     1      35.054  -3.924  15.636  0.00  0.00    +0.000 C 
ENDBRANCH  17  19
ENDBRANCH  11  17
ENDBRANCH   1  14
BRANCH   3  20
ATOM     20  C   UNL     1      35.515   5.342  13.527  0.00  0.00    +0.000 C 
ATOM     21  O   UNL     1      34.501   6.022  13.823  0.00  0.00    +0.000 OA
ATOM     22  N   UNL     1      36.033   5.440  12.221  0.00  0.00    +0.000 NA
BRANCH  22  23
ATOM     23  N   UNL     1      35.489   6.251  11.220  0.00  0.00    +0.000 NA
ATOM     24  C   UNL     1      35.595   5.988   9.959  0.00  0.00    +0.000 C 
ATOM     25  C   UNL     1      36.328   4.766   9.582  0.00  0.00    +0.000 C 
BRANCH  24  26
ATOM     26  C   UNL     1      35.008   6.868   8.940  0.00  0.00    +0.000 A 
ATOM     27  C   UNL     1      35.205   8.230   8.880  0.00  0.00    +0.000 A 
ATOM     28  C   UNL     1      34.488   8.708   7.780  0.00  0.00    +0.000 A 
ATOM     29  C   UNL     1      33.895   7.583   7.241  0.00  0.00    +0.000 A 
ATOM     30  C   UNL     1      33.026   7.635   6.036  0.00  0.00    +0.000 C 
ATOM     31  O   UNL     1      34.230   6.523   7.957  0.00  0.00    +0.000 OA
ENDBRANCH  24  26
ENDBRANCH  22  23
ENDBRANCH   3  20
TORSDOF 6
ENDMDL
MODEL 7
REMARK VINA RESULT:      -7.5      5.474      7.254
REMARK  Name = 
REMARK  6 active torsions:
REMARK  status: ('A' for Active; 'I' for Inactive)
REMARK    1  A    between atoms: C_2  and  O_3
REMARK    2  A    between atoms: O_3  and  C_4
REMARK    3  A    between atoms: C_7  and  C_8
REMARK    4  A    between atoms: C_10  and  C_11
REMARK    5  A    between atoms: N_13  and  N_14
REMARK    6  A    between atoms: C_15  and  C_17
REMARK                            x       y       z     vdW  Elec       q    Type
REMARK                         _______ _______ _______ _____ _____    ______ ____
ROOT
ATOM      1  C   UNL     1      39.062  -0.963  15.140  0.00  0.00    +0.000 A 
ATOM      2  C   UNL     1      38.549  -2.260  15.256  0.00  0.00    +0.000 A 
ATOM      3  C   UNL     1      37.282  -2.425  15.761  0.00  0.00    +0.000 A 
ATOM      4  C   UNL     1      36.591  -1.288  16.125  0.00  0.00    +0.000 A 
ATOM      5  C   UNL     1      35.326  -1.425  16.630  0.00  0.00    +0.000 A 
ATOM      6  C   UNL     1      34.562  -0.327  17.022  0.00  0.00    +0.000 A 
ATOM      7  C   UNL     1      35.073   0.937  16.904  0.00  0.00    +0.000 A 
ATOM      8  C   UNL     1      36.350   1.095  16.394  0.00  0.00    +0.000 A 
ATOM      9  C   UNL     1      37.102  -0.015  16.008  0.00  0.00    +0.000 A 
ATOM     10  N   UNL     1      38.341   0.105  15.511  0.00  0.00    +0.000 NA
ENDROOT
BRANCH   1  14
ATOM     11  C   UNL     1      42.943  -0.239  13.564  0.00  0.00    +0.000 A 
ATOM     12  C   UNL     1      41.978   0.728  13.547  0.00  0.00    +0.000 A 
ATOM     13  C   UNL     1      40.731   0.464  14.065  0.00  0.00    +0.000 A 
ATOM     14  C   UNL     1      40.397  -0.750  14.611  0.00  0.00    +0.000 A 
ATOM     15  C   UNL     1      41.378  -1.718  14.623  0.00  0.00    +0.000 A 
ATOM     16  C   UNL     1      42.638  -1.465  14.105  0.00  0.00    +0.000 A 
BRANCH  11  17
ATOM     17  O   UNL     1      44.200  -0.017  13.059  0.00  0.00    +0.000 OA
BRANCH  17  19
ATOM     18  C   UNL     1      46.018   0.107  14.642  0.00  0.00    +0.000 C 
ATOM     19  C   UNL     1      45.316  -0.686  13.573  0.00  0.00    +0.000 C 
ENDBRANCH  17  19
ENDBRANCH  11  17
ENDBRANCH   1  14
BRANCH   3  20
ATOM     20  C   UNL     1      36.676  -3.760  15.912  0.00  0.00    +0.000 C 
ATOM     21  O   UNL     1      36.955  -4.444  16.928  0.00  0.00    +0.000 OA
ATOM     22  N   UNL     1      35.792  -4.302  14.958  0.00  0.00    +0.000 NA
BRANCH  22  23
ATOM     23  N   UNL     1      35.198  -5.563  15.066  0.00  0.00    +0.000 NA
ATOM     24  C   UNL     1      33.924  -5.738  15.188  0.00  0.00    +0.000 C 
ATOM     25  C   UNL     1      33.075  -4.534  15.211  0.00  0.00    +0.000 C 
BRANCH  24  26
ATOM     26  C   UNL     1      33.341  -7.082  15.298  0.00  0.00    +0.000 A 
ATOM     27  C   UNL     1      33.715  -8.159  14.525  0.00  0.00    +0.000 A 
ATOM     28  C   UNL     1      32.939  -9.250  14.926  0.00  0.00    +0.000 A 
ATOM     29  C   UNL     1      32.134  -8.749  15.930  0.00  0.00    +0.000 A 
ATOM     30  C   UNL     1      31.136  -9.585  16.648  0.00  0.00    +0.000 C 
ATOM     31  O   UNL     1      32.406  -7.468  16.114  0.00  0.00    +0.000 OA
ENDBRANCH  24  26
ENDBRANCH  22  23
ENDBRANCH   3  20
TORSDOF 6
ENDMDL
MODEL 8
REMARK VINA RESULT:      -7.5      3.444      9.726
REMARK  Name = 
REMARK  6 active torsions:
REMARK  status: ('A' for Active; 'I' for Inactive)
REMARK    1  A    between atoms: C_2  and  O_3
REMARK    2  A    between atoms: O_3  and  C_4
REMARK    3  A    between atoms: C_7  and  C_8
REMARK    4  A    between atoms: C_10  and  C_11
REMARK    5  A    between atoms: N_13  and  N_14
REMARK    6  A    between atoms: C_15  and  C_17
REMARK                            x       y       z     vdW  Elec       q    Type
REMARK                         _______ _______ _______ _____ _____    ______ ____
ROOT
ATOM      1  C   UNL     1      37.709  -0.766  13.696  0.00  0.00    +0.000 A 
ATOM      2  C   UNL     1      37.669   0.536  14.206  0.00  0.00    +0.000 A 
ATOM      3  C   UNL     1      36.822   0.809  15.253  0.00  0.00    +0.000 A 
ATOM      4  C   UNL     1      36.058  -0.232  15.738  0.00  0.00    +0.000 A 
ATOM      5  C   UNL     1      35.206   0.014  16.782  0.00  0.00    +0.000 A 
ATOM      6  C   UNL     1      34.400  -0.983  17.330  0.00  0.00    +0.000 A 
ATOM      7  C   UNL     1      34.447  -2.254  16.824  0.00  0.00    +0.000 A 
ATOM      8  C   UNL     1      35.303  -2.520  15.769  0.00  0.00    +0.000 A 
ATOM      9  C   UNL     1      36.102  -1.511  15.232  0.00  0.00    +0.000 A 
ATOM     10  N   UNL     1      36.941  -1.737  14.211  0.00  0.00    +0.000 NA
ENDROOT
BRANCH   1  14
ATOM     11  C   UNL     1      40.303  -1.818  10.498  0.00  0.00    +0.000 A 
ATOM     12  C   UNL     1      39.969  -2.721  11.468  0.00  0.00    +0.000 A 
ATOM     13  C   UNL     1      39.127  -2.351  12.490  0.00  0.00    +0.000 A 
ATOM     14  C   UNL     1      38.591  -1.092  12.591  0.00  0.00    +0.000 A 
ATOM     15  C   UNL     1      38.934  -0.189  11.607  0.00  0.00    +0.000 A 
ATOM     16  C   UNL     1      39.781  -0.549  10.571  0.00  0.00    +0.000 A 
BRANCH  11  17
ATOM     17  O   UNL     1      41.140  -2.146   9.459  0.00  0.00    +0.000 OA
BRANCH  17  19
ATOM     18  C   UNL     1      41.108  -4.197   8.186  0.00  0.00    +0.000 C 
ATOM     19  C   UNL     1      41.683  -3.431   9.347  0.00  0.00    +0.000 C 
ENDBRANCH  17  19
ENDBRANCH  11  17
ENDBRANCH   1  14
BRANCH   3  20
ATOM     20  C   UNL     1      36.726   2.158  15.841  0.00  0.00    +0.000 C 
ATOM     21  O   UNL     1      35.735   2.876  15.558  0.00  0.00    +0.000 OA
ATOM     22  N   UNL     1      37.706   2.674  16.711  0.00  0.00    +0.000 NA
BRANCH  22  23
ATOM     23  N   UNL     1      37.650   3.947  17.288  0.00  0.00    +0.000 NA
ATOM     24  C   UNL     1      38.390   4.934  16.900  0.00  0.00    +0.000 C 
ATOM     25  C   UNL     1      39.329   4.680  15.793  0.00  0.00    +0.000 C 
BRANCH  24  26
ATOM     26  C   UNL     1      38.300   6.255  17.535  0.00  0.00    +0.000 A 
ATOM     27  C   UNL     1      38.094   7.434  16.853  0.00  0.00    +0.000 A 
ATOM     28  C   UNL     1      38.069   8.464  17.798  0.00  0.00    +0.000 A 
ATOM     29  C   UNL     1      38.266   7.826  19.007  0.00  0.00    +0.000 A 
ATOM     30  C   UNL     1      38.312   8.558  20.300  0.00  0.00    +0.000 C 
ATOM     31  O   UNL     1      38.397   6.526  18.803  0.00  0.00    +0.000 OA
ENDBRANCH  24  26
ENDBRANCH  22  23
ENDBRANCH   3  20
TORSDOF 6
ENDMDL
MODEL 9
REMARK VINA RESULT:      -7.4      4.728      8.806
REMARK  Name = 
REMARK  6 active torsions:
REMARK  status: ('A' for Active; 'I' for Inactive)
REMARK    1  A    between atoms: C_2  and  O_3
REMARK    2  A    between atoms: O_3  and  C_4
REMARK    3  A    between atoms: C_7  and  C_8
REMARK    4  A    between atoms: C_10  and  C_11
REMARK    5  A    between atoms: N_13  and  N_14
REMARK    6  A    between atoms: C_15  and  C_17
REMARK                            x       y       z     vdW  Elec       q    Type
REMARK                         _______ _______ _______ _____ _____    ______ ____
ROOT
ATOM      1  C   UNL     1      38.835  -0.553  15.051  0.00  0.00    +0.000 A 
ATOM      2  C   UNL     1      38.340   0.755  14.992  0.00  0.00    +0.000 A 
ATOM      3  C   UNL     1      37.092   1.012  15.506  0.00  0.00    +0.000 A 
ATOM      4  C   UNL     1      36.401  -0.048  16.055  0.00  0.00    +0.000 A 
ATOM      5  C   UNL     1      35.156   0.182  16.575  0.00  0.00    +0.000 A 
ATOM      6  C   UNL     1      34.393  -0.835  17.147  0.00  0.00    +0.000 A 
ATOM      7  C   UNL     1      34.886  -2.110  17.200  0.00  0.00    +0.000 A 
ATOM      8  C   UNL     1      36.143  -2.362  16.680  0.00  0.00    +0.000 A 
ATOM      9  C   UNL     1      36.894  -1.332  16.111  0.00  0.00    +0.000 A 
ATOM     10  N   UNL     1      38.115  -1.543  15.598  0.00  0.00    +0.000 NA
ENDROOT
BRANCH   1  14
ATOM     11  C   UNL     1      42.663  -1.563  13.506  0.00  0.00    +0.000 A 
ATOM     12  C   UNL     1      41.806  -2.524  13.965  0.00  0.00    +0.000 A 
ATOM     13  C   UNL     1      40.574  -2.166  14.459  0.00  0.00    +0.000 A 
ATOM     14  C   UNL     1      40.148  -0.863  14.518  0.00  0.00    +0.000 A 
ATOM     15  C   UNL     1      41.020   0.098  14.051  0.00  0.00    +0.000 A 
ATOM     16  C   UNL     1      42.265  -0.249  13.551  0.00  0.00    +0.000 A 
BRANCH  11  17
ATOM     17  O   UNL     1      43.902  -1.878  13.004  0.00  0.00    +0.000 OA
BRANCH  17  19
ATOM     18  C   UNL     1      45.444  -3.714  13.279  0.00  0.00    +0.000 C 
ATOM     19  C   UNL     1      44.210  -3.182  12.602  0.00  0.00    +0.000 C 
ENDBRANCH  17  19
ENDBRANCH  11  17
ENDBRANCH   1  14
BRANCH   3  20
ATOM     20  C   UNL     1      36.506   2.365  15.478  0.00  0.00    +0.000 C 
ATOM     21  O   UNL     1      36.642   3.109  16.481  0.00  0.00    +0.000 OA
ATOM     22  N   UNL     1      35.796   2.858  14.366  0.00  0.00    +0.000 NA
BRANCH  22  23
ATOM     23  N   UNL     1      35.226   4.133  14.302  0.00  0.00    +0.000 NA
ATOM     24  C   UNL     1      35.628   5.049  13.483  0.00  0.00    +0.000 C 
ATOM     25  C   UNL     1      36.743   4.708  12.582  0.00  0.00    +0.000 C 
BRANCH  24  26
ATOM     26  C   UNL     1      35.000   6.376  13.449  0.00  0.00    +0.000 A 
ATOM     27  C   UNL     1      34.007   6.791  14.308  0.00  0.00    +0.000 A 
ATOM     28  C   UNL     1      33.675   8.103  13.961  0.00  0.00    +0.000 A 
ATOM     29  C   UNL     1      34.503   8.397  12.895  0.00  0.00    +0.000 A 
ATOM     30  C   UNL     1      34.481   9.712  12.203  0.00  0.00    +0.000 C 
ATOM     31  O   UNL     1      35.266   7.350  12.629  0.00  0.00    +0.000 OA
ENDBRANCH  24  26
ENDBRANCH  22  23
ENDBRANCH   3  20
TORSDOF 6
ENDMDL
MODEL 10
REMARK VINA RESULT:      -7.3     28.803     31.425
REMARK  Name = 
REMARK  6 active torsions:
REMARK  status: ('A' for Active; 'I' for Inactive)
REMARK    1  A    between atoms: C_2  and  O_3
REMARK    2  A    between atoms: O_3  and  C_4
REMARK    3  A    between atoms: C_7  and  C_8
REMARK    4  A    between atoms: C_10  and  C_11
REMARK    5  A    between atoms: N_13  and  N_14
REMARK    6  A    between atoms: C_15  and  C_17
REMARK                            x       y       z     vdW  Elec       q    Type
REMARK                         _______ _______ _______ _____ _____    ______ ____
ROOT
ATOM      1  C   UNL     1      28.001   6.772  44.248  0.00  0.00    +0.000 A 
ATOM      2  C   UNL     1      26.689   7.238  44.096  0.00  0.00    +0.000 A 
ATOM      3  C   UNL     1      26.425   8.151  43.104  0.00  0.00    +0.000 A 
ATOM      4  C   UNL     1      27.481   8.553  42.314  0.00  0.00    +0.000 A 
ATOM      5  C   UNL     1      27.243   9.462  41.317  0.00  0.00    +0.000 A 
ATOM      6  C   UNL     1      28.256   9.920  40.475  0.00  0.00    +0.000 A 
ATOM      7  C   UNL     1      29.534   9.458  40.633  0.00  0.00    +0.000 A 
ATOM      8  C   UNL     1      29.793   8.539  41.634  0.00  0.00    +0.000 A 
ATOM      9  C   UNL     1      28.768   8.091  42.468  0.00  0.00    +0.000 A 
ATOM     10  N   UNL     1      28.987   7.202  43.447  0.00  0.00    +0.000 NA
ENDROOT
BRANCH   1  14
ATOM     11  C   UNL     1      28.932   3.871  47.211  0.00  0.00    +0.000 A 
ATOM     12  C   UNL     1      28.789   3.524  45.897  0.00  0.00    +0.000 A 
ATOM     13  C   UNL     1      28.488   4.486  44.961  0.00  0.00    +0.000 A 
ATOM     14  C   UNL     1      28.318   5.808  45.285  0.00  0.00    +0.000 A 
ATOM     15  C   UNL     1      28.464   6.147  46.613  0.00  0.00    +0.000 A 
ATOM     16  C   UNL     1      28.768   5.188  47.566  0.00  0.00    +0.000 A 
BRANCH  11  17
ATOM     17  O   UNL     1      29.233   2.942  48.177  0.00  0.00    +0.000 OA
BRANCH  17  19
ATOM     18  C   UNL     1      31.621   2.953  48.533  0.00  0.00    +0.000 C 
ATOM     19  C   UNL     1      30.403   2.178  48.105  0.00  0.00    +0.000 C 
ENDBRANCH  17  19
ENDBRANCH  11  17
ENDBRANCH   1  14
BRANCH   3  20
ATOM     20  C   UNL     1      25.068   8.686  42.885  0.00  0.00    +0.000 C 
ATOM     21  O   UNL     1      24.209   7.958  42.327  0.00  0.00    +0.000 OA
ATOM     22  N   UNL     1      24.695   9.986  43.278  0.00  0.00    +0.000 NA
BRANCH  22  23
ATOM     23  N   UNL     1      23.420  10.528  43.087  0.00  0.00    +0.000 NA
ATOM     24  C   UNL     1      22.640  10.863  44.061  0.00  0.00    +0.000 C 
ATOM     25  C   UNL     1      23.140  10.654  45.431  0.00  0.00    +0.000 C 
BRANCH  24  26
ATOM     26  C   UNL     1      21.307  11.429  43.816  0.00  0.00    +0.000 A 
ATOM     27  C   UNL     1      20.470  11.907  44.800  0.00  0.00    +0.000 A 
ATOM     28  C   UNL     1      19.304  12.358  44.175  0.00  0.00    +0.000 A 
ATOM     29  C   UNL     1      19.520  12.117  42.832  0.00  0.00    +0.000 A 
ATOM     30  C   UNL     1      18.516  12.451  41.788  0.00  0.00    +0.000 C 
ATOM     31  O   UNL     1      20.712  11.570  42.669  0.00  0.00    +0.000 OA
ENDBRANCH  24  26
ENDBRANCH  22  23
ENDBRANCH   3  20
TORSDOF 6
ENDMDL
