MODEL 1
REMARK VINA RESULT:      -8.0      0.000      0.000
REMARK  Name = 
REMARK  6 active torsions:
REMARK  status: ('A' for Active; 'I' for Inactive)
REMARK    1  A    between atoms: C_2  and  C_3
REMARK    2  A    between atoms: C_3  and  C_4
REMARK    3  A    between atoms: C_4  and  N_5
REMARK    4  A    between atoms: C_6  and  C_8
REMARK    5  A    between atoms: N_14  and  C_15
REMARK    6  A    between atoms: C_15  and  C_16
REMARK                            x       y       z     vdW  Elec       q    Type
REMARK                         _______ _______ _______ _____ _____    ______ ____
ROOT
ATOM      1  C   UNL     1      37.537   3.717  16.226  0.00  0.00    +0.000 A 
ATOM      2  C   UNL     1      37.748   3.918  14.882  0.00  0.00    +0.000 A 
ATOM      3  C   UNL     1      38.724   4.771  14.448  0.00  0.00    +0.000 A 
ATOM      4  C   UNL     1      39.515   5.444  15.356  0.00  0.00    +0.000 A 
ATOM      5  C   UNL     1      39.321   5.257  16.732  0.00  0.00    +0.000 A 
ATOM      6  C   UNL     1      38.324   4.388  17.123  0.00  0.00    +0.000 A 
ATOM      7  N   UNL     1      40.005   5.835  17.830  0.00  0.00    +0.000 N 
ATOM      8  C   UNL     1      41.302   6.369  17.884  0.00  0.00    +0.000 C 
ATOM      9  O   UNL     1      41.649   6.783  19.023  0.00  0.00    +0.000 OA
ATOM     10  C   UNL     1      42.339   6.542  16.874  0.00  0.00    +0.000 A 
ATOM     11  C   UNL     1      43.614   6.661  17.382  0.00  0.00    +0.000 A 
ATOM     12  C   UNL     1      44.708   6.829  16.591  0.00  0.00    +0.000 A 
ATOM     13  C   UNL     1      44.536   6.880  15.226  0.00  0.00    +0.000 A 
ATOM     14  C   UNL     1      43.271   6.762  14.712  0.00  0.00    +0.000 A 
ATOM     15  C   UNL     1      42.159   6.592  15.511  0.00  0.00    +0.000 A 
ATOM     16  S   UNL     1      40.692   6.475  14.534  0.00  0.00    +0.000 S 
ENDROOT
BRANCH   1  18
ATOM     17  N   UNL     1      36.775   1.628  17.404  0.00  0.00    +0.000 NA
ATOM     18  C   UNL     1      36.476   2.792  16.649  0.00  0.00    +0.000 C 
ATOM     19  O   UNL     1      35.281   3.029  16.340  0.00  0.00    +0.000 OA
BRANCH  17  20
ATOM     20  C   UNL     1      35.684   0.742  17.798  0.00  0.00    +0.000 C 
BRANCH  20  21
ATOM     21  C   UNL     1      36.197  -0.141  18.895  0.00  0.00    +0.000 C 
BRANCH  21  23
ATOM     22  C   UNL     1      37.617  -2.069  19.528  0.00  0.00    +0.000 C 
ATOM     23  C   UNL     1      37.062  -1.260  18.394  0.00  0.00    +0.000 C 
ENDBRANCH  21  23
ENDBRANCH  20  21
ENDBRANCH  17  20
ENDBRANCH   1  18
BRANCH   7  24
ATOM     24  C   UNL     1      39.234   5.863  19.053  0.00  0.00    +0.000 C 
BRANCH  24  25
ATOM     25  C   UNL     1      38.663   7.208  19.316  0.00  0.00    +0.000 A 
ATOM     26  C   UNL     1      38.948   7.840  20.506  0.00  0.00    +0.000 A 
ATOM     27  C   UNL     1      38.430   9.109  20.791  0.00  0.00    +0.000 A 
ATOM     28  C   UNL     1      37.633   9.720  19.872  0.00  0.00    +0.000 A 
ATOM     29  C   UNL     1      37.333   9.118  18.680  0.00  0.00    +0.000 A 
ATOM     30  C   UNL     1      36.451   9.804  17.674  0.00  0.00    +0.000 C 
ATOM     31  C   UNL     1      37.853   7.869  18.420  0.00  0.00    +0.000 A 
ENDBRANCH  24  25
ENDBRANCH   7  24
TORSDOF 6
ENDMDL
MODEL 2
REMARK VINA RESULT:      -7.8      1.640      2.093
REMARK  Name = 
REMARK  6 active torsions:
REMARK  status: ('A' for Active; 'I' for Inactive)
REMARK    1  A    between atoms: C_2  and  C_3
REMARK    2  A    between atoms: C_3  and  C_4
REMARK    3  A    between atoms: C_4  and  N_5
REMARK    4  A    between atoms: C_6  and  C_8
REMARK    5  A    between atoms: N_14  and  C_15
REMARK    6  A    between atoms: C_15  and  C_16
REMARK                            x       y       z     vdW  Elec       q    Type
REMARK                         _______ _______ _______ _____ _____    ______ ____
ROOT
ATOM      1  C   UNL     1      38.552   4.519  16.457  0.00  0.00    +0.000 A 
ATOM      2  C   UNL     1      39.124   4.758  15.230  0.00  0.00    +0.000 A 
ATOM      3  C   UNL     1      40.248   5.529  15.121  0.00  0.00    +0.000 A 
ATOM      4  C   UNL     1      40.825   6.081  16.246  0.00  0.00    +0.000 A 
ATOM      5  C   UNL     1      40.262   5.853  17.509  0.00  0.00    +0.000 A 
ATOM      6  C   UNL     1      39.128   5.070  17.570  0.00  0.00    +0.000 A 
ATOM      7  N   UNL     1      40.678   6.313  18.784  0.00  0.00    +0.000 N 
ATOM      8  C   UNL     1      41.955   6.714  19.206  0.00  0.00    +0.000 C 
ATOM      9  O   UNL     1      42.024   7.042  20.421  0.00  0.00    +0.000 OA
ATOM     10  C   UNL     1      43.231   6.829  18.512  0.00  0.00    +0.000 A 
ATOM     11  C   UNL     1      44.334   6.801  19.338  0.00  0.00    +0.000 A 
ATOM     12  C   UNL     1      45.607   6.895  18.869  0.00  0.00    +0.000 A 
ATOM     13  C   UNL     1      45.805   7.023  17.513  0.00  0.00    +0.000 A 
ATOM     14  C   UNL     1      44.714   7.052  16.683  0.00  0.00    +0.000 A 
ATOM     15  C   UNL     1      43.421   6.957  17.155  0.00  0.00    +0.000 A 
ATOM     16  S   UNL     1      42.258   7.028  15.827  0.00  0.00    +0.000 S 
ENDROOT
BRANCH   1  18
ATOM     17  N   UNL     1      36.390   3.684  15.478  0.00  0.00    +0.000 NA
ATOM     18  C   UNL     1      37.344   3.685  16.529  0.00  0.00    +0.000 C 
ATOM     19  O   UNL     1      37.144   2.959  17.535  0.00  0.00    +0.000 OA
BRANCH  17  20
ATOM     20  C   UNL     1      35.206   2.838  15.599  0.00  0.00    +0.000 C 
BRANCH  20  21
ATOM     21  C   UNL     1      35.459   1.596  14.799  0.00  0.00    +0.000 C 
BRANCH  21  23
ATOM     22  C   UNL     1      34.868   0.446  16.912  0.00  0.00    +0.000 C 
ATOM     23  C   UNL     1      35.678   0.380  15.653  0.00  0.00    +0.000 C 
ENDBRANCH  21  23
ENDBRANCH  20  21
ENDBRANCH  17  20
ENDBRANCH   1  18
BRANCH   7  24
ATOM     24  C   UNL     1      39.618   6.363  19.766  0.00  0.00    +0.000 C 
BRANCH  24  25
ATOM     25  C   UNL     1      38.917   7.671  19.756  0.00  0.00    +0.000 A 
ATOM     26  C   UNL     1      39.162   8.574  20.768  0.00  0.00    +0.000 A 
ATOM     27  C   UNL     1      38.522   9.818  20.795  0.00  0.00    +0.000 A 
ATOM     28  C   UNL     1      37.645  10.133  19.802  0.00  0.00    +0.000 A 
ATOM     29  C   UNL     1      37.382   9.257  18.783  0.00  0.00    +0.000 A 
ATOM     30  C   UNL     1      36.411   9.618  17.693  0.00  0.00    +0.000 C 
ATOM     31  C   UNL     1      38.023   8.038  18.777  0.00  0.00    +0.000 A 
ENDBRANCH  24  25
ENDBRANCH   7  24
TORSDOF 6
ENDMDL
MODEL 3
REMARK VINA RESULT:      -7.6     23.084     26.342
REMARK  Name = 
REMARK  6 active torsions:
REMARK  status: ('A' for Active; 'I' for Inactive)
REMARK    1  A    between atoms: C_2  and  C_3
REMARK    2  A    between atoms: C_3  and  C_4
REMARK    3  A    between atoms: C_4  and  N_5
REMARK    4  A    between atoms: C_6  and  C_8
REMARK    5  A    between atoms: N_14  and  C_15
REMARK    6  A    between atoms: C_15  and  C_16
REMARK                            x       y       z     vdW  Elec       q    Type
REMARK                         _______ _______ _______ _____ _____    ______ ____
ROOT
ATOM      1  C   UNL     1      24.678  16.274  38.440  0.00  0.00    +0.000 A 
ATOM      2  C   UNL     1      24.428  17.567  38.839  0.00  0.00    +0.000 A 
ATOM      3  C   UNL     1      24.483  18.597  37.942  0.00  0.00    +0.000 A 
ATOM      4  C   UNL     1      24.789  18.354  36.620  0.00  0.00    +0.000 A 
ATOM      5  C   UNL     1      25.047  17.046  36.187  0.00  0.00    +0.000 A 
ATOM      6  C   UNL     1      24.982  16.039  37.127  0.00  0.00    +0.000 A 
ATOM      7  N   UNL     1      25.378  16.568  34.894  0.00  0.00    +0.000 N 
ATOM      8  C   UNL     1      25.107  17.141  33.642  0.00  0.00    +0.000 C 
ATOM      9  O   UNL     1      25.500  16.457  32.659  0.00  0.00    +0.000 OA
ATOM     10  C   UNL     1      24.454  18.383  33.248  0.00  0.00    +0.000 A 
ATOM     11  C   UNL     1      23.960  18.384  31.961  0.00  0.00    +0.000 A 
ATOM     12  C   UNL     1      23.319  19.454  31.420  0.00  0.00    +0.000 A 
ATOM     13  C   UNL     1      23.155  20.585  32.187  0.00  0.00    +0.000 A 
ATOM     14  C   UNL     1      23.643  20.594  33.469  0.00  0.00    +0.000 A 
ATOM     15  C   UNL     1      24.294  19.510  34.021  0.00  0.00    +0.000 A 
ATOM     16  S   UNL     1      24.792  19.852  35.681  0.00  0.00    +0.000 S 
ENDROOT
BRANCH   1  18
ATOM     17  N   UNL     1      25.769  14.765  40.131  0.00  0.00    +0.000 NA
ATOM     18  C   UNL     1      24.610  15.196  39.436  0.00  0.00    +0.000 C 
ATOM     19  O   UNL     1      23.509  14.641  39.683  0.00  0.00    +0.000 OA
BRANCH  17  20
ATOM     20  C   UNL     1      25.648  13.689  41.110  0.00  0.00    +0.000 C 
BRANCH  20  21
ATOM     21  C   UNL     1      26.535  12.569  40.660  0.00  0.00    +0.000 C 
BRANCH  21  23
ATOM     22  C   UNL     1      27.152  10.198  41.028  0.00  0.00    +0.000 C 
ATOM     23  C   UNL     1      26.629  11.453  41.659  0.00  0.00    +0.000 C 
ENDBRANCH  21  23
ENDBRANCH  20  21
ENDBRANCH  17  20
ENDBRANCH   1  18
BRANCH   7  24
ATOM     24  C   UNL     1      26.094  15.312  34.898  0.00  0.00    +0.000 C 
BRANCH  24  25
ATOM     25  C   UNL     1      27.536  15.498  35.198  0.00  0.00    +0.000 A 
ATOM     26  C   UNL     1      28.391  15.875  34.186  0.00  0.00    +0.000 A 
ATOM     27  C   UNL     1      29.757  16.061  34.428  0.00  0.00    +0.000 A 
ATOM     28  C   UNL     1      30.239  15.865  35.686  0.00  0.00    +0.000 A 
ATOM     29  C   UNL     1      29.414  15.491  36.712  0.00  0.00    +0.000 A 
ATOM     30  C   UNL     1      29.960  15.277  38.097  0.00  0.00    +0.000 C 
ATOM     31  C   UNL     1      28.073  15.313  36.451  0.00  0.00    +0.000 A 
ENDBRANCH  24  25
ENDBRANCH   7  24
TORSDOF 6
ENDMDL
MODEL 4
REMARK VINA RESULT:      -7.6      2.236      3.133
REMARK  Name = 
REMARK  6 active torsions:
REMARK  status: ('A' for Active; 'I' for Inactive)
REMARK    1  A    between atoms: C_2  and  C_3
REMARK    2  A    between atoms: C_3  and  C_4
REMARK    3  A    between atoms: C_4  and  N_5
REMARK    4  A    between atoms: C_6  and  C_8
REMARK    5  A    between atoms: N_14  and  C_15
REMARK    6  A    between atoms: C_15  and  C_16
REMARK                            x       y       z     vdW  Elec       q    Type
REMARK                         _______ _______ _______ _____ _____    ______ ____
ROOT
ATOM      1  C   UNL     1      35.888   2.921  15.882  0.00  0.00    +0.000 A 
ATOM      2  C   UNL     1      35.001   3.447  14.971  0.00  0.00    +0.000 A 
ATOM      3  C   UNL     1      35.290   4.606  14.306  0.00  0.00    +0.000 A 
ATOM      4  C   UNL     1      36.478   5.266  14.540  0.00  0.00    +0.000 A 
ATOM      5  C   UNL     1      37.399   4.751  15.463  0.00  0.00    +0.000 A 
ATOM      6  C   UNL     1      37.065   3.580  16.111  0.00  0.00    +0.000 A 
ATOM      7  N   UNL     1      38.664   5.254  15.857  0.00  0.00    +0.000 N 
ATOM      8  C   UNL     1      39.538   6.100  15.158  0.00  0.00    +0.000 C 
ATOM      9  O   UNL     1      40.618   6.347  15.758  0.00  0.00    +0.000 OA
ATOM     10  C   UNL     1      39.444   6.757  13.860  0.00  0.00    +0.000 A 
ATOM     11  C   UNL     1      40.658   7.114  13.313  0.00  0.00    +0.000 A 
ATOM     12  C   UNL     1      40.768   7.736  12.109  0.00  0.00    +0.000 A 
ATOM     13  C   UNL     1      39.620   8.021  11.404  0.00  0.00    +0.000 A 
ATOM     14  C   UNL     1      38.408   7.669  11.940  0.00  0.00    +0.000 A 
ATOM     15  C   UNL     1      38.293   7.038  13.161  0.00  0.00    +0.000 A 
ATOM     16  S   UNL     1      36.598   6.729  13.554  0.00  0.00    +0.000 S 
ENDROOT
BRANCH   1  18
ATOM     17  N   UNL     1      36.518   0.683  16.845  0.00  0.00    +0.000 NA
ATOM     18  C   UNL     1      35.538   1.674  16.576  0.00  0.00    +0.000 C 
ATOM     19  O   UNL     1      34.352   1.473  16.940  0.00  0.00    +0.000 OA
BRANCH  17  20
ATOM     20  C   UNL     1      36.118  -0.538  17.536  0.00  0.00    +0.000 C 
BRANCH  20  21
ATOM     21  C   UNL     1      36.518  -0.392  18.973  0.00  0.00    +0.000 C 
BRANCH  21  23
ATOM     22  C   UNL     1      37.882  -2.358  18.331  0.00  0.00    +0.000 C 
ATOM     23  C   UNL     1      37.362  -1.531  19.468  0.00  0.00    +0.000 C 
ENDBRANCH  21  23
ENDBRANCH  20  21
ENDBRANCH  17  20
ENDBRANCH   1  18
BRANCH   7  24
ATOM     24  C   UNL     1      39.088   4.814  17.168  0.00  0.00    +0.000 C 
BRANCH  24  25
ATOM     25  C   UNL     1      38.993   5.903  18.173  0.00  0.00    +0.000 A 
ATOM     26  C   UNL     1      39.911   5.954  19.199  0.00  0.00    +0.000 A 
ATOM     27  C   UNL     1      39.856   6.965  20.166  0.00  0.00    +0.000 A 
ATOM     28  C   UNL     1      38.877   7.907  20.083  0.00  0.00    +0.000 A 
ATOM     29  C   UNL     1      37.950   7.882  19.076  0.00  0.00    +0.000 A 
ATOM     30  C   UNL     1      36.873   8.929  18.998  0.00  0.00    +0.000 C 
ATOM     31  C   UNL     1      38.023   6.879  18.135  0.00  0.00    +0.000 A 
ENDBRANCH  24  25
ENDBRANCH   7  24
TORSDOF 6
ENDMDL
MODEL 5
REMARK VINA RESULT:      -7.4      5.622      9.345
REMARK  Name = 
REMARK  6 active torsions:
REMARK  status: ('A' for Active; 'I' for Inactive)
REMARK    1  A    between atoms: C_2  and  C_3
REMARK    2  A    between atoms: C_3  and  C_4
REMARK    3  A    between atoms: C_4  and  N_5
REMARK    4  A    between atoms: C_6  and  C_8
REMARK    5  A    between atoms: N_14  and  C_15
REMARK    6  A    between atoms: C_15  and  C_16
REMARK                            x       y       z     vdW  Elec       q    Type
REMARK                         _______ _______ _______ _____ _____    ______ ____
ROOT
ATOM      1  C   UNL     1      36.030   2.746  14.536  0.00  0.00    +0.000 A 
ATOM      2  C   UNL     1      35.202   2.940  15.617  0.00  0.00    +0.000 A 
ATOM      3  C   UNL     1      35.031   1.956  16.551  0.00  0.00    +0.000 A 
ATOM      4  C   UNL     1      35.690   0.751  16.420  0.00  0.00    +0.000 A 
ATOM      5  C   UNL     1      36.539   0.528  15.328  0.00  0.00    +0.000 A 
ATOM      6  C   UNL     1      36.680   1.549  14.411  0.00  0.00    +0.000 A 
ATOM      7  N   UNL     1      37.306  -0.617  14.995  0.00  0.00    +0.000 N 
ATOM      8  C   UNL     1      37.793  -1.631  15.834  0.00  0.00    +0.000 C 
ATOM      9  O   UNL     1      38.481  -2.509  15.248  0.00  0.00    +0.000 OA
ATOM     10  C   UNL     1      37.659  -1.874  17.265  0.00  0.00    +0.000 A 
ATOM     11  C   UNL     1      38.639  -2.683  17.800  0.00  0.00    +0.000 A 
ATOM     12  C   UNL     1      38.678  -3.019  19.117  0.00  0.00    +0.000 A 
ATOM     13  C   UNL     1      37.699  -2.531  19.954  0.00  0.00    +0.000 A 
ATOM     14  C   UNL     1      36.721  -1.726  19.431  0.00  0.00    +0.000 A 
ATOM     15  C   UNL     1      36.678  -1.383  18.095  0.00  0.00    +0.000 A 
ATOM     16  S   UNL     1      35.294  -0.338  17.756  0.00  0.00    +0.000 S 
ENDROOT
BRANCH   1  18
ATOM     17  N   UNL     1      35.421   5.022  13.653  0.00  0.00    +0.000 NA
ATOM     18  C   UNL     1      36.184   3.830  13.555  0.00  0.00    +0.000 C 
ATOM     19  O   UNL     1      37.003   3.706  12.610  0.00  0.00    +0.000 OA
BRANCH  17  20
ATOM     20  C   UNL     1      35.612   6.068  12.652  0.00  0.00    +0.000 C 
BRANCH  20  21
ATOM     21  C   UNL     1      34.417   6.971  12.713  0.00  0.00    +0.000 C 
BRANCH  21  23
ATOM     22  C   UNL     1      33.695   8.166  14.759  0.00  0.00    +0.000 C 
ATOM     23  C   UNL     1      33.666   6.868  14.009  0.00  0.00    +0.000 C 
ENDBRANCH  21  23
ENDBRANCH  20  21
ENDBRANCH  17  20
ENDBRANCH   1  18
BRANCH   7  24
ATOM     24  C   UNL     1      37.616  -0.727  13.587  0.00  0.00    +0.000 C 
BRANCH  24  25
ATOM     25  C   UNL     1      39.070  -0.572  13.327  0.00  0.00    +0.000 A 
ATOM     26  C   UNL     1      39.784   0.369  14.036  0.00  0.00    +0.000 A 
ATOM     27  C   UNL     1      41.156   0.546  13.821  0.00  0.00    +0.000 A 
ATOM     28  C   UNL     1      41.785  -0.228  12.895  0.00  0.00    +0.000 A 
ATOM     29  C   UNL     1      41.102  -1.172  12.175  0.00  0.00    +0.000 A 
ATOM     30  C   UNL     1      41.811  -2.020  11.156  0.00  0.00    +0.000 C 
ATOM     31  C   UNL     1      39.753  -1.329  12.403  0.00  0.00    +0.000 A 
ENDBRANCH  24  25
ENDBRANCH   7  24
TORSDOF 6
ENDMDL
MODEL 6
REMARK VINA RESULT:      -7.4      5.295      8.094
REMARK  Name = 
REMARK  6 active torsions:
REMARK  status: ('A' for Active; 'I' for Inactive)
REMARK    1  A    between atoms: C_2  and  C_3
REMARK    2  A    between atoms: C_3  and  C_4
REMARK    3  A    between atoms: C_4  and  N_5
REMARK    4  A    between atoms: C_6  and  C_8
REMARK    5  A    between atoms: N_14  and  C_15
REMARK    6  A    between atoms: C_15  and  C_16
REMARK                            x       y       z     vdW  Elec       q    Type
REMARK                         _______ _______ _______ _____ _____    ______ ____
ROOT
ATOM      1  C   UNL     1      35.095  -0.419  16.655  0.00  0.00    +0.000 A 
ATOM      2  C   UNL     1      35.140   0.617  17.559  0.00  0.00    +0.000 A 
ATOM      3  C   UNL     1      35.845   1.756  17.283  0.00  0.00    +0.000 A 
ATOM      4  C   UNL     1      36.523   1.882  16.088  0.00  0.00    +0.000 A 
ATOM      5  C   UNL     1      36.494   0.842  15.149  0.00  0.00    +0.000 A 
ATOM      6  C   UNL     1      35.771  -0.288  15.472  0.00  0.00    +0.000 A 
ATOM      7  N   UNL     1      37.108   0.753  13.875  0.00  0.00    +0.000 N 
ATOM      8  C   UNL     1      37.513   1.785  13.014  0.00  0.00    +0.000 C 
ATOM      9  O   UNL     1      38.002   1.391  11.921  0.00  0.00    +0.000 OA
ATOM     10  C   UNL     1      37.482   3.237  13.134  0.00  0.00    +0.000 A 
ATOM     11  C   UNL     1      37.525   3.909  11.932  0.00  0.00    +0.000 A 
ATOM     12  C   UNL     1      37.504   5.266  11.846  0.00  0.00    +0.000 A 
ATOM     13  C   UNL     1      37.436   6.002  13.008  0.00  0.00    +0.000 A 
ATOM     14  C   UNL     1      37.393   5.342  14.209  0.00  0.00    +0.000 A 
ATOM     15  C   UNL     1      37.414   3.965  14.299  0.00  0.00    +0.000 A 
ATOM     16  S   UNL     1      37.347   3.443  15.986  0.00  0.00    +0.000 S 
ENDROOT
BRANCH   1  18
ATOM     17  N   UNL     1      32.947  -1.550  17.312  0.00  0.00    +0.000 NA
ATOM     18  C   UNL     1      34.327  -1.625  16.992  0.00  0.00    +0.000 C 
ATOM     19  O   UNL     1      34.896  -2.746  17.001  0.00  0.00    +0.000 OA
BRANCH  17  20
ATOM     20  C   UNL     1      32.229  -2.778  17.641  0.00  0.00    +0.000 C 
BRANCH  20  21
ATOM     21  C   UNL     1      30.820  -2.397  17.981  0.00  0.00    +0.000 C 
BRANCH  21  23
ATOM     22  C   UNL     1      28.837  -2.860  19.392  0.00  0.00    +0.000 C 
ATOM     23  C   UNL     1      30.143  -3.390  18.882  0.00  0.00    +0.000 C 
ENDBRANCH  21  23
ENDBRANCH  20  21
ENDBRANCH  17  20
ENDBRANCH   1  18
BRANCH   7  24
ATOM     24  C   UNL     1      37.334  -0.602  13.424  0.00  0.00    +0.000 C 
BRANCH  24  25
ATOM     25  C   UNL     1      38.560  -1.186  14.023  0.00  0.00    +0.000 A 
ATOM     26  C   UNL     1      38.456  -2.314  14.807  0.00  0.00    +0.000 A 
ATOM     27  C   UNL     1      39.589  -2.895  15.389  0.00  0.00    +0.000 A 
ATOM     28  C   UNL     1      40.808  -2.330  15.171  0.00  0.00    +0.000 A 
ATOM     29  C   UNL     1      40.944  -1.210  14.396  0.00  0.00    +0.000 A 
ATOM     30  C   UNL     1      42.297  -0.597  14.163  0.00  0.00    +0.000 C 
ATOM     31  C   UNL     1      39.816  -0.655  13.833  0.00  0.00    +0.000 A 
ENDBRANCH  24  25
ENDBRANCH   7  24
TORSDOF 6
ENDMDL
MODEL 7
REMARK VINA RESULT:      -7.3      3.574      6.095
REMARK  Name = 
REMARK  6 active torsions:
REMARK  status: ('A' for Active; 'I' for Inactive)
REMARK    1  A    between atoms: C_2  and  C_3
REMARK    2  A    between atoms: C_3  and  C_4
REMARK    3  A    between atoms: C_4  and  N_5
REMARK    4  A    between atoms: C_6  and  C_8
REMARK    5  A    between atoms: N_14  and  C_15
REMARK    6  A    between atoms: C_15  and  C_16
REMARK                            x       y       z     vdW  Elec       q    Type
REMARK                         _______ _______ _______ _____ _____    ______ ____
ROOT
ATOM      1  C   UNL     1      36.396   1.507  15.361  0.00  0.00    +0.000 A 
ATOM      2  C   UNL     1      35.104   1.877  15.656  0.00  0.00    +0.000 A 
ATOM      3  C   UNL     1      34.626   3.103  15.284  0.00  0.00    +0.000 A 
ATOM      4  C   UNL     1      35.437   3.990  14.606  0.00  0.00    +0.000 A 
ATOM      5  C   UNL     1      36.757   3.638  14.294  0.00  0.00    +0.000 A 
ATOM      6  C   UNL     1      37.196   2.391  14.690  0.00  0.00    +0.000 A 
ATOM      7  N   UNL     1      37.756   4.379  13.615  0.00  0.00    +0.000 N 
ATOM      8  C   UNL     1      37.608   5.428  12.694  0.00  0.00    +0.000 C 
ATOM      9  O   UNL     1      38.692   5.870  12.227  0.00  0.00    +0.000 OA
ATOM     10  C   UNL     1      36.437   6.114  12.163  0.00  0.00    +0.000 A 
ATOM     11  C   UNL     1      36.646   6.751  10.959  0.00  0.00    +0.000 A 
ATOM     12  C   UNL     1      35.669   7.442  10.313  0.00  0.00    +0.000 A 
ATOM     13  C   UNL     1      34.418   7.510  10.883  0.00  0.00    +0.000 A 
ATOM     14  C   UNL     1      34.201   6.880  12.081  0.00  0.00    +0.000 A 
ATOM     15  C   UNL     1      35.189   6.178  12.739  0.00  0.00    +0.000 A 
ATOM     16  S   UNL     1      34.577   5.492  14.249  0.00  0.00    +0.000 S 
ENDROOT
BRANCH   1  18
ATOM     17  N   UNL     1      38.245  -0.161  15.719  0.00  0.00    +0.000 NA
ATOM     18  C   UNL     1      36.869   0.180  15.780  0.00  0.00    +0.000 C 
ATOM     19  O   UNL     1      36.046  -0.673  16.199  0.00  0.00    +0.000 OA
BRANCH  17  20
ATOM     20  C   UNL     1      38.662  -1.493  16.146  0.00  0.00    +0.000 C 
BRANCH  20  21
ATOM     21  C   UNL     1      39.142  -2.224  14.929  0.00  0.00    +0.000 C 
BRANCH  21  23
ATOM     22  C   UNL     1      41.559  -1.899  14.495  0.00  0.00    +0.000 C 
ATOM     23  C   UNL     1      40.520  -2.799  15.092  0.00  0.00    +0.000 C 
ENDBRANCH  21  23
ENDBRANCH  20  21
ENDBRANCH  17  20
ENDBRANCH   1  18
BRANCH   7  24
ATOM     24  C   UNL     1      39.108   3.975  13.935  0.00  0.00    +0.000 C 
BRANCH  24  25
ATOM     25  C   UNL     1      39.678   4.782  15.041  0.00  0.00    +0.000 A 
ATOM     26  C   UNL     1      40.778   5.576  14.799  0.00  0.00    +0.000 A 
ATOM     27  C   UNL     1      41.346   6.353  15.816  0.00  0.00    +0.000 A 
ATOM     28  C   UNL     1      40.796   6.316  17.061  0.00  0.00    +0.000 A 
ATOM     29  C   UNL     1      39.703   5.538  17.333  0.00  0.00    +0.000 A 
ATOM     30  C   UNL     1      39.107   5.507  18.713  0.00  0.00    +0.000 C 
ATOM     31  C   UNL     1      39.161   4.782  16.317  0.00  0.00    +0.000 A 
ENDBRANCH  24  25
ENDBRANCH   7  24
TORSDOF 6
ENDMDL
MODEL 8
REMARK VINA RESULT:      -7.2      1.976      3.130
REMARK  Name = 
REMARK  6 active torsions:
REMARK  status: ('A' for Active; 'I' for Inactive)
REMARK    1  A    between atoms: C_2  and  C_3
REMARK    2  A    between atoms: C_3  and  C_4
REMARK    3  A    between atoms: C_4  and  N_5
REMARK    4  A    between atoms: C_6  and  C_8
REMARK    5  A    between atoms: N_14  and  C_15
REMARK    6  A    between atoms: C_15  and  C_16
REMARK                            x       y       z     vdW  Elec       q    Type
REMARK                         _______ _______ _______ _____ _____    ______ ____
ROOT
ATOM      1  C   UNL     1      39.581   5.131  15.698  0.00  0.00    +0.000 A 
ATOM      2  C   UNL     1      40.423   5.628  14.731  0.00  0.00    +0.000 A 
ATOM      3  C   UNL     1      41.518   6.372  15.073  0.00  0.00    +0.000 A 
ATOM      4  C   UNL     1      41.795   6.634  16.399  0.00  0.00    +0.000 A 
ATOM      5  C   UNL     1      40.954   6.139  17.404  0.00  0.00    +0.000 A 
ATOM      6  C   UNL     1      39.860   5.394  17.012  0.00  0.00    +0.000 A 
ATOM      7  N   UNL     1      41.042   6.281  18.812  0.00  0.00    +0.000 N 
ATOM      8  C   UNL     1      42.169   6.538  19.607  0.00  0.00    +0.000 C 
ATOM      9  O   UNL     1      41.938   6.576  20.845  0.00  0.00    +0.000 OA
ATOM     10  C   UNL     1      43.571   6.773  19.282  0.00  0.00    +0.000 A 
ATOM     11  C   UNL     1      44.446   6.525  20.317  0.00  0.00    +0.000 A 
ATOM     12  C   UNL     1      45.791   6.688  20.199  0.00  0.00    +0.000 A 
ATOM     13  C   UNL     1      46.302   7.118  18.996  0.00  0.00    +0.000 A 
ATOM     14  C   UNL     1      45.439   7.368  17.960  0.00  0.00    +0.000 A 
ATOM     15  C   UNL     1      44.075   7.204  18.076  0.00  0.00    +0.000 A 
ATOM     16  S   UNL     1      43.260   7.610  16.562  0.00  0.00    +0.000 S 
ENDROOT
BRANCH   1  18
ATOM     17  N   UNL     1      38.285   2.975  15.660  0.00  0.00    +0.000 NA
ATOM     18  C   UNL     1      38.415   4.337  15.287  0.00  0.00    +0.000 C 
ATOM     19  O   UNL     1      37.512   4.868  14.591  0.00  0.00    +0.000 OA
BRANCH  17  20
ATOM     20  C   UNL     1      37.107   2.231  15.225  0.00  0.00    +0.000 C 
BRANCH  20  21
ATOM     21  C   UNL     1      36.325   1.869  16.451  0.00  0.00    +0.000 C 
BRANCH  21  23
ATOM     22  C   UNL     1      34.580   2.958  15.072  0.00  0.00    +0.000 C 
ATOM     23  C   UNL     1      34.876   2.251  16.360  0.00  0.00    +0.000 C 
ENDBRANCH  21  23
ENDBRANCH  20  21
ENDBRANCH  17  20
ENDBRANCH   1  18
BRANCH   7  24
ATOM     24  C   UNL     1      39.777   6.134  19.498  0.00  0.00    +0.000 C 
BRANCH  24  25
ATOM     25  C   UNL     1      38.999   7.398  19.498  0.00  0.00    +0.000 A 
ATOM     26  C   UNL     1      37.963   7.552  18.603  0.00  0.00    +0.000 A 
ATOM     27  C   UNL     1      37.206   8.729  18.573  0.00  0.00    +0.000 A 
ATOM     28  C   UNL     1      37.504   9.731  19.445  0.00  0.00    +0.000 A 
ATOM     29  C   UNL     1      38.527   9.607  20.346  0.00  0.00    +0.000 A 
ATOM     30  C   UNL     1      38.846  10.723  21.303  0.00  0.00    +0.000 C 
ATOM     31  C   UNL     1      39.260   8.441  20.358  0.00  0.00    +0.000 A 
ENDBRANCH  24  25
ENDBRANCH   7  24
TORSDOF 6
ENDMDL
MODEL 9
REMARK VINA RESULT:      -7.2      5.205      7.144
REMARK  Name = 
REMARK  6 active torsions:
REMARK  status: ('A' for Active; 'I' for Inactive)
REMARK    1  A    between atoms: C_2  and  C_3
REMARK    2  A    between atoms: C_3  and  C_4
REMARK    3  A    between atoms: C_4  and  N_5
REMARK    4  A    between atoms: C_6  and  C_8
REMARK    5  A    between atoms: N_14  and  C_15
REMARK    6  A    between atoms: C_15  and  C_16
REMARK                            x       y       z     vdW  Elec       q    Type
REMARK                         _______ _______ _______ _____ _____    ______ ____
ROOT
ATOM      1  C   UNL     1      39.420  -2.160  15.240  0.00  0.00    +0.000 A 
ATOM      2  C   UNL     1      40.775  -2.193  15.005  0.00  0.00    +0.000 A 
ATOM      3  C   UNL     1      41.380  -1.211  14.271  0.00  0.00    +0.000 A 
ATOM      4  C   UNL     1      40.637  -0.170  13.755  0.00  0.00    +0.000 A 
ATOM      5  C   UNL     1      39.255  -0.112  13.980  0.00  0.00    +0.000 A 
ATOM      6  C   UNL     1      38.688  -1.125  14.726  0.00  0.00    +0.000 A 
ATOM      7  N   UNL     1      38.307   0.851  13.553  0.00  0.00    +0.000 N 
ATOM      8  C   UNL     1      38.505   2.194  13.201  0.00  0.00    +0.000 C 
ATOM      9  O   UNL     1      37.453   2.815  12.893  0.00  0.00    +0.000 OA
ATOM     10  C   UNL     1      39.701   3.025  13.120  0.00  0.00    +0.000 A 
ATOM     11  C   UNL     1      39.460   4.379  13.198  0.00  0.00    +0.000 A 
ATOM     12  C   UNL     1      40.452   5.308  13.141  0.00  0.00    +0.000 A 
ATOM     13  C   UNL     1      41.753   4.878  13.001  0.00  0.00    +0.000 A 
ATOM     14  C   UNL     1      42.002   3.532  12.923  0.00  0.00    +0.000 A 
ATOM     15  C   UNL     1      40.998   2.588  12.980  0.00  0.00    +0.000 A 
ATOM     16  S   UNL     1      41.660   0.955  12.852  0.00  0.00    +0.000 S 
ENDROOT
BRANCH   1  18
ATOM     17  N   UNL     1      37.499  -3.702  15.752  0.00  0.00    +0.000 NA
ATOM     18  C   UNL     1      38.809  -3.236  16.034  0.00  0.00    +0.000 C 
ATOM     19  O   UNL     1      39.452  -3.757  16.979  0.00  0.00    +0.000 OA
BRANCH  17  20
ATOM     20  C   UNL     1      36.938  -4.773  16.571  0.00  0.00    +0.000 C 
BRANCH  20  21
ATOM     21  C   UNL     1      35.701  -5.264  15.882  0.00  0.00    +0.000 C 
BRANCH  21  23
ATOM     22  C   UNL     1      33.728  -4.361  14.687  0.00  0.00    +0.000 C 
ATOM     23  C   UNL     1      35.222  -4.338  14.801  0.00  0.00    +0.000 C 
ENDBRANCH  21  23
ENDBRANCH  20  21
ENDBRANCH  17  20
ENDBRANCH   1  18
BRANCH   7  24
ATOM     24  C   UNL     1      36.952   0.348  13.480  0.00  0.00    +0.000 C 
BRANCH  24  25
ATOM     25  C   UNL     1      36.251   0.458  14.784  0.00  0.00    +0.000 A 
ATOM     26  C   UNL     1      36.059   1.702  15.343  0.00  0.00    +0.000 A 
ATOM     27  C   UNL     1      35.403   1.847  16.571  0.00  0.00    +0.000 A 
ATOM     28  C   UNL     1      34.951   0.736  17.215  0.00  0.00    +0.000 A 
ATOM     29  C   UNL     1      35.127  -0.514  16.685  0.00  0.00    +0.000 A 
ATOM     30  C   UNL     1      34.623  -1.732  17.407  0.00  0.00    +0.000 C 
ATOM     31  C   UNL     1      35.776  -0.633  15.476  0.00  0.00    +0.000 A 
ENDBRANCH  24  25
ENDBRANCH   7  24
TORSDOF 6
ENDMDL
MODEL 10
REMARK VINA RESULT:      -7.1      3.975      8.879
REMARK  Name = 
REMARK  6 active torsions:
REMARK  status: ('A' for Active; 'I' for Inactive)
REMARK    1  A    between atoms: C_2  and  C_3
REMARK    2  A    between atoms: C_3  and  C_4
REMARK    3  A    between atoms: C_4  and  N_5
REMARK    4  A    between atoms: C_6  and  C_8
REMARK    5  A    between atoms: N_14  and  C_15
REMARK    6  A    between atoms: C_15  and  C_16
REMARK                            x       y       z     vdW  Elec       q    Type
REMARK                         _______ _______ _______ _____ _____    ______ ____
ROOT
ATOM      1  C   UNL     1      37.091   3.205  15.566  0.00  0.00    +0.000 A 
ATOM      2  C   UNL     1      35.826   2.734  15.833  0.00  0.00    +0.000 A 
ATOM      3  C   UNL     1      35.553   1.395  15.774  0.00  0.00    +0.000 A 
ATOM      4  C   UNL     1      36.545   0.496  15.444  0.00  0.00    +0.000 A 
ATOM      5  C   UNL     1      37.842   0.950  15.167  0.00  0.00    +0.000 A 
ATOM      6  C   UNL     1      38.071   2.308  15.239  0.00  0.00    +0.000 A 
ATOM      7  N   UNL     1      39.002   0.217  14.811  0.00  0.00    +0.000 N 
ATOM      8  C   UNL     1      39.314  -1.127  15.068  0.00  0.00    +0.000 C 
ATOM      9  O   UNL     1      40.447  -1.489  14.653  0.00  0.00    +0.000 OA
ATOM     10  C   UNL     1      38.578  -2.200  15.725  0.00  0.00    +0.000 A 
ATOM     11  C   UNL     1      39.368  -3.226  16.198  0.00  0.00    +0.000 A 
ATOM     12  C   UNL     1      38.859  -4.311  16.839  0.00  0.00    +0.000 A 
ATOM     13  C   UNL     1      37.497  -4.391  17.026  0.00  0.00    +0.000 A 
ATOM     14  C   UNL     1      36.703  -3.376  16.558  0.00  0.00    +0.000 A 
ATOM     15  C   UNL     1      37.217  -2.273  15.907  0.00  0.00    +0.000 A 
ATOM     16  S   UNL     1      35.927  -1.160  15.439  0.00  0.00    +0.000 S 
ENDROOT
BRANCH   1  18
ATOM     17  N   UNL     1      38.255   5.190  16.583  0.00  0.00    +0.000 NA
ATOM     18  C   UNL     1      37.341   4.651  15.641  0.00  0.00    +0.000 C 
ATOM     19  O   UNL     1      36.738   5.431  14.861  0.00  0.00    +0.000 OA
BRANCH  17  20
ATOM     20  C   UNL     1      38.468   6.634  16.617  0.00  0.00    +0.000 C 
BRANCH  20  21
ATOM     21  C   UNL     1      38.509   7.048  18.056  0.00  0.00    +0.000 C 
BRANCH  21  23
ATOM     22  C   UNL     1      40.115   6.597  19.887  0.00  0.00    +0.000 C 
ATOM     23  C   UNL     1      39.105   6.002  18.954  0.00  0.00    +0.000 C 
ENDBRANCH  21  23
ENDBRANCH  20  21
ENDBRANCH  17  20
ENDBRANCH   1  18
BRANCH   7  24
ATOM     24  C   UNL     1      39.985   0.990  14.084  0.00  0.00    +0.000 C 
BRANCH  24  25
ATOM     25  C   UNL     1      39.819   0.854  12.616  0.00  0.00    +0.000 A 
ATOM     26  C   UNL     1      40.866   0.371  11.862  0.00  0.00    +0.000 A 
ATOM     27  C   UNL     1      40.749   0.227  10.474  0.00  0.00    +0.000 A 
ATOM     28  C   UNL     1      39.579   0.572   9.869  0.00  0.00    +0.000 A 
ATOM     29  C   UNL     1      38.521   1.055  10.592  0.00  0.00    +0.000 A 
ATOM     30  C   UNL     1      37.235   1.432   9.911  0.00  0.00    +0.000 C 
ATOM     31  C   UNL     1      38.658   1.188  11.956  0.00  0.00    +0.000 A 
ENDBRANCH  24  25
ENDBRANCH   7  24
TORSDOF 6
ENDMDL
