MODEL 1
REMARK VINA RESULT:      -7.2      0.000      0.000
REMARK  Name = 
REMARK  4 active torsions:
REMARK  status: ('A' for Active; 'I' for Inactive)
REMARK    1  A    between atoms: C_2  and  C_3
REMARK    2  A    between atoms: C_2  and  N_7
REMARK    3  A    between atoms: C_3  and  C_4
REMARK    4  A    between atoms: N_7  and  N_8
REMARK                            x       y       z     vdW  Elec       q    Type
REMARK                         _______ _______ _______ _____ _____    ______ ____
ROOT
ATOM      1  N   UNL     1      15.246  12.426  36.178  0.00  0.00    +0.000 NA
ATOM      2  C   UNL     1      14.803  12.777  34.876  0.00  0.00    +0.000 A 
ATOM      3  N   UNL     1      13.926  13.790  34.641  0.00  0.00    +0.000 NA
ATOM      4  N   UNL     1      13.510  14.124  33.428  0.00  0.00    +0.000 NA
ATOM      5  C   UNL     1      13.943  13.463  32.339  0.00  0.00    +0.000 A 
ATOM      6 CL   UNL     1      13.420  13.868  30.708  0.00  0.00    +0.000 Cl
ATOM      7  C   UNL     1      14.833  12.428  32.526  0.00  0.00    +0.000 A 
ATOM      8  C   UNL     1      15.306  11.713  31.429  0.00  0.00    +0.000 A 
ATOM      9  C   UNL     1      16.194  10.673  31.576  0.00  0.00    +0.000 A 
ATOM     10  C   UNL     1      16.621  10.339  32.857  0.00  0.00    +0.000 A 
ATOM     11  C   UNL     1      16.180  11.017  33.963  0.00  0.00    +0.000 A 
ATOM     12  C   UNL     1      15.276  12.071  33.780  0.00  0.00    +0.000 A 
ENDROOT
BRANCH   1  13
ATOM     13  N   UNL     1      16.442  12.957  36.640  0.00  0.00    +0.000 NA
BRANCH  13  15
ATOM     14  C   UNL     1      18.584  12.515  37.606  0.00  0.00    +0.000 C 
ATOM     15  C   UNL     1      17.379  12.105  37.254  0.00  0.00    +0.000 C 
BRANCH  15  16
ATOM     16  C   UNL     1      17.072  10.661  37.555  0.00  0.00    +0.000 C 
BRANCH  16  17
ATOM     17  C   UNL     1      18.410   9.927  37.414  0.00  0.00    +0.000 C 
ATOM     18  C   UNL     1      18.522   8.939  38.552  0.00  0.00    +0.000 C 
ATOM     19  C   UNL     1      18.282   9.145  36.102  0.00  0.00    +0.000 C 
ENDBRANCH  16  17
ENDBRANCH  15  16
ENDBRANCH  13  15
ENDBRANCH   1  13
TORSDOF 4
ENDMDL
MODEL 2
REMARK VINA RESULT:      -6.4      1.823      2.722
REMARK  Name = 
REMARK  4 active torsions:
REMARK  status: ('A' for Active; 'I' for Inactive)
REMARK    1  A    between atoms: C_2  and  C_3
REMARK    2  A    between atoms: C_2  and  N_7
REMARK    3  A    between atoms: C_3  and  C_4
REMARK    4  A    between atoms: N_7  and  N_8
REMARK                            x       y       z     vdW  Elec       q    Type
REMARK                         _______ _______ _______ _____ _____    ______ ____
ROOT
ATOM      1  N   UNL     1      17.090   9.813  36.269  0.00  0.00    +0.000 NA
ATOM      2  C   UNL     1      16.209  10.855  35.879  0.00  0.00    +0.000 A 
ATOM      3  N   UNL     1      15.531  11.623  36.775  0.00  0.00    +0.000 NA
ATOM      4  N   UNL     1      14.708  12.599  36.419  0.00  0.00    +0.000 NA
ATOM      5  C   UNL     1      14.494  12.889  35.123  0.00  0.00    +0.000 A 
ATOM      6 CL   UNL     1      13.411  14.174  34.601  0.00  0.00    +0.000 Cl
ATOM      7  C   UNL     1      15.158  12.139  34.177  0.00  0.00    +0.000 A 
ATOM      8  C   UNL     1      14.966  12.399  32.823  0.00  0.00    +0.000 A 
ATOM      9  C   UNL     1      15.610  11.671  31.851  0.00  0.00    +0.000 A 
ATOM     10  C   UNL     1      16.471  10.652  32.245  0.00  0.00    +0.000 A 
ATOM     11  C   UNL     1      16.689  10.363  33.565  0.00  0.00    +0.000 A 
ATOM     12  C   UNL     1      16.018  11.122  34.532  0.00  0.00    +0.000 A 
ENDROOT
BRANCH   1  13
ATOM     13  N   UNL     1      18.446  10.089  36.365  0.00  0.00    +0.000 NA
BRANCH  13  15
ATOM     14  C   UNL     1      19.676  11.337  37.992  0.00  0.00    +0.000 C 
ATOM     15  C   UNL     1      19.027  10.244  37.638  0.00  0.00    +0.000 C 
BRANCH  15  16
ATOM     16  C   UNL     1      18.946   9.169  38.690  0.00  0.00    +0.000 C 
BRANCH  16  17
ATOM     17  C   UNL     1      18.362   9.860  39.928  0.00  0.00    +0.000 C 
ATOM     18  C   UNL     1      16.875   9.596  39.952  0.00  0.00    +0.000 C 
ATOM     19  C   UNL     1      19.006   9.132  41.113  0.00  0.00    +0.000 C 
ENDBRANCH  16  17
ENDBRANCH  15  16
ENDBRANCH  13  15
ENDBRANCH   1  13
TORSDOF 4
ENDMDL
MODEL 3
REMARK VINA RESULT:      -6.3      2.294      3.080
REMARK  Name = 
REMARK  4 active torsions:
REMARK  status: ('A' for Active; 'I' for Inactive)
REMARK    1  A    between atoms: C_2  and  C_3
REMARK    2  A    between atoms: C_2  and  N_7
REMARK    3  A    between atoms: C_3  and  C_4
REMARK    4  A    between atoms: N_7  and  N_8
REMARK                            x       y       z     vdW  Elec       q    Type
REMARK                         _______ _______ _______ _____ _____    ______ ____
ROOT
ATOM      1  N   UNL     1      17.334   9.805  36.428  0.00  0.00    +0.000 NA
ATOM      2  C   UNL     1      16.414  10.809  36.030  0.00  0.00    +0.000 A 
ATOM      3  N   UNL     1      15.729  11.578  36.920  0.00  0.00    +0.000 NA
ATOM      4  N   UNL     1      14.869  12.518  36.557  0.00  0.00    +0.000 NA
ATOM      5  C   UNL     1      14.623  12.770  35.258  0.00  0.00    +0.000 A 
ATOM      6 CL   UNL     1      13.491  14.008  34.726  0.00  0.00    +0.000 Cl
ATOM      7  C   UNL     1      15.293  12.018  34.319  0.00  0.00    +0.000 A 
ATOM      8  C   UNL     1      15.069  12.240  32.963  0.00  0.00    +0.000 A 
ATOM      9  C   UNL     1      15.718  11.508  31.996  0.00  0.00    +0.000 A 
ATOM     10  C   UNL     1      16.618  10.527  32.397  0.00  0.00    +0.000 A 
ATOM     11  C   UNL     1      16.868  10.276  33.720  0.00  0.00    +0.000 A 
ATOM     12  C   UNL     1      16.191  11.038  34.681  0.00  0.00    +0.000 A 
ENDROOT
BRANCH   1  13
ATOM     13  N   UNL     1      18.682  10.125  36.492  0.00  0.00    +0.000 NA
BRANCH  13  15
ATOM     14  C   UNL     1      18.634  10.171  38.883  0.00  0.00    +0.000 C 
ATOM     15  C   UNL     1      19.265  10.395  37.745  0.00  0.00    +0.000 C 
BRANCH  15  16
ATOM     16  C   UNL     1      20.657  10.957  37.875  0.00  0.00    +0.000 C 
BRANCH  16  17
ATOM     17  C   UNL     1      21.593   9.815  37.465  0.00  0.00    +0.000 C 
ATOM     18  C   UNL     1      22.604  10.367  36.488  0.00  0.00    +0.000 C 
ATOM     19  C   UNL     1      22.323   9.434  38.757  0.00  0.00    +0.000 C 
ENDBRANCH  16  17
ENDBRANCH  15  16
ENDBRANCH  13  15
ENDBRANCH   1  13
TORSDOF 4
ENDMDL
MODEL 4
REMARK VINA RESULT:      -5.9     21.510     22.974
REMARK  Name = 
REMARK  4 active torsions:
REMARK  status: ('A' for Active; 'I' for Inactive)
REMARK    1  A    between atoms: C_2  and  C_3
REMARK    2  A    between atoms: C_2  and  N_7
REMARK    3  A    between atoms: C_3  and  C_4
REMARK    4  A    between atoms: N_7  and  N_8
REMARK                            x       y       z     vdW  Elec       q    Type
REMARK                         _______ _______ _______ _____ _____    ______ ____
ROOT
ATOM      1  N   UNL     1      21.660  -8.409  24.556  0.00  0.00    +0.000 NA
ATOM      2  C   UNL     1      20.623  -8.644  25.496  0.00  0.00    +0.000 A 
ATOM      3  N   UNL     1      20.292  -9.889  25.936  0.00  0.00    +0.000 NA
ATOM      4  N   UNL     1      19.327 -10.116  26.814  0.00  0.00    +0.000 NA
ATOM      5  C   UNL     1      18.605  -9.105  27.330  0.00  0.00    +0.000 A 
ATOM      6 CL   UNL     1      17.313  -9.357  28.499  0.00  0.00    +0.000 Cl
ATOM      7  C   UNL     1      18.902  -7.825  26.916  0.00  0.00    +0.000 A 
ATOM      8  C   UNL     1      18.179  -6.747  27.419  0.00  0.00    +0.000 A 
ATOM      9  C   UNL     1      18.446  -5.456  27.028  0.00  0.00    +0.000 A 
ATOM     10  C   UNL     1      19.465  -5.238  26.107  0.00  0.00    +0.000 A 
ATOM     11  C   UNL     1      20.199  -6.270  25.587  0.00  0.00    +0.000 A 
ATOM     12  C   UNL     1      19.904  -7.573  26.004  0.00  0.00    +0.000 A 
ENDROOT
BRANCH   1  13
ATOM     13  N   UNL     1      22.922  -8.079  25.027  0.00  0.00    +0.000 NA
BRANCH  13  15
ATOM     14  C   UNL     1      24.007  -6.079  24.290  0.00  0.00    +0.000 C 
ATOM     15  C   UNL     1      23.809  -7.380  24.186  0.00  0.00    +0.000 C 
BRANCH  15  16
ATOM     16  C   UNL     1      24.598  -8.072  23.105  0.00  0.00    +0.000 C 
BRANCH  16  17
ATOM     17  C   UNL     1      26.017  -8.211  23.669  0.00  0.00    +0.000 C 
ATOM     18  C   UNL     1      26.267  -9.674  23.948  0.00  0.00    +0.000 C 
ATOM     19  C   UNL     1      26.931  -7.771  22.520  0.00  0.00    +0.000 C 
ENDBRANCH  16  17
ENDBRANCH  15  16
ENDBRANCH  13  15
ENDBRANCH   1  13
TORSDOF 4
ENDMDL
MODEL 5
REMARK VINA RESULT:      -5.8     18.003     18.737
REMARK  Name = 
REMARK  4 active torsions:
REMARK  status: ('A' for Active; 'I' for Inactive)
REMARK    1  A    between atoms: C_2  and  C_3
REMARK    2  A    between atoms: C_2  and  N_7
REMARK    3  A    between atoms: C_3  and  C_4
REMARK    4  A    between atoms: N_7  and  N_8
REMARK                            x       y       z     vdW  Elec       q    Type
REMARK                         _______ _______ _______ _____ _____    ______ ____
ROOT
ATOM      1  N   UNL     1      27.531  22.108  27.564  0.00  0.00    +0.000 NA
ATOM      2  C   UNL     1      27.635  22.537  26.216  0.00  0.00    +0.000 A 
ATOM      3  N   UNL     1      26.553  22.713  25.410  0.00  0.00    +0.000 NA
ATOM      4  N   UNL     1      26.643  23.114  24.151  0.00  0.00    +0.000 NA
ATOM      5  C   UNL     1      27.837  23.375  23.588  0.00  0.00    +0.000 A 
ATOM      6 CL   UNL     1      28.007  23.910  21.920  0.00  0.00    +0.000 Cl
ATOM      7  C   UNL     1      28.963  23.212  24.364  0.00  0.00    +0.000 A 
ATOM      8  C   UNL     1      30.221  23.466  23.824  0.00  0.00    +0.000 A 
ATOM      9  C   UNL     1      31.368  23.313  24.567  0.00  0.00    +0.000 A 
ATOM     10  C   UNL     1      31.253  22.893  25.889  0.00  0.00    +0.000 A 
ATOM     11  C   UNL     1      30.035  22.631  26.458  0.00  0.00    +0.000 A 
ATOM     12  C   UNL     1      28.886  22.796  25.675  0.00  0.00    +0.000 A 
ENDROOT
BRANCH   1  13
ATOM     13  N   UNL     1      27.513  23.066  28.568  0.00  0.00    +0.000 NA
BRANCH  13  15
ATOM     14  C   UNL     1      26.745  21.740  30.403  0.00  0.00    +0.000 C 
ATOM     15  C   UNL     1      27.562  22.653  29.913  0.00  0.00    +0.000 C 
BRANCH  15  16
ATOM     16  C   UNL     1      28.556  23.225  30.889  0.00  0.00    +0.000 C 
BRANCH  16  17
ATOM     17  C   UNL     1      29.839  22.412  30.682  0.00  0.00    +0.000 C 
ATOM     18  C   UNL     1      30.888  23.333  30.107  0.00  0.00    +0.000 C 
ATOM     19  C   UNL     1      30.268  22.006  32.096  0.00  0.00    +0.000 C 
ENDBRANCH  16  17
ENDBRANCH  15  16
ENDBRANCH  13  15
ENDBRANCH   1  13
TORSDOF 4
ENDMDL
MODEL 6
REMARK VINA RESULT:      -5.8     21.675     23.758
REMARK  Name = 
REMARK  4 active torsions:
REMARK  status: ('A' for Active; 'I' for Inactive)
REMARK    1  A    between atoms: C_2  and  C_3
REMARK    2  A    between atoms: C_2  and  N_7
REMARK    3  A    between atoms: C_3  and  C_4
REMARK    4  A    between atoms: N_7  and  N_8
REMARK                            x       y       z     vdW  Elec       q    Type
REMARK                         _______ _______ _______ _____ _____    ______ ____
ROOT
ATOM      1  N   UNL     1      33.679  -4.324  33.324  0.00  0.00    +0.000 NA
ATOM      2  C   UNL     1      32.759  -5.215  32.715  0.00  0.00    +0.000 A 
ATOM      3  N   UNL     1      31.634  -5.657  33.339  0.00  0.00    +0.000 NA
ATOM      4  N   UNL     1      30.769  -6.488  32.776  0.00  0.00    +0.000 NA
ATOM      5  C   UNL     1      30.963  -6.951  31.527  0.00  0.00    +0.000 A 
ATOM      6 CL   UNL     1      29.844  -8.056  30.737  0.00  0.00    +0.000 Cl
ATOM      7  C   UNL     1      32.088  -6.532  30.853  0.00  0.00    +0.000 A 
ATOM      8  C   UNL     1      32.333  -6.986  29.560  0.00  0.00    +0.000 A 
ATOM      9  C   UNL     1      33.447  -6.591  28.857  0.00  0.00    +0.000 A 
ATOM     10  C   UNL     1      34.341  -5.716  29.464  0.00  0.00    +0.000 A 
ATOM     11  C   UNL     1      34.138  -5.246  30.734  0.00  0.00    +0.000 A 
ATOM     12  C   UNL     1      32.995  -5.667  31.425  0.00  0.00    +0.000 A 
ENDROOT
BRANCH   1  13
ATOM     13  N   UNL     1      33.557  -2.965  33.071  0.00  0.00    +0.000 NA
BRANCH  13  15
ATOM     14  C   UNL     1      32.243  -2.314  34.960  0.00  0.00    +0.000 C 
ATOM     15  C   UNL     1      33.248  -2.093  34.132  0.00  0.00    +0.000 C 
BRANCH  15  16
ATOM     16  C   UNL     1      34.046  -0.844  34.400  0.00  0.00    +0.000 C 
BRANCH  16  17
ATOM     17  C   UNL     1      33.441   0.225  33.483  0.00  0.00    +0.000 C 
ATOM     18  C   UNL     1      33.432   1.534  34.236  0.00  0.00    +0.000 C 
ATOM     19  C   UNL     1      34.432   0.339  32.320  0.00  0.00    +0.000 C 
ENDBRANCH  16  17
ENDBRANCH  15  16
ENDBRANCH  13  15
ENDBRANCH   1  13
TORSDOF 4
ENDMDL
MODEL 7
REMARK VINA RESULT:      -5.8     21.044     21.962
REMARK  Name = 
REMARK  4 active torsions:
REMARK  status: ('A' for Active; 'I' for Inactive)
REMARK    1  A    between atoms: C_2  and  C_3
REMARK    2  A    between atoms: C_2  and  N_7
REMARK    3  A    between atoms: C_3  and  C_4
REMARK    4  A    between atoms: N_7  and  N_8
REMARK                            x       y       z     vdW  Elec       q    Type
REMARK                         _______ _______ _______ _____ _____    ______ ____
ROOT
ATOM      1  N   UNL     1      30.105  23.493  23.411  0.00  0.00    +0.000 NA
ATOM      2  C   UNL     1      29.819  24.551  22.509  0.00  0.00    +0.000 A 
ATOM      3  N   UNL     1      29.758  24.377  21.161  0.00  0.00    +0.000 NA
ATOM      4  N   UNL     1      29.490  25.358  20.312  0.00  0.00    +0.000 NA
ATOM      5  C   UNL     1      29.258  26.609  20.749  0.00  0.00    +0.000 A 
ATOM      6 CL   UNL     1      28.899  27.946  19.662  0.00  0.00    +0.000 Cl
ATOM      7  C   UNL     1      29.308  26.837  22.107  0.00  0.00    +0.000 A 
ATOM      8  C   UNL     1      29.078  28.116  22.606  0.00  0.00    +0.000 A 
ATOM      9  C   UNL     1      29.122  28.382  23.954  0.00  0.00    +0.000 A 
ATOM     10  C   UNL     1      29.402  27.337  24.829  0.00  0.00    +0.000 A 
ATOM     11  C   UNL     1      29.634  26.064  24.380  0.00  0.00    +0.000 A 
ATOM     12  C   UNL     1      29.584  25.826  23.001  0.00  0.00    +0.000 A 
ENDROOT
BRANCH   1  13
ATOM     13  N   UNL     1      29.047  22.822  24.006  0.00  0.00    +0.000 NA
BRANCH  13  15
ATOM     14  C   UNL     1      30.112  22.279  26.077  0.00  0.00    +0.000 C 
ATOM     15  C   UNL     1      29.039  22.651  25.403  0.00  0.00    +0.000 C 
BRANCH  15  16
ATOM     16  C   UNL     1      27.802  22.884  26.231  0.00  0.00    +0.000 C 
BRANCH  16  17
ATOM     17  C   UNL     1      26.922  23.812  25.387  0.00  0.00    +0.000 C 
ATOM     18  C   UNL     1      25.663  23.060  25.025  0.00  0.00    +0.000 C 
ATOM     19  C   UNL     1      26.549  24.956  26.337  0.00  0.00    +0.000 C 
ENDBRANCH  16  17
ENDBRANCH  15  16
ENDBRANCH  13  15
ENDBRANCH   1  13
TORSDOF 4
ENDMDL
MODEL 8
REMARK VINA RESULT:      -5.7     20.953     22.324
REMARK  Name = 
REMARK  4 active torsions:
REMARK  status: ('A' for Active; 'I' for Inactive)
REMARK    1  A    between atoms: C_2  and  C_3
REMARK    2  A    between atoms: C_2  and  N_7
REMARK    3  A    between atoms: C_3  and  C_4
REMARK    4  A    between atoms: N_7  and  N_8
REMARK                            x       y       z     vdW  Elec       q    Type
REMARK                         _______ _______ _______ _____ _____    ______ ____
ROOT
ATOM      1  N   UNL     1      17.337  -9.981  25.427  0.00  0.00    +0.000 NA
ATOM      2  C   UNL     1      17.715  -8.661  25.788  0.00  0.00    +0.000 A 
ATOM      3  N   UNL     1      16.873  -7.795  26.413  0.00  0.00    +0.000 NA
ATOM      4  N   UNL     1      17.219  -6.563  26.754  0.00  0.00    +0.000 NA
ATOM      5  C   UNL     1      18.452  -6.092  26.496  0.00  0.00    +0.000 A 
ATOM      6 CL   UNL     1      18.960  -4.463  26.930  0.00  0.00    +0.000 Cl
ATOM      7  C   UNL     1      19.343  -6.932  25.865  0.00  0.00    +0.000 A 
ATOM      8  C   UNL     1      20.630  -6.487  25.573  0.00  0.00    +0.000 A 
ATOM      9  C   UNL     1      21.546  -7.296  24.943  0.00  0.00    +0.000 A 
ATOM     10  C   UNL     1      21.164  -8.588  24.594  0.00  0.00    +0.000 A 
ATOM     11  C   UNL     1      19.908  -9.064  24.862  0.00  0.00    +0.000 A 
ATOM     12  C   UNL     1      18.997  -8.216  25.504  0.00  0.00    +0.000 A 
ENDROOT
BRANCH   1  13
ATOM     13  N   UNL     1      17.643 -11.021  26.291  0.00  0.00    +0.000 NA
BRANCH  13  15
ATOM     14  C   UNL     1      15.881 -10.835  27.896  0.00  0.00    +0.000 C 
ATOM     15  C   UNL     1      17.162 -10.982  27.613  0.00  0.00    +0.000 C 
BRANCH  15  16
ATOM     16  C   UNL     1      18.079 -11.107  28.802  0.00  0.00    +0.000 C 
BRANCH  16  17
ATOM     17  C   UNL     1      18.593  -9.688  29.066  0.00  0.00    +0.000 C 
ATOM     18  C   UNL     1      18.598  -9.463  30.560  0.00  0.00    +0.000 C 
ATOM     19  C   UNL     1      20.043  -9.707  28.572  0.00  0.00    +0.000 C 
ENDBRANCH  16  17
ENDBRANCH  15  16
ENDBRANCH  13  15
ENDBRANCH   1  13
TORSDOF 4
ENDMDL
MODEL 9
REMARK VINA RESULT:      -5.7      5.689      8.508
REMARK  Name = 
REMARK  4 active torsions:
REMARK  status: ('A' for Active; 'I' for Inactive)
REMARK    1  A    between atoms: C_2  and  C_3
REMARK    2  A    between atoms: C_2  and  N_7
REMARK    3  A    between atoms: C_3  and  C_4
REMARK    4  A    between atoms: N_7  and  N_8
REMARK                            x       y       z     vdW  Elec       q    Type
REMARK                         _______ _______ _______ _____ _____    ______ ____
ROOT
ATOM      1  N   UNL     1      20.100  10.410  37.481  0.00  0.00    +0.000 NA
ATOM      2  C   UNL     1      21.145   9.753  38.182  0.00  0.00    +0.000 A 
ATOM      3  N   UNL     1      20.943   9.076  39.345  0.00  0.00    +0.000 NA
ATOM      4  N   UNL     1      21.913   8.459  40.004  0.00  0.00    +0.000 NA
ATOM      5  C   UNL     1      23.179   8.470  39.548  0.00  0.00    +0.000 A 
ATOM      6 CL   UNL     1      24.500   7.667  40.388  0.00  0.00    +0.000 Cl
ATOM      7  C   UNL     1      23.434   9.143  38.373  0.00  0.00    +0.000 A 
ATOM      8  C   UNL     1      24.729   9.185  37.864  0.00  0.00    +0.000 A 
ATOM      9  C   UNL     1      25.022   9.848  36.696  0.00  0.00    +0.000 A 
ATOM     10  C   UNL     1      23.990  10.487  36.017  0.00  0.00    +0.000 A 
ATOM     11  C   UNL     1      22.703  10.471  36.483  0.00  0.00    +0.000 A 
ATOM     12  C   UNL     1      22.436   9.788  37.676  0.00  0.00    +0.000 A 
ENDROOT
BRANCH   1  13
ATOM     13  N   UNL     1      19.468   9.737  36.446  0.00  0.00    +0.000 NA
BRANCH  13  15
ATOM     14  C   UNL     1      17.393   9.101  35.441  0.00  0.00    +0.000 C 
ATOM     15  C   UNL     1      18.063   9.662  36.431  0.00  0.00    +0.000 C 
BRANCH  15  16
ATOM     16  C   UNL     1      17.221  10.218  37.550  0.00  0.00    +0.000 C 
BRANCH  16  17
ATOM     17  C   UNL     1      16.245  11.189  36.875  0.00  0.00    +0.000 C 
ATOM     18  C   UNL     1      15.017  11.298  37.748  0.00  0.00    +0.000 C 
ATOM     19  C   UNL     1      16.974  12.537  36.890  0.00  0.00    +0.000 C 
ENDBRANCH  16  17
ENDBRANCH  15  16
ENDBRANCH  13  15
ENDBRANCH   1  13
TORSDOF 4
ENDMDL
MODEL 10
REMARK VINA RESULT:      -5.6     21.050     22.591
REMARK  Name = 
REMARK  4 active torsions:
REMARK  status: ('A' for Active; 'I' for Inactive)
REMARK    1  A    between atoms: C_2  and  C_3
REMARK    2  A    between atoms: C_2  and  N_7
REMARK    3  A    between atoms: C_3  and  C_4
REMARK    4  A    between atoms: N_7  and  N_8
REMARK                            x       y       z     vdW  Elec       q    Type
REMARK                         _______ _______ _______ _____ _____    ______ ____
ROOT
ATOM      1  N   UNL     1      19.239 -10.040  27.532  0.00  0.00    +0.000 NA
ATOM      2  C   UNL     1      20.004  -9.125  26.764  0.00  0.00    +0.000 A 
ATOM      3  N   UNL     1      21.155  -9.475  26.129  0.00  0.00    +0.000 NA
ATOM      4  N   UNL     1      21.874  -8.626  25.409  0.00  0.00    +0.000 NA
ATOM      5  C   UNL     1      21.496  -7.343  25.264  0.00  0.00    +0.000 A 
ATOM      6 CL   UNL     1      22.417  -6.179  24.319  0.00  0.00    +0.000 Cl
ATOM      7  C   UNL     1      20.335  -6.941  25.889  0.00  0.00    +0.000 A 
ATOM      8  C   UNL     1      19.905  -5.622  25.771  0.00  0.00    +0.000 A 
ATOM      9  C   UNL     1      18.754  -5.183  26.381  0.00  0.00    +0.000 A 
ATOM     10  C   UNL     1      18.011  -6.089  27.131  0.00  0.00    +0.000 A 
ATOM     11  C   UNL     1      18.399  -7.395  27.273  0.00  0.00    +0.000 A 
ATOM     12  C   UNL     1      19.577  -7.812  26.640  0.00  0.00    +0.000 A 
ENDROOT
BRANCH   1  13
ATOM     13  N   UNL     1      18.170 -10.686  26.928  0.00  0.00    +0.000 NA
BRANCH  13  15
ATOM     14  C   UNL     1      16.690 -10.438  28.789  0.00  0.00    +0.000 C 
ATOM     15  C   UNL     1      16.885 -10.562  27.490  0.00  0.00    +0.000 C 
BRANCH  15  16
ATOM     16  C   UNL     1      15.639 -10.561  26.643  0.00  0.00    +0.000 C 
BRANCH  16  17
ATOM     17  C   UNL     1      15.447  -9.103  26.212  0.00  0.00    +0.000 C 
ATOM     18  C   UNL     1      16.022  -8.947  24.824  0.00  0.00    +0.000 C 
ATOM     19  C   UNL     1      13.927  -8.924  26.131  0.00  0.00    +0.000 C 
ENDBRANCH  16  17
ENDBRANCH  15  16
ENDBRANCH  13  15
ENDBRANCH   1  13
TORSDOF 4
ENDMDL
