MODEL 1
REMARK VINA RESULT:      -8.1      0.000      0.000
REMARK  Name = 
REMARK  7 active torsions:
REMARK  status: ('A' for Active; 'I' for Inactive)
REMARK    1  A    between atoms: C_2  and  O_3
REMARK    2  A    between atoms: O_3  and  C_4
REMARK    3  A    between atoms: C_7  and  N_8
REMARK    4  A    between atoms: C_11  and  N_12
REMARK    5  A    between atoms: N_12  and  C_13
REMARK    6  A    between atoms: C_20  and  S_21
REMARK    7  A    between atoms: S_21  and  C_22
REMARK                            x       y       z     vdW  Elec       q    Type
REMARK                         _______ _______ _______ _____ _____    ______ ____
ROOT
ATOM      1  N   UNL     1      36.608   2.180  15.122  0.00  0.00    +0.000 N 
ATOM      2  C   UNL     1      35.718   3.255  14.812  0.00  0.00    +0.000 C 
ATOM      3  O   UNL     1      34.471   3.041  14.680  0.00  0.00    +0.000 OA
ATOM      4  C   UNL     1      36.476   4.485  14.702  0.00  0.00    +0.000 C 
ATOM      5  C   UNL     1      37.767   4.209  14.927  0.00  0.00    +0.000 C 
ATOM      6  C   UNL     1      37.904   2.789  15.193  0.00  0.00    +0.000 C 
ATOM      7  O   UNL     1      38.969   2.175  15.445  0.00  0.00    +0.000 OA
ENDROOT
BRANCH   1  11
ATOM      8  C   UNL     1      35.608  -1.839  15.740  0.00  0.00    +0.000 A 
ATOM      9  C   UNL     1      35.170  -0.863  16.601  0.00  0.00    +0.000 A 
ATOM     10  C   UNL     1      35.507   0.449  16.388  0.00  0.00    +0.000 A 
ATOM     11  C   UNL     1      36.283   0.815  15.316  0.00  0.00    +0.000 A 
ATOM     12  C   UNL     1      36.707  -0.179  14.473  0.00  0.00    +0.000 A 
ATOM     13  C   UNL     1      36.392  -1.508  14.649  0.00  0.00    +0.000 A 
BRANCH   8  14
ATOM     14  O   UNL     1      35.250  -3.152  15.986  0.00  0.00    +0.000 OA
BRANCH  14  16
ATOM     15  C   UNL     1      33.428  -4.408  14.977  0.00  0.00    +0.000 C 
ATOM     16  C   UNL     1      34.887  -4.001  14.938  0.00  0.00    +0.000 C 
ENDBRANCH  14  16
ENDBRANCH   8  14
ENDBRANCH   1  11
BRANCH   4  17
ATOM     17  N   UNL     1      35.951   5.753  14.413  0.00  0.00    +0.000 NA
BRANCH  17  18
ATOM     18  C   UNL     1      35.501   6.125  13.145  0.00  0.00    +0.000 A 
ATOM     19  C   UNL     1      36.148   5.775  11.993  0.00  0.00    +0.000 A 
ATOM     20  C   UNL     1      35.679   6.148  10.769  0.00  0.00    +0.000 A 
ATOM     21  C   UNL     1      34.513   6.908  10.651  0.00  0.00    +0.000 A 
ATOM     22  C   UNL     1      33.875   7.250  11.822  0.00  0.00    +0.000 A 
ATOM     23  C   UNL     1      34.326   6.886  13.061  0.00  0.00    +0.000 A 
ATOM     24  C   UNL     1      33.615   7.272  14.324  0.00  0.00    +0.000 C 
ENDBRANCH  17  18
ENDBRANCH   4  17
BRANCH   5  25
ATOM     25  S   UNL     1      39.067   5.426  14.892  0.00  0.00    +0.000 S 
BRANCH  25  26
ATOM     26  C   UNL     1      39.696   5.740  16.528  0.00  0.00    +0.000 A 
ATOM     27  C   UNL     1      38.900   5.469  17.638  0.00  0.00    +0.000 A 
ATOM     28  C   UNL     1      39.383   5.708  18.924  0.00  0.00    +0.000 A 
ATOM     29  C   UNL     1      40.636   6.209  19.142  0.00  0.00    +0.000 A 
ATOM     30  C   UNL     1      41.435   6.481  18.043  0.00  0.00    +0.000 A 
ATOM     31  C   UNL     1      40.952   6.243  16.751  0.00  0.00    +0.000 A 
ENDBRANCH  25  26
ENDBRANCH   5  25
TORSDOF 7
ENDMDL
MODEL 2
REMARK VINA RESULT:      -8.0      2.367      5.593
REMARK  Name = 
REMARK  7 active torsions:
REMARK  status: ('A' for Active; 'I' for Inactive)
REMARK    1  A    between atoms: C_2  and  O_3
REMARK    2  A    between atoms: O_3  and  C_4
REMARK    3  A    between atoms: C_7  and  N_8
REMARK    4  A    between atoms: C_11  and  N_12
REMARK    5  A    between atoms: N_12  and  C_13
REMARK    6  A    between atoms: C_20  and  S_21
REMARK    7  A    between atoms: S_21  and  C_22
REMARK                            x       y       z     vdW  Elec       q    Type
REMARK                         _______ _______ _______ _____ _____    ______ ____
ROOT
ATOM      1  N   UNL     1      37.082   3.778  16.006  0.00  0.00    +0.000 N 
ATOM      2  C   UNL     1      37.929   4.417  16.964  0.00  0.00    +0.000 C 
ATOM      3  O   UNL     1      38.296   3.799  18.013  0.00  0.00    +0.000 OA
ATOM      4  C   UNL     1      38.231   5.761  16.512  0.00  0.00    +0.000 C 
ATOM      5  C   UNL     1      37.614   5.963  15.341  0.00  0.00    +0.000 C 
ATOM      6  C   UNL     1      36.886   4.761  14.980  0.00  0.00    +0.000 C 
ATOM      7  O   UNL     1      36.193   4.588  13.949  0.00  0.00    +0.000 OA
ENDROOT
BRANCH   1  11
ATOM      8  C   UNL     1      35.571  -0.125  16.128  0.00  0.00    +0.000 A 
ATOM      9  C   UNL     1      36.692   0.175  15.393  0.00  0.00    +0.000 A 
ATOM     10  C   UNL     1      37.175   1.457  15.361  0.00  0.00    +0.000 A 
ATOM     11  C   UNL     1      36.555   2.465  16.057  0.00  0.00    +0.000 A 
ATOM     12  C   UNL     1      35.437   2.139  16.781  0.00  0.00    +0.000 A 
ATOM     13  C   UNL     1      34.919   0.864  16.842  0.00  0.00    +0.000 A 
BRANCH   8  14
ATOM     14  O   UNL     1      35.112  -1.430  16.138  0.00  0.00    +0.000 OA
BRANCH  14  16
ATOM     15  C   UNL     1      34.926  -3.664  15.197  0.00  0.00    +0.000 C 
ATOM     16  C   UNL     1      35.767  -2.421  15.404  0.00  0.00    +0.000 C 
ENDBRANCH  14  16
ENDBRANCH   8  14
ENDBRANCH   1  11
BRANCH   4  17
ATOM     17  N   UNL     1      39.036   6.694  17.183  0.00  0.00    +0.000 NA
BRANCH  17  18
ATOM     18  C   UNL     1      38.595   7.437  18.280  0.00  0.00    +0.000 A 
ATOM     19  C   UNL     1      37.573   8.340  18.205  0.00  0.00    +0.000 A 
ATOM     20  C   UNL     1      37.162   9.046  19.297  0.00  0.00    +0.000 A 
ATOM     21  C   UNL     1      37.778   8.867  20.537  0.00  0.00    +0.000 A 
ATOM     22  C   UNL     1      38.806   7.952  20.593  0.00  0.00    +0.000 A 
ATOM     23  C   UNL     1      39.235   7.232  19.511  0.00  0.00    +0.000 A 
ATOM     24  C   UNL     1      40.358   6.242  19.595  0.00  0.00    +0.000 C 
ENDBRANCH  17  18
ENDBRANCH   4  17
BRANCH   5  25
ATOM     25  S   UNL     1      37.706   7.483  14.415  0.00  0.00    +0.000 S 
BRANCH  25  26
ATOM     26  C   UNL     1      36.270   8.496  14.700  0.00  0.00    +0.000 A 
ATOM     27  C   UNL     1      36.428   9.820  15.104  0.00  0.00    +0.000 A 
ATOM     28  C   UNL     1      35.311  10.623  15.327  0.00  0.00    +0.000 A 
ATOM     29  C   UNL     1      34.039  10.152  15.161  0.00  0.00    +0.000 A 
ATOM     30  C   UNL     1      33.872   8.837  14.758  0.00  0.00    +0.000 A 
ATOM     31  C   UNL     1      34.992   8.027  14.534  0.00  0.00    +0.000 A 
ENDBRANCH  25  26
ENDBRANCH   5  25
TORSDOF 7
ENDMDL
MODEL 3
REMARK VINA RESULT:      -7.8      3.608      8.504
REMARK  Name = 
REMARK  7 active torsions:
REMARK  status: ('A' for Active; 'I' for Inactive)
REMARK    1  A    between atoms: C_2  and  O_3
REMARK    2  A    between atoms: O_3  and  C_4
REMARK    3  A    between atoms: C_7  and  N_8
REMARK    4  A    between atoms: C_11  and  N_12
REMARK    5  A    between atoms: N_12  and  C_13
REMARK    6  A    between atoms: C_20  and  S_21
REMARK    7  A    between atoms: S_21  and  C_22
REMARK                            x       y       z     vdW  Elec       q    Type
REMARK                         _______ _______ _______ _____ _____    ______ ____
ROOT
ATOM      1  N   UNL     1      38.337   3.998  16.023  0.00  0.00    +0.000 N 
ATOM      2  C   UNL     1      39.121   3.595  14.897  0.00  0.00    +0.000 C 
ATOM      3  O   UNL     1      40.156   4.255  14.564  0.00  0.00    +0.000 OA
ATOM      4  C   UNL     1      38.532   2.410  14.305  0.00  0.00    +0.000 C 
ATOM      5  C   UNL     1      37.442   2.081  15.010  0.00  0.00    +0.000 C 
ATOM      6  C   UNL     1      37.275   3.035  16.090  0.00  0.00    +0.000 C 
ATOM      7  O   UNL     1      36.362   3.039  16.951  0.00  0.00    +0.000 OA
ENDROOT
BRANCH   1  11
ATOM      8  C   UNL     1      38.968   7.293  18.527  0.00  0.00    +0.000 A 
ATOM      9  C   UNL     1      38.511   7.461  17.242  0.00  0.00    +0.000 A 
ATOM     10  C   UNL     1      38.311   6.373  16.433  0.00  0.00    +0.000 A 
ATOM     11  C   UNL     1      38.560   5.101  16.883  0.00  0.00    +0.000 A 
ATOM     12  C   UNL     1      39.015   4.961  18.168  0.00  0.00    +0.000 A 
ATOM     13  C   UNL     1      39.230   6.026  19.015  0.00  0.00    +0.000 A 
BRANCH   8  14
ATOM     14  O   UNL     1      39.159   8.414  19.315  0.00  0.00    +0.000 OA
BRANCH  14  16
ATOM     15  C   UNL     1      38.444   9.831  21.157  0.00  0.00    +0.000 C 
ATOM     16  C   UNL     1      38.723   8.434  20.642  0.00  0.00    +0.000 C 
ENDBRANCH  14  16
ENDBRANCH   8  14
ENDBRANCH   1  11
BRANCH   4  17
ATOM     17  N   UNL     1      39.020   1.720  13.185  0.00  0.00    +0.000 NA
BRANCH  17  18
ATOM     18  C   UNL     1      39.792   0.560  13.277  0.00  0.00    +0.000 A 
ATOM     19  C   UNL     1      40.689   0.341  14.283  0.00  0.00    +0.000 A 
ATOM     20  C   UNL     1      41.424  -0.805  14.349  0.00  0.00    +0.000 A 
ATOM     21  C   UNL     1      41.282  -1.800  13.380  0.00  0.00    +0.000 A 
ATOM     22  C   UNL     1      40.372  -1.562  12.374  0.00  0.00    +0.000 A 
ATOM     23  C   UNL     1      39.624  -0.420  12.289  0.00  0.00    +0.000 A 
ATOM     24  C   UNL     1      38.639  -0.182  11.183  0.00  0.00    +0.000 C 
ENDBRANCH  17  18
ENDBRANCH   4  17
BRANCH   5  25
ATOM     25  S   UNL     1      36.399   0.685  14.639  0.00  0.00    +0.000 S 
BRANCH  25  26
ATOM     26  C   UNL     1      37.206  -0.847  15.054  0.00  0.00    +0.000 A 
ATOM     27  C   UNL     1      37.052  -1.956  14.224  0.00  0.00    +0.000 A 
ATOM     28  C   UNL     1      37.681  -3.159  14.537  0.00  0.00    +0.000 A 
ATOM     29  C   UNL     1      38.461  -3.297  15.652  0.00  0.00    +0.000 A 
ATOM     30  C   UNL     1      38.620  -2.199  16.482  0.00  0.00    +0.000 A 
ATOM     31  C   UNL     1      37.989  -0.990  16.170  0.00  0.00    +0.000 A 
ENDBRANCH  25  26
ENDBRANCH   5  25
TORSDOF 7
ENDMDL
MODEL 4
REMARK VINA RESULT:      -7.7      1.567      2.488
REMARK  Name = 
REMARK  7 active torsions:
REMARK  status: ('A' for Active; 'I' for Inactive)
REMARK    1  A    between atoms: C_2  and  O_3
REMARK    2  A    between atoms: O_3  and  C_4
REMARK    3  A    between atoms: C_7  and  N_8
REMARK    4  A    between atoms: C_11  and  N_12
REMARK    5  A    between atoms: N_12  and  C_13
REMARK    6  A    between atoms: C_20  and  S_21
REMARK    7  A    between atoms: S_21  and  C_22
REMARK                            x       y       z     vdW  Elec       q    Type
REMARK                         _______ _______ _______ _____ _____    ______ ____
ROOT
ATOM      1  N   UNL     1      36.667   3.498  15.411  0.00  0.00    +0.000 N 
ATOM      2  C   UNL     1      35.983   4.527  14.692  0.00  0.00    +0.000 C 
ATOM      3  O   UNL     1      34.836   4.307  14.188  0.00  0.00    +0.000 OA
ATOM      4  C   UNL     1      36.801   5.724  14.678  0.00  0.00    +0.000 C 
ATOM      5  C   UNL     1      37.934   5.471  15.346  0.00  0.00    +0.000 C 
ATOM      6  C   UNL     1      37.901   4.101  15.823  0.00  0.00    +0.000 C 
ATOM      7  O   UNL     1      38.794   3.519  16.487  0.00  0.00    +0.000 OA
ENDROOT
BRANCH   1  11
ATOM      8  C   UNL     1      35.318  -0.386  16.198  0.00  0.00    +0.000 A 
ATOM      9  C   UNL     1      34.940   0.666  16.996  0.00  0.00    +0.000 A 
ATOM     10  C   UNL     1      35.391   1.932  16.727  0.00  0.00    +0.000 A 
ATOM     11  C   UNL     1      36.223   2.177  15.664  0.00  0.00    +0.000 A 
ATOM     12  C   UNL     1      36.586   1.109  14.885  0.00  0.00    +0.000 A 
ATOM     13  C   UNL     1      36.156  -0.179  15.118  0.00  0.00    +0.000 A 
BRANCH   8  14
ATOM     14  O   UNL     1      34.845  -1.651  16.499  0.00  0.00    +0.000 OA
BRANCH  14  16
ATOM     15  C   UNL     1      34.587  -3.717  15.244  0.00  0.00    +0.000 C 
ATOM     16  C   UNL     1      35.498  -2.789  16.020  0.00  0.00    +0.000 C 
ENDBRANCH  14  16
ENDBRANCH   8  14
ENDBRANCH   1  11
BRANCH   4  17
ATOM     17  N   UNL     1      36.466   6.944  14.071  0.00  0.00    +0.000 NA
BRANCH  17  18
ATOM     18  C   UNL     1      35.734   7.943  14.716  0.00  0.00    +0.000 A 
ATOM     19  C   UNL     1      36.268   8.754  15.676  0.00  0.00    +0.000 A 
ATOM     20  C   UNL     1      35.529   9.726  16.283  0.00  0.00    +0.000 A 
ATOM     21  C   UNL     1      34.190   9.923  15.940  0.00  0.00    +0.000 A 
ATOM     22  C   UNL     1      33.669   9.096  14.970  0.00  0.00    +0.000 A 
ATOM     23  C   UNL     1      34.392   8.116  14.347  0.00  0.00    +0.000 A 
ATOM     24  C   UNL     1      33.804   7.225  13.294  0.00  0.00    +0.000 C 
ENDBRANCH  17  18
ENDBRANCH   4  17
BRANCH   5  25
ATOM     25  S   UNL     1      39.239   6.660  15.581  0.00  0.00    +0.000 S 
BRANCH  25  26
ATOM     26  C   UNL     1      39.883   6.587  17.239  0.00  0.00    +0.000 A 
ATOM     27  C   UNL     1      41.259   6.504  17.443  0.00  0.00    +0.000 A 
ATOM     28  C   UNL     1      41.774   6.450  18.737  0.00  0.00    +0.000 A 
ATOM     29  C   UNL     1      40.965   6.475  19.838  0.00  0.00    +0.000 A 
ATOM     30  C   UNL     1      39.595   6.559  19.644  0.00  0.00    +0.000 A 
ATOM     31  C   UNL     1      39.075   6.613  18.346  0.00  0.00    +0.000 A 
ENDBRANCH  25  26
ENDBRANCH   5  25
TORSDOF 7
ENDMDL
MODEL 5
REMARK VINA RESULT:      -7.6      3.538      8.337
REMARK  Name = 
REMARK  7 active torsions:
REMARK  status: ('A' for Active; 'I' for Inactive)
REMARK    1  A    between atoms: C_2  and  O_3
REMARK    2  A    between atoms: O_3  and  C_4
REMARK    3  A    between atoms: C_7  and  N_8
REMARK    4  A    between atoms: C_11  and  N_12
REMARK    5  A    between atoms: N_12  and  C_13
REMARK    6  A    between atoms: C_20  and  S_21
REMARK    7  A    between atoms: S_21  and  C_22
REMARK                            x       y       z     vdW  Elec       q    Type
REMARK                         _______ _______ _______ _____ _____    ______ ____
ROOT
ATOM      1  N   UNL     1      38.358   3.800  16.011  0.00  0.00    +0.000 N 
ATOM      2  C   UNL     1      37.444   2.739  16.296  0.00  0.00    +0.000 C 
ATOM      3  O   UNL     1      36.736   2.765  17.353  0.00  0.00    +0.000 OA
ATOM      4  C   UNL     1      37.507   1.756  15.233  0.00  0.00    +0.000 C 
ATOM      5  C   UNL     1      38.406   2.167  14.328  0.00  0.00    +0.000 C 
ATOM      6  C   UNL     1      38.964   3.433  14.764  0.00  0.00    +0.000 C 
ATOM      7  O   UNL     1      39.834   4.112  14.166  0.00  0.00    +0.000 OA
ENDROOT
BRANCH   1  11
ATOM      8  C   UNL     1      39.072   7.257  18.262  0.00  0.00    +0.000 A 
ATOM      9  C   UNL     1      38.574   7.338  16.985  0.00  0.00    +0.000 A 
ATOM     10  C   UNL     1      38.347   6.198  16.259  0.00  0.00    +0.000 A 
ATOM     11  C   UNL     1      38.609   4.959  16.786  0.00  0.00    +0.000 A 
ATOM     12  C   UNL     1      39.106   4.906  18.063  0.00  0.00    +0.000 A 
ATOM     13  C   UNL     1      39.349   6.026  18.827  0.00  0.00    +0.000 A 
BRANCH   8  14
ATOM     14  O   UNL     1      39.289   8.428  18.966  0.00  0.00    +0.000 OA
BRANCH  14  16
ATOM     15  C   UNL     1      37.292   8.876  20.278  0.00  0.00    +0.000 C 
ATOM     16  C   UNL     1      38.779   8.590  20.256  0.00  0.00    +0.000 C 
ENDBRANCH  14  16
ENDBRANCH   8  14
ENDBRANCH   1  11
BRANCH   4  17
ATOM     17  N   UNL     1      36.754   0.575  15.157  0.00  0.00    +0.000 NA
BRANCH  17  18
ATOM     18  C   UNL     1      36.933  -0.504  16.025  0.00  0.00    +0.000 A 
ATOM     19  C   UNL     1      38.064  -1.271  16.036  0.00  0.00    +0.000 A 
ATOM     20  C   UNL     1      38.211  -2.315  16.900  0.00  0.00    +0.000 A 
ATOM     21  C   UNL     1      37.201  -2.637  17.809  0.00  0.00    +0.000 A 
ATOM     22  C   UNL     1      36.069  -1.853  17.783  0.00  0.00    +0.000 A 
ATOM     23  C   UNL     1      35.900  -0.801  16.925  0.00  0.00    +0.000 A 
ATOM     24  C   UNL     1      34.658   0.039  16.914  0.00  0.00    +0.000 C 
ENDBRANCH  17  18
ENDBRANCH   4  17
BRANCH   5  25
ATOM     25  S   UNL     1      38.811   1.266  12.846  0.00  0.00    +0.000 S 
BRANCH  25  26
ATOM     26  C   UNL     1      39.773  -0.184  13.220  0.00  0.00    +0.000 A 
ATOM     27  C   UNL     1      40.859  -0.089  14.087  0.00  0.00    +0.000 A 
ATOM     28  C   UNL     1      41.618  -1.218  14.389  0.00  0.00    +0.000 A 
ATOM     29  C   UNL     1      41.331  -2.444  13.856  0.00  0.00    +0.000 A 
ATOM     30  C   UNL     1      40.253  -2.548  12.992  0.00  0.00    +0.000 A 
ATOM     31  C   UNL     1      39.489  -1.415  12.687  0.00  0.00    +0.000 A 
ENDBRANCH  25  26
ENDBRANCH   5  25
TORSDOF 7
ENDMDL
MODEL 6
REMARK VINA RESULT:      -7.4      2.381      7.693
REMARK  Name = 
REMARK  7 active torsions:
REMARK  status: ('A' for Active; 'I' for Inactive)
REMARK    1  A    between atoms: C_2  and  O_3
REMARK    2  A    between atoms: O_3  and  C_4
REMARK    3  A    between atoms: C_7  and  N_8
REMARK    4  A    between atoms: C_11  and  N_12
REMARK    5  A    between atoms: N_12  and  C_13
REMARK    6  A    between atoms: C_20  and  S_21
REMARK    7  A    between atoms: S_21  and  C_22
REMARK                            x       y       z     vdW  Elec       q    Type
REMARK                         _______ _______ _______ _____ _____    ______ ____
ROOT
ATOM      1  N   UNL     1      38.169   5.347  16.154  0.00  0.00    +0.000 N 
ATOM      2  C   UNL     1      37.465   4.103  16.143  0.00  0.00    +0.000 C 
ATOM      3  O   UNL     1      37.795   3.169  16.940  0.00  0.00    +0.000 OA
ATOM      4  C   UNL     1      36.421   4.155  15.138  0.00  0.00    +0.000 C 
ATOM      5  C   UNL     1      36.461   5.357  14.548  0.00  0.00    +0.000 C 
ATOM      6  C   UNL     1      37.529   6.137  15.143  0.00  0.00    +0.000 C 
ATOM      7  O   UNL     1      37.857   7.310  14.838  0.00  0.00    +0.000 OA
ENDROOT
BRANCH   1  11
ATOM      8  C   UNL     1      41.352   6.432  18.649  0.00  0.00    +0.000 A 
ATOM      9  C   UNL     1      40.110   6.161  19.168  0.00  0.00    +0.000 A 
ATOM     10  C   UNL     1      39.077   5.809  18.340  0.00  0.00    +0.000 A 
ATOM     11  C   UNL     1      39.257   5.719  16.982  0.00  0.00    +0.000 A 
ATOM     12  C   UNL     1      40.506   5.995  16.489  0.00  0.00    +0.000 A 
ATOM     13  C   UNL     1      41.572   6.352  17.286  0.00  0.00    +0.000 A 
BRANCH   8  14
ATOM     14  O   UNL     1      42.372   6.785  19.515  0.00  0.00    +0.000 OA
BRANCH  14  16
ATOM     15  C   UNL     1      43.584   5.905  21.429  0.00  0.00    +0.000 C 
ATOM     16  C   UNL     1      42.294   6.470  20.873  0.00  0.00    +0.000 C 
ENDBRANCH  14  16
ENDBRANCH   8  14
ENDBRANCH   1  11
BRANCH   4  17
ATOM     17  N   UNL     1      35.519   3.125  14.834  0.00  0.00    +0.000 NA
BRANCH  17  18
ATOM     18  C   UNL     1      35.907   1.796  14.654  0.00  0.00    +0.000 A 
ATOM     19  C   UNL     1      36.597   1.364  13.557  0.00  0.00    +0.000 A 
ATOM     20  C   UNL     1      36.966   0.060  13.413  0.00  0.00    +0.000 A 
ATOM     21  C   UNL     1      36.647  -0.885  14.391  0.00  0.00    +0.000 A 
ATOM     22  C   UNL     1      35.951  -0.431  15.489  0.00  0.00    +0.000 A 
ATOM     23  C   UNL     1      35.571   0.873  15.655  0.00  0.00    +0.000 A 
ATOM     24  C   UNL     1      34.812   1.345  16.859  0.00  0.00    +0.000 C 
ENDBRANCH  17  18
ENDBRANCH   4  17
BRANCH   5  25
ATOM     25  S   UNL     1      35.355   5.864  13.247  0.00  0.00    +0.000 S 
BRANCH  25  26
ATOM     26  C   UNL     1      34.884   7.571  13.433  0.00  0.00    +0.000 A 
ATOM     27  C   UNL     1      34.204   7.979  14.579  0.00  0.00    +0.000 A 
ATOM     28  C   UNL     1      33.834   9.314  14.737  0.00  0.00    +0.000 A 
ATOM     29  C   UNL     1      34.118  10.258  13.791  0.00  0.00    +0.000 A 
ATOM     30  C   UNL     1      34.794   9.861  12.649  0.00  0.00    +0.000 A 
ATOM     31  C   UNL     1      35.167   8.522  12.487  0.00  0.00    +0.000 A 
ENDBRANCH  25  26
ENDBRANCH   5  25
TORSDOF 7
ENDMDL
MODEL 7
REMARK VINA RESULT:      -7.4      1.273      5.603
REMARK  Name = 
REMARK  7 active torsions:
REMARK  status: ('A' for Active; 'I' for Inactive)
REMARK    1  A    between atoms: C_2  and  O_3
REMARK    2  A    between atoms: O_3  and  C_4
REMARK    3  A    between atoms: C_7  and  N_8
REMARK    4  A    between atoms: C_11  and  N_12
REMARK    5  A    between atoms: N_12  and  C_13
REMARK    6  A    between atoms: C_20  and  S_21
REMARK    7  A    between atoms: S_21  and  C_22
REMARK                            x       y       z     vdW  Elec       q    Type
REMARK                         _______ _______ _______ _____ _____    ______ ____
ROOT
ATOM      1  N   UNL     1      36.980   2.467  15.488  0.00  0.00    +0.000 N 
ATOM      2  C   UNL     1      37.371   3.512  16.382  0.00  0.00    +0.000 C 
ATOM      3  O   UNL     1      37.439   3.296  17.634  0.00  0.00    +0.000 OA
ATOM      4  C   UNL     1      37.637   4.717  15.621  0.00  0.00    +0.000 C 
ATOM      5  C   UNL     1      37.427   4.454  14.324  0.00  0.00    +0.000 C 
ATOM      6  C   UNL     1      37.018   3.069  14.186  0.00  0.00    +0.000 C 
ATOM      7  O   UNL     1      36.737   2.475  13.116  0.00  0.00    +0.000 OA
ENDROOT
BRANCH   1  11
ATOM      8  C   UNL     1      36.013  -1.494  16.438  0.00  0.00    +0.000 A 
ATOM      9  C   UNL     1      37.209  -1.185  15.838  0.00  0.00    +0.000 A 
ATOM     10  C   UNL     1      37.512   0.116  15.531  0.00  0.00    +0.000 A 
ATOM     11  C   UNL     1      36.634   1.133  15.813  0.00  0.00    +0.000 A 
ATOM     12  C   UNL     1      35.447   0.797  16.411  0.00  0.00    +0.000 A 
ATOM     13  C   UNL     1      35.103  -0.496  16.737  0.00  0.00    +0.000 A 
BRANCH   8  14
ATOM     14  O   UNL     1      35.740  -2.818  16.733  0.00  0.00    +0.000 OA
BRANCH  14  16
ATOM     15  C   UNL     1      34.394  -3.978  15.074  0.00  0.00    +0.000 C 
ATOM     16  C   UNL     1      35.747  -3.788  15.728  0.00  0.00    +0.000 C 
ENDBRANCH  14  16
ENDBRANCH   8  14
ENDBRANCH   1  11
BRANCH   4  17
ATOM     17  N   UNL     1      38.048   5.950  16.148  0.00  0.00    +0.000 NA
BRANCH  17  18
ATOM     18  C   UNL     1      39.030   6.073  17.132  0.00  0.00    +0.000 A 
ATOM     19  C   UNL     1      38.745   6.127  18.467  0.00  0.00    +0.000 A 
ATOM     20  C   UNL     1      39.728   6.241  19.404  0.00  0.00    +0.000 A 
ATOM     21  C   UNL     1      41.071   6.308  19.026  0.00  0.00    +0.000 A 
ATOM     22  C   UNL     1      41.339   6.251  17.677  0.00  0.00    +0.000 A 
ATOM     23  C   UNL     1      40.369   6.136  16.719  0.00  0.00    +0.000 A 
ATOM     24  C   UNL     1      40.685   6.077  15.254  0.00  0.00    +0.000 C 
ENDBRANCH  17  18
ENDBRANCH   4  17
BRANCH   5  25
ATOM     25  S   UNL     1      37.634   5.649  13.019  0.00  0.00    +0.000 S 
BRANCH  25  26
ATOM     26  C   UNL     1      36.061   6.260  12.453  0.00  0.00    +0.000 A 
ATOM     27  C   UNL     1      35.898   6.617  11.116  0.00  0.00    +0.000 A 
ATOM     28  C   UNL     1      34.670   7.093  10.661  0.00  0.00    +0.000 A 
ATOM     29  C   UNL     1      33.595   7.227  11.494  0.00  0.00    +0.000 A 
ATOM     30  C   UNL     1      33.747   6.874  12.825  0.00  0.00    +0.000 A 
ATOM     31  C   UNL     1      34.979   6.395  13.285  0.00  0.00    +0.000 A 
ENDBRANCH  25  26
ENDBRANCH   5  25
TORSDOF 7
ENDMDL
MODEL 8
REMARK VINA RESULT:      -7.3     23.926     26.315
REMARK  Name = 
REMARK  7 active torsions:
REMARK  status: ('A' for Active; 'I' for Inactive)
REMARK    1  A    between atoms: C_2  and  O_3
REMARK    2  A    between atoms: O_3  and  C_4
REMARK    3  A    between atoms: C_7  and  N_8
REMARK    4  A    between atoms: C_11  and  N_12
REMARK    5  A    between atoms: N_12  and  C_13
REMARK    6  A    between atoms: C_20  and  S_21
REMARK    7  A    between atoms: S_21  and  C_22
REMARK                            x       y       z     vdW  Elec       q    Type
REMARK                         _______ _______ _______ _____ _____    ______ ____
ROOT
ATOM      1  N   UNL     1      15.291  -0.116  27.033  0.00  0.00    +0.000 N 
ATOM      2  C   UNL     1      13.955  -0.339  26.575  0.00  0.00    +0.000 C 
ATOM      3  O   UNL     1      13.732  -0.634  25.358  0.00  0.00    +0.000 OA
ATOM      4  C   UNL     1      13.036  -0.172  27.684  0.00  0.00    +0.000 C 
ATOM      5  C   UNL     1      13.744   0.138  28.778  0.00  0.00    +0.000 C 
ATOM      6  C   UNL     1      15.151   0.185  28.428  0.00  0.00    +0.000 C 
ATOM      7  O   UNL     1      16.105   0.445  29.202  0.00  0.00    +0.000 OA
ENDROOT
BRANCH   1  11
ATOM      8  C   UNL     1      18.835  -0.248  24.809  0.00  0.00    +0.000 A 
ATOM      9  C   UNL     1      18.279   0.952  25.178  0.00  0.00    +0.000 A 
ATOM     10  C   UNL     1      17.117   0.981  25.905  0.00  0.00    +0.000 A 
ATOM     11  C   UNL     1      16.487  -0.180  26.278  0.00  0.00    +0.000 A 
ATOM     12  C   UNL     1      17.062  -1.364  25.895  0.00  0.00    +0.000 A 
ATOM     13  C   UNL     1      18.228  -1.438  25.165  0.00  0.00    +0.000 A 
BRANCH   8  14
ATOM     14  O   UNL     1      20.008  -0.239  24.075  0.00  0.00    +0.000 OA
BRANCH  14  16
ATOM     15  C   UNL     1      20.842  -0.538  21.811  0.00  0.00    +0.000 C 
ATOM     16  C   UNL     1      20.209  -1.156  23.041  0.00  0.00    +0.000 C 
ENDBRANCH  14  16
ENDBRANCH   8  14
ENDBRANCH   1  11
BRANCH   4  17
ATOM     17  N   UNL     1      11.642  -0.314  27.627  0.00  0.00    +0.000 NA
BRANCH  17  18
ATOM     18  C   UNL     1      10.827   0.458  26.796  0.00  0.00    +0.000 A 
ATOM     19  C   UNL     1      10.728   1.816  26.905  0.00  0.00    +0.000 A 
ATOM     20  C   UNL     1       9.927   2.543  26.074  0.00  0.00    +0.000 A 
ATOM     21  C   UNL     1       9.177   1.916  25.077  0.00  0.00    +0.000 A 
ATOM     22  C   UNL     1       9.290   0.547  24.983  0.00  0.00    +0.000 A 
ATOM     23  C   UNL     1      10.087  -0.202  25.805  0.00  0.00    +0.000 A 
ATOM     24  C   UNL     1      10.194  -1.693  25.685  0.00  0.00    +0.000 C 
ENDBRANCH  17  18
ENDBRANCH   4  17
BRANCH   5  25
ATOM     25  S   UNL     1      13.024   0.433  30.380  0.00  0.00    +0.000 S 
BRANCH  25  26
ATOM     26  C   UNL     1      13.725  -0.648  31.609  0.00  0.00    +0.000 A 
ATOM     27  C   UNL     1      13.157  -1.901  31.831  0.00  0.00    +0.000 A 
ATOM     28  C   UNL     1      13.700  -2.757  32.788  0.00  0.00    +0.000 A 
ATOM     29  C   UNL     1      14.790  -2.407  33.534  0.00  0.00    +0.000 A 
ATOM     30  C   UNL     1      15.361  -1.163  33.319  0.00  0.00    +0.000 A 
ATOM     31  C   UNL     1      14.819  -0.301  32.359  0.00  0.00    +0.000 A 
ENDBRANCH  25  26
ENDBRANCH   5  25
TORSDOF 7
ENDMDL
MODEL 9
REMARK VINA RESULT:      -7.3     25.539     28.067
REMARK  Name = 
REMARK  7 active torsions:
REMARK  status: ('A' for Active; 'I' for Inactive)
REMARK    1  A    between atoms: C_2  and  O_3
REMARK    2  A    between atoms: O_3  and  C_4
REMARK    3  A    between atoms: C_7  and  N_8
REMARK    4  A    between atoms: C_11  and  N_12
REMARK    5  A    between atoms: N_12  and  C_13
REMARK    6  A    between atoms: C_20  and  S_21
REMARK    7  A    between atoms: S_21  and  C_22
REMARK                            x       y       z     vdW  Elec       q    Type
REMARK                         _______ _______ _______ _____ _____    ______ ____
ROOT
ATOM      1  N   UNL     1      26.446  14.120  39.939  0.00  0.00    +0.000 N 
ATOM      2  C   UNL     1      27.627  14.853  39.603  0.00  0.00    +0.000 C 
ATOM      3  O   UNL     1      28.740  14.567  40.150  0.00  0.00    +0.000 OA
ATOM      4  C   UNL     1      27.297  15.865  38.619  0.00  0.00    +0.000 C 
ATOM      5  C   UNL     1      25.988  15.781  38.347  0.00  0.00    +0.000 C 
ATOM      6  C   UNL     1      25.412  14.712  39.141  0.00  0.00    +0.000 C 
ATOM      7  O   UNL     1      24.210  14.348  39.146  0.00  0.00    +0.000 OA
ENDROOT
BRANCH   1  11
ATOM      8  C   UNL     1      26.126  10.917  42.616  0.00  0.00    +0.000 A 
ATOM      9  C   UNL     1      26.813  10.782  41.434  0.00  0.00    +0.000 A 
ATOM     10  C   UNL     1      26.909  11.839  40.567  0.00  0.00    +0.000 A 
ATOM     11  C   UNL     1      26.325  13.047  40.855  0.00  0.00    +0.000 A 
ATOM     12  C   UNL     1      25.644  13.154  42.041  0.00  0.00    +0.000 A 
ATOM     13  C   UNL     1      25.525  12.119  42.941  0.00  0.00    +0.000 A 
BRANCH   8  14
ATOM     14  O   UNL     1      26.050   9.830  43.468  0.00  0.00    +0.000 OA
BRANCH  14  16
ATOM     15  C   UNL     1      26.930   7.627  42.932  0.00  0.00    +0.000 C 
ATOM     16  C   UNL     1      27.136   8.963  43.616  0.00  0.00    +0.000 C 
ENDBRANCH  14  16
ENDBRANCH   8  14
ENDBRANCH   1  11
BRANCH   4  17
ATOM     17  N   UNL     1      28.193  16.777  38.044  0.00  0.00    +0.000 NA
BRANCH  17  18
ATOM     18  C   UNL     1      28.824  16.561  36.817  0.00  0.00    +0.000 A 
ATOM     19  C   UNL     1      29.468  15.397  36.507  0.00  0.00    +0.000 A 
ATOM     20  C   UNL     1      30.070  15.213  35.298  0.00  0.00    +0.000 A 
ATOM     21  C   UNL     1      30.048  16.219  34.329  0.00  0.00    +0.000 A 
ATOM     22  C   UNL     1      29.394  17.385  34.660  0.00  0.00    +0.000 A 
ATOM     23  C   UNL     1      28.783  17.591  35.866  0.00  0.00    +0.000 A 
ATOM     24  C   UNL     1      28.077  18.870  36.205  0.00  0.00    +0.000 C 
ENDBRANCH  17  18
ENDBRANCH   4  17
BRANCH   5  25
ATOM     25  S   UNL     1      25.141  16.836  37.189  0.00  0.00    +0.000 S 
BRANCH  25  26
ATOM     26  C   UNL     1      25.377  16.273  35.517  0.00  0.00    +0.000 A 
ATOM     27  C   UNL     1      25.938  15.020  35.282  0.00  0.00    +0.000 A 
ATOM     28  C   UNL     1      26.124  14.567  33.977  0.00  0.00    +0.000 A 
ATOM     29  C   UNL     1      25.770  15.322  32.894  0.00  0.00    +0.000 A 
ATOM     30  C   UNL     1      25.211  16.570  33.118  0.00  0.00    +0.000 A 
ATOM     31  C   UNL     1      25.023  17.027  34.427  0.00  0.00    +0.000 A 
ENDBRANCH  25  26
ENDBRANCH   5  25
TORSDOF 7
ENDMDL
MODEL 10
REMARK VINA RESULT:      -7.3      3.144      8.705
REMARK  Name = 
REMARK  7 active torsions:
REMARK  status: ('A' for Active; 'I' for Inactive)
REMARK    1  A    between atoms: C_2  and  O_3
REMARK    2  A    between atoms: O_3  and  C_4
REMARK    3  A    between atoms: C_7  and  N_8
REMARK    4  A    between atoms: C_11  and  N_12
REMARK    5  A    between atoms: N_12  and  C_13
REMARK    6  A    between atoms: C_20  and  S_21
REMARK    7  A    between atoms: S_21  and  C_22
REMARK                            x       y       z     vdW  Elec       q    Type
REMARK                         _______ _______ _______ _____ _____    ______ ____
ROOT
ATOM      1  N   UNL     1      38.212   6.257  17.230  0.00  0.00    +0.000 N 
ATOM      2  C   UNL     1      38.325   4.833  17.291  0.00  0.00    +0.000 C 
ATOM      3  O   UNL     1      38.599   4.256  18.392  0.00  0.00    +0.000 OA
ATOM      4  C   UNL     1      38.084   4.277  15.974  0.00  0.00    +0.000 C 
ATOM      5  C   UNL     1      37.834   5.285  15.128  0.00  0.00    +0.000 C 
ATOM      6  C   UNL     1      37.901   6.538  15.858  0.00  0.00    +0.000 C 
ATOM      7  O   UNL     1      37.721   7.688  15.387  0.00  0.00    +0.000 OA
ENDROOT
BRANCH   1  11
ATOM      8  C   UNL     1      38.740   8.994  20.353  0.00  0.00    +0.000 A 
ATOM      9  C   UNL     1      39.796   8.260  19.874  0.00  0.00    +0.000 A 
ATOM     10  C   UNL     1      39.609   7.366  18.852  0.00  0.00    +0.000 A 
ATOM     11  C   UNL     1      38.371   7.185  18.288  0.00  0.00    +0.000 A 
ATOM     12  C   UNL     1      37.333   7.930  18.785  0.00  0.00    +0.000 A 
ATOM     13  C   UNL     1      37.477   8.839  19.810  0.00  0.00    +0.000 A 
BRANCH   8  14
ATOM     14  O   UNL     1      38.965   9.887  21.385  0.00  0.00    +0.000 OA
BRANCH  14  16
ATOM     15  C   UNL     1      38.408  12.197  20.871  0.00  0.00    +0.000 C 
ATOM     16  C   UNL     1      39.481  11.159  21.127  0.00  0.00    +0.000 C 
ENDBRANCH  14  16
ENDBRANCH   8  14
ENDBRANCH   1  11
BRANCH   4  17
ATOM     17  N   UNL     1      38.104   2.916  15.639  0.00  0.00    +0.000 NA
BRANCH  17  18
ATOM     18  C   UNL     1      37.057   2.039  15.932  0.00  0.00    +0.000 A 
ATOM     19  C   UNL     1      35.908   2.435  16.554  0.00  0.00    +0.000 A 
ATOM     20  C   UNL     1      34.901   1.556  16.822  0.00  0.00    +0.000 A 
ATOM     21  C   UNL     1      35.015   0.210  16.466  0.00  0.00    +0.000 A 
ATOM     22  C   UNL     1      36.180  -0.170  15.839  0.00  0.00    +0.000 A 
ATOM     23  C   UNL     1      37.203   0.695  15.560  0.00  0.00    +0.000 A 
ATOM     24  C   UNL     1      38.465   0.259  14.878  0.00  0.00    +0.000 C 
ENDBRANCH  17  18
ENDBRANCH   4  17
BRANCH   5  25
ATOM     25  S   UNL     1      37.481   5.068  13.396  0.00  0.00    +0.000 S 
BRANCH  25  26
ATOM     26  C   UNL     1      35.954   5.866  12.947  0.00  0.00    +0.000 A 
ATOM     27  C   UNL     1      34.963   6.053  13.908  0.00  0.00    +0.000 A 
ATOM     28  C   UNL     1      33.765   6.679  13.568  0.00  0.00    +0.000 A 
ATOM     29  C   UNL     1      33.519   7.127  12.301  0.00  0.00    +0.000 A 
ATOM     30  C   UNL     1      34.500   6.946  11.338  0.00  0.00    +0.000 A 
ATOM     31  C   UNL     1      35.704   6.317  11.677  0.00  0.00    +0.000 A 
ENDBRANCH  25  26
ENDBRANCH   5  25
TORSDOF 7
ENDMDL
