MODEL 1
REMARK VINA RESULT:      -8.5      0.000      0.000
REMARK  Name = 
REMARK  7 active torsions:
REMARK  status: ('A' for Active; 'I' for Inactive)
REMARK    1  A    between atoms: O_2  and  C_3
REMARK    2  A    between atoms: C_6  and  C_7
REMARK    3  A    between atoms: C_9  and  C_10
REMARK    4  A    between atoms: N_12  and  C_13
REMARK    5  A    between atoms: C_13  and  C_14
REMARK    6  A    between atoms: C_14  and  C_15
REMARK    7  A    between atoms: C_23  and  C_24
REMARK                            x       y       z     vdW  Elec       q    Type
REMARK                         _______ _______ _______ _____ _____    ______ ____
ROOT
ATOM      1  C   UNL     1      41.024  -1.849  14.568  0.00  0.00    +0.000 A 
ATOM      2  C   UNL     1      40.426  -0.622  14.288  0.00  0.00    +0.000 A 
ATOM      3  C   UNL     1      39.239  -0.255  14.884  0.00  0.00    +0.000 A 
ATOM      4  C   UNL     1      38.605  -1.089  15.781  0.00  0.00    +0.000 A 
ATOM      5  C   UNL     1      37.422  -0.781  16.409  0.00  0.00    +0.000 A 
ATOM      6  C   UNL     1      36.817  -1.653  17.306  0.00  0.00    +0.000 A 
ATOM      7  C   UNL     1      37.470  -2.848  17.534  0.00  0.00    +0.000 A 
ATOM      8  C   UNL     1      38.647  -3.205  16.937  0.00  0.00    +0.000 A 
ATOM      9  C   UNL     1      39.224  -2.308  16.043  0.00  0.00    +0.000 A 
ATOM     10  N   UNL     1      40.383  -2.635  15.443  0.00  0.00    +0.000 NA
ENDROOT
BRANCH   1  14
ATOM     11  C   UNL     1      44.626  -3.033  12.667  0.00  0.00    +0.000 A 
ATOM     12  C   UNL     1      43.417  -3.497  12.210  0.00  0.00    +0.000 A 
ATOM     13  C   UNL     1      42.251  -3.090  12.855  0.00  0.00    +0.000 A 
ATOM     14  C   UNL     1      42.282  -2.239  13.936  0.00  0.00    +0.000 A 
ATOM     15  C   UNL     1      43.487  -1.778  14.389  0.00  0.00    +0.000 A 
ATOM     16  C   UNL     1      44.654  -2.188  13.740  0.00  0.00    +0.000 A 
BRANCH  11  18
ATOM     17  C   UNL     1      45.939  -4.715  11.484  0.00  0.00    +0.000 C 
ATOM     18  O   UNL     1      45.802  -3.435  12.027  0.00  0.00    +0.000 OA
ENDBRANCH  11  18
ENDBRANCH   1  14
BRANCH   3  19
ATOM     19  C   UNL     1      38.612   1.045  14.581  0.00  0.00    +0.000 C 
ATOM     20  O   UNL     1      37.778   1.167  13.647  0.00  0.00    +0.000 OA
ATOM     21  N   UNL     1      38.924   2.210  15.332  0.00  0.00    +0.000 NA
BRANCH  21  22
ATOM     22  C   UNL     1      38.362   3.505  15.105  0.00  0.00    +0.000 C 
BRANCH  22  23
ATOM     23  C   UNL     1      37.888   4.202  16.338  0.00  0.00    +0.000 C 
BRANCH  23  24
ATOM     24  C   UNL     1      38.942   4.969  17.032  0.00  0.00    +0.000 A 
ATOM     25  C   UNL     1      39.947   5.548  16.272  0.00  0.00    +0.000 A 
ATOM     26  C   UNL     1      40.917   6.258  16.928  0.00  0.00    +0.000 A 
ATOM     27  C   UNL     1      40.870   6.375  18.303  0.00  0.00    +0.000 A 
ATOM     28  C   UNL     1      39.864   5.795  19.048  0.00  0.00    +0.000 A 
ATOM     29  C   UNL     1      38.888   5.083  18.405  0.00  0.00    +0.000 A 
ENDBRANCH  23  24
ENDBRANCH  22  23
ENDBRANCH  21  22
ENDBRANCH   3  19
BRANCH   6  30
ATOM     30  C   UNL     1      35.538  -1.329  17.992  0.00  0.00    +0.000 C 
ATOM     31  C   UNL     1      34.709  -0.507  16.995  0.00  0.00    +0.000 C 
ATOM     32  C   UNL     1      35.829  -0.453  19.183  0.00  0.00    +0.000 C 
ENDBRANCH   6  30
TORSDOF 7
ENDMDL
MODEL 2
REMARK VINA RESULT:      -8.3      3.880      9.031
REMARK  Name = 
REMARK  7 active torsions:
REMARK  status: ('A' for Active; 'I' for Inactive)
REMARK    1  A    between atoms: O_2  and  C_3
REMARK    2  A    between atoms: C_6  and  C_7
REMARK    3  A    between atoms: C_9  and  C_10
REMARK    4  A    between atoms: N_12  and  C_13
REMARK    5  A    between atoms: C_13  and  C_14
REMARK    6  A    between atoms: C_14  and  C_15
REMARK    7  A    between atoms: C_23  and  C_24
REMARK                            x       y       z     vdW  Elec       q    Type
REMARK                         _______ _______ _______ _____ _____    ______ ____
ROOT
ATOM      1  C   UNL     1      38.532   4.943  17.038  0.00  0.00    +0.000 A 
ATOM      2  C   UNL     1      37.497   4.036  17.253  0.00  0.00    +0.000 A 
ATOM      3  C   UNL     1      37.245   3.018  16.359  0.00  0.00    +0.000 A 
ATOM      4  C   UNL     1      38.010   2.861  15.223  0.00  0.00    +0.000 A 
ATOM      5  C   UNL     1      37.810   1.868  14.295  0.00  0.00    +0.000 A 
ATOM      6  C   UNL     1      38.606   1.748  13.162  0.00  0.00    +0.000 A 
ATOM      7  C   UNL     1      39.613   2.683  13.019  0.00  0.00    +0.000 A 
ATOM      8  C   UNL     1      39.856   3.691  13.912  0.00  0.00    +0.000 A 
ATOM      9  C   UNL     1      39.038   3.781  15.033  0.00  0.00    +0.000 A 
ATOM     10  N   UNL     1      39.257   4.763  15.926  0.00  0.00    +0.000 NA
ENDROOT
BRANCH   1  14
ATOM     11  C   UNL     1      39.257   8.138  19.733  0.00  0.00    +0.000 A 
ATOM     12  C   UNL     1      38.519   8.346  18.594  0.00  0.00    +0.000 A 
ATOM     13  C   UNL     1      38.297   7.278  17.728  0.00  0.00    +0.000 A 
ATOM     14  C   UNL     1      38.800   6.023  17.986  0.00  0.00    +0.000 A 
ATOM     15  C   UNL     1      39.535   5.817  19.120  0.00  0.00    +0.000 A 
ATOM     16  C   UNL     1      39.755   6.891  19.986  0.00  0.00    +0.000 A 
BRANCH  11  18
ATOM     17  C   UNL     1      38.435   9.992  21.090  0.00  0.00    +0.000 C 
ATOM     18  O   UNL     1      39.484   9.203  20.608  0.00  0.00    +0.000 OA
ENDBRANCH  11  18
ENDBRANCH   1  14
BRANCH   3  19
ATOM     19  C   UNL     1      36.146   2.062  16.593  0.00  0.00    +0.000 C 
ATOM     20  O   UNL     1      34.992   2.267  16.136  0.00  0.00    +0.000 OA
ATOM     21  N   UNL     1      36.347   0.873  17.344  0.00  0.00    +0.000 NA
BRANCH  21  22
ATOM     22  C   UNL     1      35.339  -0.103  17.616  0.00  0.00    +0.000 C 
BRANCH  22  23
ATOM     23  C   UNL     1      35.384  -1.307  16.732  0.00  0.00    +0.000 C 
BRANCH  23  24
ATOM     24  C   UNL     1      36.753  -1.740  16.384  0.00  0.00    +0.000 A 
ATOM     25  C   UNL     1      37.548  -2.283  17.381  0.00  0.00    +0.000 A 
ATOM     26  C   UNL     1      38.814  -2.681  17.043  0.00  0.00    +0.000 A 
ATOM     27  C   UNL     1      39.257  -2.532  15.744  0.00  0.00    +0.000 A 
ATOM     28  C   UNL     1      38.456  -1.991  14.760  0.00  0.00    +0.000 A 
ATOM     29  C   UNL     1      37.188  -1.589  15.083  0.00  0.00    +0.000 A 
ENDBRANCH  23  24
ENDBRANCH  22  23
ENDBRANCH  21  22
ENDBRANCH   3  19
BRANCH   6  30
ATOM     30  C   UNL     1      38.399   0.677  12.153  0.00  0.00    +0.000 C 
ATOM     31  C   UNL     1      39.066   1.165  10.861  0.00  0.00    +0.000 C 
ATOM     32  C   UNL     1      36.922   0.535  11.886  0.00  0.00    +0.000 C 
ENDBRANCH   6  30
TORSDOF 7
ENDMDL
MODEL 3
REMARK VINA RESULT:      -8.1      3.848      8.618
REMARK  Name = 
REMARK  7 active torsions:
REMARK  status: ('A' for Active; 'I' for Inactive)
REMARK    1  A    between atoms: O_2  and  C_3
REMARK    2  A    between atoms: C_6  and  C_7
REMARK    3  A    between atoms: C_9  and  C_10
REMARK    4  A    between atoms: N_12  and  C_13
REMARK    5  A    between atoms: C_13  and  C_14
REMARK    6  A    between atoms: C_14  and  C_15
REMARK    7  A    between atoms: C_23  and  C_24
REMARK                            x       y       z     vdW  Elec       q    Type
REMARK                         _______ _______ _______ _____ _____    ______ ____
ROOT
ATOM      1  C   UNL     1      36.227   4.001  13.419  0.00  0.00    +0.000 A 
ATOM      2  C   UNL     1      36.974   2.949  12.893  0.00  0.00    +0.000 A 
ATOM      3  C   UNL     1      36.990   1.713  13.501  0.00  0.00    +0.000 A 
ATOM      4  C   UNL     1      36.266   1.474  14.650  0.00  0.00    +0.000 A 
ATOM      5  C   UNL     1      36.241   0.266  15.303  0.00  0.00    +0.000 A 
ATOM      6  C   UNL     1      35.496   0.069  16.460  0.00  0.00    +0.000 A 
ATOM      7  C   UNL     1      34.780   1.158  16.919  0.00  0.00    +0.000 A 
ATOM      8  C   UNL     1      34.770   2.382  16.309  0.00  0.00    +0.000 A 
ATOM      9  C   UNL     1      35.528   2.542  15.154  0.00  0.00    +0.000 A 
ATOM     10  N   UNL     1      35.534   3.736  14.535  0.00  0.00    +0.000 NA
ENDROOT
BRANCH   1  14
ATOM     11  C   UNL     1      36.176   7.762  11.459  0.00  0.00    +0.000 A 
ATOM     12  C   UNL     1      36.239   6.602  10.729  0.00  0.00    +0.000 A 
ATOM     13  C   UNL     1      36.254   5.381  11.401  0.00  0.00    +0.000 A 
ATOM     14  C   UNL     1      36.209   5.312  12.775  0.00  0.00    +0.000 A 
ATOM     15  C   UNL     1      36.145   6.469  13.500  0.00  0.00    +0.000 A 
ATOM     16  C   UNL     1      36.131   7.691  12.822  0.00  0.00    +0.000 A 
BRANCH  11  18
ATOM     17  C   UNL     1      35.030   9.435  10.103  0.00  0.00    +0.000 C 
ATOM     18  O   UNL     1      36.160   8.992  10.795  0.00  0.00    +0.000 OA
ENDBRANCH  11  18
ENDBRANCH   1  14
BRANCH   3  19
ATOM     19  C   UNL     1      37.785   0.604  12.939  0.00  0.00    +0.000 C 
ATOM     20  O   UNL     1      37.370  -0.065  11.958  0.00  0.00    +0.000 OA
ATOM     21  N   UNL     1      39.049   0.250  13.482  0.00  0.00    +0.000 NA
BRANCH  21  22
ATOM     22  C   UNL     1      39.880  -0.806  12.998  0.00  0.00    +0.000 C 
BRANCH  22  23
ATOM     23  C   UNL     1      40.278  -1.809  14.031  0.00  0.00    +0.000 C 
BRANCH  23  24
ATOM     24  C   UNL     1      39.146  -2.588  14.572  0.00  0.00    +0.000 A 
ATOM     25  C   UNL     1      39.153  -2.914  15.920  0.00  0.00    +0.000 A 
ATOM     26  C   UNL     1      38.097  -3.637  16.408  0.00  0.00    +0.000 A 
ATOM     27  C   UNL     1      37.073  -4.015  15.562  0.00  0.00    +0.000 A 
ATOM     28  C   UNL     1      37.078  -3.683  14.223  0.00  0.00    +0.000 A 
ATOM     29  C   UNL     1      38.127  -2.961  13.721  0.00  0.00    +0.000 A 
ENDBRANCH  23  24
ENDBRANCH  22  23
ENDBRANCH  21  22
ENDBRANCH   3  19
BRANCH   6  30
ATOM     30  C   UNL     1      35.461  -1.235  17.173  0.00  0.00    +0.000 C 
ATOM     31  C   UNL     1      33.979  -1.579  17.372  0.00  0.00    +0.000 C 
ATOM     32  C   UNL     1      36.083  -1.064  18.536  0.00  0.00    +0.000 C 
ENDBRANCH   6  30
TORSDOF 7
ENDMDL
MODEL 4
REMARK VINA RESULT:      -8.1     24.110     29.082
REMARK  Name = 
REMARK  7 active torsions:
REMARK  status: ('A' for Active; 'I' for Inactive)
REMARK    1  A    between atoms: O_2  and  C_3
REMARK    2  A    between atoms: C_6  and  C_7
REMARK    3  A    between atoms: C_9  and  C_10
REMARK    4  A    between atoms: N_12  and  C_13
REMARK    5  A    between atoms: C_13  and  C_14
REMARK    6  A    between atoms: C_14  and  C_15
REMARK    7  A    between atoms: C_23  and  C_24
REMARK                            x       y       z     vdW  Elec       q    Type
REMARK                         _______ _______ _______ _____ _____    ______ ____
ROOT
ATOM      1  C   UNL     1      11.920  -2.756  26.122  0.00  0.00    +0.000 A 
ATOM      2  C   UNL     1      13.029  -2.134  26.692  0.00  0.00    +0.000 A 
ATOM      3  C   UNL     1      13.065  -0.768  26.872  0.00  0.00    +0.000 A 
ATOM      4  C   UNL     1      12.004   0.028  26.497  0.00  0.00    +0.000 A 
ATOM      5  C   UNL     1      11.979   1.394  26.649  0.00  0.00    +0.000 A 
ATOM      6  C   UNL     1      10.887   2.158  26.256  0.00  0.00    +0.000 A 
ATOM      7  C   UNL     1       9.825   1.470  25.701  0.00  0.00    +0.000 A 
ATOM      8  C   UNL     1       9.798   0.114  25.526  0.00  0.00    +0.000 A 
ATOM      9  C   UNL     1      10.909  -0.619  25.931  0.00  0.00    +0.000 A 
ATOM     10  N   UNL     1      10.907  -1.955  25.770  0.00  0.00    +0.000 NA
ENDROOT
BRANCH   1  14
ATOM     11  C   UNL     1      11.761  -6.946  25.482  0.00  0.00    +0.000 A 
ATOM     12  C   UNL     1      11.208  -6.085  24.568  0.00  0.00    +0.000 A 
ATOM     13  C   UNL     1      11.276  -4.714  24.805  0.00  0.00    +0.000 A 
ATOM     14  C   UNL     1      11.881  -4.204  25.932  0.00  0.00    +0.000 A 
ATOM     15  C   UNL     1      12.432  -5.064  26.841  0.00  0.00    +0.000 A 
ATOM     16  C   UNL     1      12.361  -6.438  26.599  0.00  0.00    +0.000 A 
BRANCH  11  18
ATOM     17  C   UNL     1      12.745  -9.174  25.618  0.00  0.00    +0.000 C 
ATOM     18  O   UNL     1      11.699  -8.323  25.253  0.00  0.00    +0.000 OA
ENDBRANCH  11  18
ENDBRANCH   1  14
BRANCH   3  19
ATOM     19  C   UNL     1      14.243  -0.116  27.475  0.00  0.00    +0.000 C 
ATOM     20  O   UNL     1      14.267   0.194  28.694  0.00  0.00    +0.000 OA
ATOM     21  N   UNL     1      15.397   0.187  26.703  0.00  0.00    +0.000 NA
BRANCH  21  22
ATOM     22  C   UNL     1      16.577   0.815  27.208  0.00  0.00    +0.000 C 
BRANCH  22  23
ATOM     23  C   UNL     1      17.759  -0.090  27.331  0.00  0.00    +0.000 C 
BRANCH  23  24
ATOM     24  C   UNL     1      18.449  -0.347  26.051  0.00  0.00    +0.000 A 
ATOM     25  C   UNL     1      18.652  -1.662  25.663  0.00  0.00    +0.000 A 
ATOM     26  C   UNL     1      19.292  -1.886  24.473  0.00  0.00    +0.000 A 
ATOM     27  C   UNL     1      19.712  -0.817  23.707  0.00  0.00    +0.000 A 
ATOM     28  C   UNL     1      19.503   0.488  24.104  0.00  0.00    +0.000 A 
ATOM     29  C   UNL     1      18.865   0.727  25.291  0.00  0.00    +0.000 A 
ENDBRANCH  23  24
ENDBRANCH  22  23
ENDBRANCH  21  22
ENDBRANCH   3  19
BRANCH   6  30
ATOM     30  C   UNL     1      10.849   3.636  26.418  0.00  0.00    +0.000 C 
ATOM     31  C   UNL     1      12.184   4.034  27.061  0.00  0.00    +0.000 C 
ATOM     32  C   UNL     1       9.747   3.994  27.382  0.00  0.00    +0.000 C 
ENDBRANCH   6  30
TORSDOF 7
ENDMDL
MODEL 5
REMARK VINA RESULT:      -7.9     23.643     28.872
REMARK  Name = 
REMARK  7 active torsions:
REMARK  status: ('A' for Active; 'I' for Inactive)
REMARK    1  A    between atoms: O_2  and  C_3
REMARK    2  A    between atoms: C_6  and  C_7
REMARK    3  A    between atoms: C_9  and  C_10
REMARK    4  A    between atoms: N_12  and  C_13
REMARK    5  A    between atoms: C_13  and  C_14
REMARK    6  A    between atoms: C_14  and  C_15
REMARK    7  A    between atoms: C_23  and  C_24
REMARK                            x       y       z     vdW  Elec       q    Type
REMARK                         _______ _______ _______ _____ _____    ______ ____
ROOT
ATOM      1  C   UNL     1      11.849  -0.925  26.384  0.00  0.00    +0.000 A 
ATOM      2  C   UNL     1      13.164  -0.562  26.097  0.00  0.00    +0.000 A 
ATOM      3  C   UNL     1      14.044  -0.220  27.101  0.00  0.00    +0.000 A 
ATOM      4  C   UNL     1      13.653  -0.226  28.423  0.00  0.00    +0.000 A 
ATOM      5  C   UNL     1      14.482   0.106  29.468  0.00  0.00    +0.000 A 
ATOM      6  C   UNL     1      14.046   0.086  30.788  0.00  0.00    +0.000 A 
ATOM      7  C   UNL     1      12.731  -0.285  30.993  0.00  0.00    +0.000 A 
ATOM      8  C   UNL     1      11.864  -0.623  29.990  0.00  0.00    +0.000 A 
ATOM      9  C   UNL     1      12.335  -0.592  28.682  0.00  0.00    +0.000 A 
ATOM     10  N   UNL     1      11.502  -0.921  27.678  0.00  0.00    +0.000 NA
ENDROOT
BRANCH   1  14
ATOM     11  C   UNL     1       9.197  -2.060  23.275  0.00  0.00    +0.000 A 
ATOM     12  C   UNL     1      10.328  -2.796  23.523  0.00  0.00    +0.000 A 
ATOM     13  C   UNL     1      11.180  -2.399  24.551  0.00  0.00    +0.000 A 
ATOM     14  C   UNL     1      10.916  -1.289  25.320  0.00  0.00    +0.000 A 
ATOM     15  C   UNL     1       9.788  -0.557  25.072  0.00  0.00    +0.000 A 
ATOM     16  C   UNL     1       8.936  -0.959  24.041  0.00  0.00    +0.000 A 
BRANCH  11  18
ATOM     17  C   UNL     1       8.458  -3.694  21.620  0.00  0.00    +0.000 C 
ATOM     18  O   UNL     1       8.334  -2.451  22.247  0.00  0.00    +0.000 OA
ENDBRANCH  11  18
ENDBRANCH   1  14
BRANCH   3  19
ATOM     19  C   UNL     1      15.434   0.164  26.788  0.00  0.00    +0.000 C 
ATOM     20  O   UNL     1      15.822   1.355  26.894  0.00  0.00    +0.000 OA
ATOM     21  N   UNL     1      16.387  -0.797  26.357  0.00  0.00    +0.000 NA
BRANCH  21  22
ATOM     22  C   UNL     1      17.750  -0.510  26.036  0.00  0.00    +0.000 C 
BRANCH  22  23
ATOM     23  C   UNL     1      18.523  -1.674  25.509  0.00  0.00    +0.000 C 
BRANCH  23  24
ATOM     24  C   UNL     1      19.297  -1.373  24.288  0.00  0.00    +0.000 A 
ATOM     25  C   UNL     1      19.665  -0.058  24.047  0.00  0.00    +0.000 A 
ATOM     26  C   UNL     1      20.384   0.207  22.911  0.00  0.00    +0.000 A 
ATOM     27  C   UNL     1      20.716  -0.822  22.053  0.00  0.00    +0.000 A 
ATOM     28  C   UNL     1      20.344  -2.127  22.305  0.00  0.00    +0.000 A 
ATOM     29  C   UNL     1      19.626  -2.406  23.436  0.00  0.00    +0.000 A 
ENDBRANCH  23  24
ENDBRANCH  22  23
ENDBRANCH  21  22
ENDBRANCH   3  19
BRANCH   6  30
ATOM     30  C   UNL     1      14.934   0.441  31.925  0.00  0.00    +0.000 C 
ATOM     31  C   UNL     1      14.981  -0.791  32.838  0.00  0.00    +0.000 C 
ATOM     32  C   UNL     1      14.306   1.569  32.704  0.00  0.00    +0.000 C 
ENDBRANCH   6  30
TORSDOF 7
ENDMDL
MODEL 6
REMARK VINA RESULT:      -7.8      1.983      2.705
REMARK  Name = 
REMARK  7 active torsions:
REMARK  status: ('A' for Active; 'I' for Inactive)
REMARK    1  A    between atoms: O_2  and  C_3
REMARK    2  A    between atoms: C_6  and  C_7
REMARK    3  A    between atoms: C_9  and  C_10
REMARK    4  A    between atoms: N_12  and  C_13
REMARK    5  A    between atoms: C_13  and  C_14
REMARK    6  A    between atoms: C_14  and  C_15
REMARK    7  A    between atoms: C_23  and  C_24
REMARK                            x       y       z     vdW  Elec       q    Type
REMARK                         _______ _______ _______ _____ _____    ______ ____
ROOT
ATOM      1  C   UNL     1      40.966  -1.780  14.277  0.00  0.00    +0.000 A 
ATOM      2  C   UNL     1      40.188  -0.923  13.501  0.00  0.00    +0.000 A 
ATOM      3  C   UNL     1      38.930  -0.536  13.911  0.00  0.00    +0.000 A 
ATOM      4  C   UNL     1      38.400  -0.983  15.103  0.00  0.00    +0.000 A 
ATOM      5  C   UNL     1      37.154  -0.634  15.566  0.00  0.00    +0.000 A 
ATOM      6  C   UNL     1      36.659  -1.109  16.774  0.00  0.00    +0.000 A 
ATOM      7  C   UNL     1      37.488  -1.952  17.487  0.00  0.00    +0.000 A 
ATOM      8  C   UNL     1      38.736  -2.332  17.073  0.00  0.00    +0.000 A 
ATOM      9  C   UNL     1      39.199  -1.838  15.858  0.00  0.00    +0.000 A 
ATOM     10  N   UNL     1      40.422  -2.195  15.429  0.00  0.00    +0.000 NA
ENDROOT
BRANCH   1  14
ATOM     11  C   UNL     1      44.796  -3.026  12.947  0.00  0.00    +0.000 A 
ATOM     12  C   UNL     1      43.664  -3.487  12.324  0.00  0.00    +0.000 A 
ATOM     13  C   UNL     1      42.419  -3.060  12.784  0.00  0.00    +0.000 A 
ATOM     14  C   UNL     1      42.299  -2.191  13.844  0.00  0.00    +0.000 A 
ATOM     15  C   UNL     1      43.429  -1.732  14.463  0.00  0.00    +0.000 A 
ATOM     16  C   UNL     1      44.674  -2.162  13.999  0.00  0.00    +0.000 A 
BRANCH  11  18
ATOM     17  C   UNL     1      47.197  -2.675  12.693  0.00  0.00    +0.000 C 
ATOM     18  O   UNL     1      46.049  -3.447  12.494  0.00  0.00    +0.000 OA
ENDBRANCH  11  18
ENDBRANCH   1  14
BRANCH   3  19
ATOM     19  C   UNL     1      38.112   0.371  13.084  0.00  0.00    +0.000 C 
ATOM     20  O   UNL     1      37.127  -0.053  12.427  0.00  0.00    +0.000 OA
ATOM     21  N   UNL     1      38.406   1.758  12.995  0.00  0.00    +0.000 NA
BRANCH  21  22
ATOM     22  C   UNL     1      37.666   2.704  12.220  0.00  0.00    +0.000 C 
BRANCH  22  23
ATOM     23  C   UNL     1      37.065   3.821  13.008  0.00  0.00    +0.000 C 
BRANCH  23  24
ATOM     24  C   UNL     1      36.586   3.417  14.345  0.00  0.00    +0.000 A 
ATOM     25  C   UNL     1      37.397   3.668  15.442  0.00  0.00    +0.000 A 
ATOM     26  C   UNL     1      36.939   3.289  16.676  0.00  0.00    +0.000 A 
ATOM     27  C   UNL     1      35.707   2.678  16.793  0.00  0.00    +0.000 A 
ATOM     28  C   UNL     1      34.908   2.435  15.694  0.00  0.00    +0.000 A 
ATOM     29  C   UNL     1      35.353   2.808  14.455  0.00  0.00    +0.000 A 
ENDBRANCH  23  24
ENDBRANCH  22  23
ENDBRANCH  21  22
ENDBRANCH   3  19
BRANCH   6  30
ATOM     30  C   UNL     1      35.313  -0.736  17.285  0.00  0.00    +0.000 C 
ATOM     31  C   UNL     1      35.481  -0.459  18.784  0.00  0.00    +0.000 C 
ATOM     32  C   UNL     1      34.388  -1.917  17.134  0.00  0.00    +0.000 C 
ENDBRANCH   6  30
TORSDOF 7
ENDMDL
MODEL 7
REMARK VINA RESULT:      -7.7      4.387      9.037
REMARK  Name = 
REMARK  7 active torsions:
REMARK  status: ('A' for Active; 'I' for Inactive)
REMARK    1  A    between atoms: O_2  and  C_3
REMARK    2  A    between atoms: C_6  and  C_7
REMARK    3  A    between atoms: C_9  and  C_10
REMARK    4  A    between atoms: N_12  and  C_13
REMARK    5  A    between atoms: C_13  and  C_14
REMARK    6  A    between atoms: C_14  and  C_15
REMARK    7  A    between atoms: C_23  and  C_24
REMARK                            x       y       z     vdW  Elec       q    Type
REMARK                         _______ _______ _______ _____ _____    ______ ____
ROOT
ATOM      1  C   UNL     1      39.181   5.892  17.052  0.00  0.00    +0.000 A 
ATOM      2  C   UNL     1      38.505   4.675  16.977  0.00  0.00    +0.000 A 
ATOM      3  C   UNL     1      37.546   4.450  16.014  0.00  0.00    +0.000 A 
ATOM      4  C   UNL     1      37.224   5.421  15.089  0.00  0.00    +0.000 A 
ATOM      5  C   UNL     1      36.279   5.258  14.105  0.00  0.00    +0.000 A 
ATOM      6  C   UNL     1      35.985   6.265  13.193  0.00  0.00    +0.000 A 
ATOM      7  C   UNL     1      36.697   7.441  13.329  0.00  0.00    +0.000 A 
ATOM      8  C   UNL     1      37.647   7.656  14.289  0.00  0.00    +0.000 A 
ATOM      9  C   UNL     1      37.914   6.626  15.185  0.00  0.00    +0.000 A 
ATOM     10  N   UNL     1      38.845   6.813  16.138  0.00  0.00    +0.000 NA
ENDROOT
BRANCH   1  14
ATOM     11  C   UNL     1      42.201   6.597  19.944  0.00  0.00    +0.000 A 
ATOM     12  C   UNL     1      42.512   6.589  18.607  0.00  0.00    +0.000 A 
ATOM     13  C   UNL     1      41.498   6.354  17.681  0.00  0.00    +0.000 A 
ATOM     14  C   UNL     1      40.198   6.131  18.073  0.00  0.00    +0.000 A 
ATOM     15  C   UNL     1      39.891   6.140  19.405  0.00  0.00    +0.000 A 
ATOM     16  C   UNL     1      40.910   6.376  20.331  0.00  0.00    +0.000 A 
BRANCH  11  18
ATOM     17  C   UNL     1      44.529   7.081  20.492  0.00  0.00    +0.000 C 
ATOM     18  O   UNL     1      43.211   6.832  20.882  0.00  0.00    +0.000 OA
ENDBRANCH  11  18
ENDBRANCH   1  14
BRANCH   3  19
ATOM     19  C   UNL     1      36.835   3.160  15.943  0.00  0.00    +0.000 C 
ATOM     20  O   UNL     1      35.594   3.086  16.130  0.00  0.00    +0.000 OA
ATOM     21  N   UNL     1      37.524   1.950  15.661  0.00  0.00    +0.000 NA
BRANCH  21  22
ATOM     22  C   UNL     1      36.912   0.661  15.573  0.00  0.00    +0.000 C 
BRANCH  22  23
ATOM     23  C   UNL     1      36.288   0.181  16.842  0.00  0.00    +0.000 C 
BRANCH  23  24
ATOM     24  C   UNL     1      37.054  -0.885  17.518  0.00  0.00    +0.000 A 
ATOM     25  C   UNL     1      36.870  -1.070  18.879  0.00  0.00    +0.000 A 
ATOM     26  C   UNL     1      37.587  -2.062  19.493  0.00  0.00    +0.000 A 
ATOM     27  C   UNL     1      38.458  -2.838  18.754  0.00  0.00    +0.000 A 
ATOM     28  C   UNL     1      38.632  -2.644  17.399  0.00  0.00    +0.000 A 
ATOM     29  C   UNL     1      37.923  -1.655  16.773  0.00  0.00    +0.000 A 
ENDBRANCH  23  24
ENDBRANCH  22  23
ENDBRANCH  21  22
ENDBRANCH   3  19
BRANCH   6  30
ATOM     30  C   UNL     1      34.965   6.099  12.124  0.00  0.00    +0.000 C 
ATOM     31  C   UNL     1      35.700   6.291  10.792  0.00  0.00    +0.000 C 
ATOM     32  C   UNL     1      33.941   7.197  12.250  0.00  0.00    +0.000 C 
ENDBRANCH   6  30
TORSDOF 7
ENDMDL
MODEL 8
REMARK VINA RESULT:      -7.6      2.911      7.916
REMARK  Name = 
REMARK  7 active torsions:
REMARK  status: ('A' for Active; 'I' for Inactive)
REMARK    1  A    between atoms: O_2  and  C_3
REMARK    2  A    between atoms: C_6  and  C_7
REMARK    3  A    between atoms: C_9  and  C_10
REMARK    4  A    between atoms: N_12  and  C_13
REMARK    5  A    between atoms: C_13  and  C_14
REMARK    6  A    between atoms: C_14  and  C_15
REMARK    7  A    between atoms: C_23  and  C_24
REMARK                            x       y       z     vdW  Elec       q    Type
REMARK                         _______ _______ _______ _____ _____    ______ ____
ROOT
ATOM      1  C   UNL     1      37.417   3.234  16.245  0.00  0.00    +0.000 A 
ATOM      2  C   UNL     1      37.611   2.698  14.973  0.00  0.00    +0.000 A 
ATOM      3  C   UNL     1      37.224   1.409  14.676  0.00  0.00    +0.000 A 
ATOM      4  C   UNL     1      36.629   0.607  15.627  0.00  0.00    +0.000 A 
ATOM      5  C   UNL     1      36.221  -0.684  15.394  0.00  0.00    +0.000 A 
ATOM      6  C   UNL     1      35.625  -1.458  16.383  0.00  0.00    +0.000 A 
ATOM      7  C   UNL     1      35.465  -0.857  17.617  0.00  0.00    +0.000 A 
ATOM      8  C   UNL     1      35.853   0.423  17.903  0.00  0.00    +0.000 A 
ATOM      9  C   UNL     1      36.446   1.168  16.889  0.00  0.00    +0.000 A 
ATOM     10  N   UNL     1      36.836   2.429  17.145  0.00  0.00    +0.000 NA
ENDROOT
BRANCH   1  14
ATOM     11  C   UNL     1      38.639   7.169  17.249  0.00  0.00    +0.000 A 
ATOM     12  C   UNL     1      38.783   6.148  18.154  0.00  0.00    +0.000 A 
ATOM     13  C   UNL     1      38.372   4.866  17.796  0.00  0.00    +0.000 A 
ATOM     14  C   UNL     1      37.827   4.600  16.560  0.00  0.00    +0.000 A 
ATOM     15  C   UNL     1      37.685   5.619  15.660  0.00  0.00    +0.000 A 
ATOM     16  C   UNL     1      38.098   6.903  16.024  0.00  0.00    +0.000 A 
BRANCH  11  18
ATOM     17  C   UNL     1      39.214   9.460  16.637  0.00  0.00    +0.000 C 
ATOM     18  O   UNL     1      39.048   8.459  17.599  0.00  0.00    +0.000 OA
ENDBRANCH  11  18
ENDBRANCH   1  14
BRANCH   3  19
ATOM     19  C   UNL     1      37.433   0.849  13.328  0.00  0.00    +0.000 C 
ATOM     20  O   UNL     1      36.470   0.659  12.542  0.00  0.00    +0.000 OA
ATOM     21  N   UNL     1      38.731   0.502  12.865  0.00  0.00    +0.000 NA
BRANCH  21  22
ATOM     22  C   UNL     1      39.020  -0.044  11.576  0.00  0.00    +0.000 C 
BRANCH  22  23
ATOM     23  C   UNL     1      39.520  -1.452  11.595  0.00  0.00    +0.000 C 
BRANCH  23  24
ATOM     24  C   UNL     1      39.818  -1.961  12.948  0.00  0.00    +0.000 A 
ATOM     25  C   UNL     1      38.801  -2.579  13.660  0.00  0.00    +0.000 A 
ATOM     26  C   UNL     1      39.092  -3.048  14.914  0.00  0.00    +0.000 A 
ATOM     27  C   UNL     1      40.365  -2.894  15.427  0.00  0.00    +0.000 A 
ATOM     28  C   UNL     1      41.368  -2.278  14.707  0.00  0.00    +0.000 A 
ATOM     29  C   UNL     1      41.092  -1.805  13.453  0.00  0.00    +0.000 A 
ENDBRANCH  23  24
ENDBRANCH  22  23
ENDBRANCH  21  22
ENDBRANCH   3  19
BRANCH   6  30
ATOM     30  C   UNL     1      35.179  -2.855  16.141  0.00  0.00    +0.000 C 
ATOM     31  C   UNL     1      36.123  -3.756  16.946  0.00  0.00    +0.000 C 
ATOM     32  C   UNL     1      35.363  -3.181  14.681  0.00  0.00    +0.000 C 
ENDBRANCH   6  30
TORSDOF 7
ENDMDL
MODEL 9
REMARK VINA RESULT:      -7.6      5.159      7.929
REMARK  Name = 
REMARK  7 active torsions:
REMARK  status: ('A' for Active; 'I' for Inactive)
REMARK    1  A    between atoms: O_2  and  C_3
REMARK    2  A    between atoms: C_6  and  C_7
REMARK    3  A    between atoms: C_9  and  C_10
REMARK    4  A    between atoms: N_12  and  C_13
REMARK    5  A    between atoms: C_13  and  C_14
REMARK    6  A    between atoms: C_14  and  C_15
REMARK    7  A    between atoms: C_23  and  C_24
REMARK                            x       y       z     vdW  Elec       q    Type
REMARK                         _______ _______ _______ _____ _____    ______ ____
ROOT
ATOM      1  C   UNL     1      36.268   2.874  15.545  0.00  0.00    +0.000 A 
ATOM      2  C   UNL     1      37.281   3.536  16.236  0.00  0.00    +0.000 A 
ATOM      3  C   UNL     1      37.622   4.835  15.928  0.00  0.00    +0.000 A 
ATOM      4  C   UNL     1      36.971   5.524  14.927  0.00  0.00    +0.000 A 
ATOM      5  C   UNL     1      37.264   6.819  14.573  0.00  0.00    +0.000 A 
ATOM      6  C   UNL     1      36.582   7.476  13.556  0.00  0.00    +0.000 A 
ATOM      7  C   UNL     1      35.591   6.755  12.918  0.00  0.00    +0.000 A 
ATOM      8  C   UNL     1      35.259   5.466  13.230  0.00  0.00    +0.000 A 
ATOM      9  C   UNL     1      35.963   4.839  14.253  0.00  0.00    +0.000 A 
ATOM     10  N   UNL     1      35.656   3.572  14.579  0.00  0.00    +0.000 NA
ENDROOT
BRANCH   1  14
ATOM     11  C   UNL     1      35.279  -1.156  16.422  0.00  0.00    +0.000 A 
ATOM     12  C   UNL     1      36.165  -0.865  15.415  0.00  0.00    +0.000 A 
ATOM     13  C   UNL     1      36.470   0.469  15.150  0.00  0.00    +0.000 A 
ATOM     14  C   UNL     1      35.906   1.497  15.871  0.00  0.00    +0.000 A 
ATOM     15  C   UNL     1      35.024   1.204  16.874  0.00  0.00    +0.000 A 
ATOM     16  C   UNL     1      34.720  -0.134  17.136  0.00  0.00    +0.000 A 
BRANCH  11  18
ATOM     17  C   UNL     1      35.933  -3.497  16.637  0.00  0.00    +0.000 C 
ATOM     18  O   UNL     1      34.965  -2.491  16.696  0.00  0.00    +0.000 OA
ENDBRANCH  11  18
ENDBRANCH   1  14
BRANCH   3  19
ATOM     19  C   UNL     1      38.697   5.529  16.664  0.00  0.00    +0.000 C 
ATOM     20  O   UNL     1      39.898   5.442  16.302  0.00  0.00    +0.000 OA
ATOM     21  N   UNL     1      38.417   6.321  17.809  0.00  0.00    +0.000 NA
BRANCH  21  22
ATOM     22  C   UNL     1      39.396   7.024  18.576  0.00  0.00    +0.000 C 
BRANCH  22  23
ATOM     23  C   UNL     1      40.091   6.197  19.607  0.00  0.00    +0.000 C 
BRANCH  23  24
ATOM     24  C   UNL     1      41.554   6.392  19.642  0.00  0.00    +0.000 A 
ATOM     25  C   UNL     1      42.203   6.734  18.465  0.00  0.00    +0.000 A 
ATOM     26  C   UNL     1      43.560   6.913  18.512  0.00  0.00    +0.000 A 
ATOM     27  C   UNL     1      44.234   6.750  19.706  0.00  0.00    +0.000 A 
ATOM     28  C   UNL     1      43.576   6.411  20.871  0.00  0.00    +0.000 A 
ATOM     29  C   UNL     1      42.220   6.229  20.839  0.00  0.00    +0.000 A 
ENDBRANCH  23  24
ENDBRANCH  22  23
ENDBRANCH  21  22
ENDBRANCH   3  19
BRANCH   6  30
ATOM     30  C   UNL     1      36.890   8.877  13.166  0.00  0.00    +0.000 C 
ATOM     31  C   UNL     1      35.801   9.752  13.799  0.00  0.00    +0.000 C 
ATOM     32  C   UNL     1      36.773   9.006  11.668  0.00  0.00    +0.000 C 
ENDBRANCH   6  30
TORSDOF 7
ENDMDL
MODEL 10
REMARK VINA RESULT:      -7.6     24.820     29.832
REMARK  Name = 
REMARK  7 active torsions:
REMARK  status: ('A' for Active; 'I' for Inactive)
REMARK    1  A    between atoms: O_2  and  C_3
REMARK    2  A    between atoms: C_6  and  C_7
REMARK    3  A    between atoms: C_9  and  C_10
REMARK    4  A    between atoms: N_12  and  C_13
REMARK    5  A    between atoms: C_13  and  C_14
REMARK    6  A    between atoms: C_14  and  C_15
REMARK    7  A    between atoms: C_23  and  C_24
REMARK                            x       y       z     vdW  Elec       q    Type
REMARK                         _______ _______ _______ _____ _____    ______ ____
ROOT
ATOM      1  C   UNL     1      10.530  -2.157  24.542  0.00  0.00    +0.000 A 
ATOM      2  C   UNL     1      11.634  -2.003  25.379  0.00  0.00    +0.000 A 
ATOM      3  C   UNL     1      11.859  -0.822  26.051  0.00  0.00    +0.000 A 
ATOM      4  C   UNL     1      10.998   0.247  25.920  0.00  0.00    +0.000 A 
ATOM      5  C   UNL     1      11.168   1.450  26.563  0.00  0.00    +0.000 A 
ATOM      6  C   UNL     1      10.274   2.503  26.402  0.00  0.00    +0.000 A 
ATOM      7  C   UNL     1       9.204   2.274  25.559  0.00  0.00    +0.000 A 
ATOM      8  C   UNL     1       8.988   1.098  24.895  0.00  0.00    +0.000 A 
ATOM      9  C   UNL     1       9.903   0.066  25.080  0.00  0.00    +0.000 A 
ATOM     10  N   UNL     1       9.713  -1.101  24.438  0.00  0.00    +0.000 NA
ENDROOT
BRANCH   1  14
ATOM     11  C   UNL     1       9.739  -5.769  22.463  0.00  0.00    +0.000 A 
ATOM     12  C   UNL     1       8.725  -4.877  22.712  0.00  0.00    +0.000 A 
ATOM     13  C   UNL     1       9.016  -3.699  23.397  0.00  0.00    +0.000 A 
ATOM     14  C   UNL     1      10.290  -3.410  23.830  0.00  0.00    +0.000 A 
ATOM     15  C   UNL     1      11.298  -4.300  23.581  0.00  0.00    +0.000 A 
ATOM     16  C   UNL     1      11.003  -5.479  22.894  0.00  0.00    +0.000 A 
BRANCH  11  18
ATOM     17  C   UNL     1       8.589  -6.976  20.682  0.00  0.00    +0.000 C 
ATOM     18  O   UNL     1       9.458  -6.953  21.776  0.00  0.00    +0.000 OA
ENDBRANCH  11  18
ENDBRANCH   1  14
BRANCH   3  19
ATOM     19  C   UNL     1      13.031  -0.666  26.933  0.00  0.00    +0.000 C 
ATOM     20  O   UNL     1      12.961  -0.918  28.164  0.00  0.00    +0.000 OA
ATOM     21  N   UNL     1      14.284  -0.226  26.429  0.00  0.00    +0.000 NA
BRANCH  21  22
ATOM     22  C   UNL     1      15.466  -0.050  27.213  0.00  0.00    +0.000 C 
BRANCH  22  23
ATOM     23  C   UNL     1      16.437   0.942  26.661  0.00  0.00    +0.000 C 
BRANCH  23  24
ATOM     24  C   UNL     1      17.526   0.333  25.871  0.00  0.00    +0.000 A 
ATOM     25  C   UNL     1      17.660  -1.046  25.883  0.00  0.00    +0.000 A 
ATOM     26  C   UNL     1      18.674  -1.597  25.145  0.00  0.00    +0.000 A 
ATOM     27  C   UNL     1      19.520  -0.780  24.422  0.00  0.00    +0.000 A 
ATOM     28  C   UNL     1      19.375   0.593  24.417  0.00  0.00    +0.000 A 
ATOM     29  C   UNL     1      18.366   1.157  25.150  0.00  0.00    +0.000 A 
ENDBRANCH  23  24
ENDBRANCH  22  23
ENDBRANCH  21  22
ENDBRANCH   3  19
BRANCH   6  30
ATOM     30  C   UNL     1      10.447   3.807  27.093  0.00  0.00    +0.000 C 
ATOM     31  C   UNL     1      11.874   4.276  26.781  0.00  0.00    +0.000 C 
ATOM     32  C   UNL     1      10.348   3.589  28.582  0.00  0.00    +0.000 C 
ENDBRANCH   6  30
TORSDOF 7
ENDMDL
