MODEL 1
REMARK VINA RESULT:      -7.7      0.000      0.000
REMARK  Name = 
REMARK  6 active torsions:
REMARK  status: ('A' for Active; 'I' for Inactive)
REMARK    1  A    between atoms: C_10  and  C_11
REMARK    2  A    between atoms: C_17  and  C_18
REMARK    3  A    between atoms: C_21  and  O_22
REMARK    4  A    between atoms: O_22  and  C_23
REMARK    5  A    between atoms: C_23  and  C_24
REMARK    6  A    between atoms: C_24  and  N_25
REMARK                            x       y       z     vdW  Elec       q    Type
REMARK                         _______ _______ _______ _____ _____    ______ ____
ROOT
ATOM      1  O   UNL     1      42.040  -3.506  11.156  0.00  0.00    +0.000 OA
ATOM      2  C   UNL     1      41.322  -3.006  12.257  0.00  0.00    +0.000 A 
ATOM      3  C   UNL     1      41.945  -2.776  13.461  0.00  0.00    +0.000 A 
ATOM      4  C   UNL     1      41.239  -2.285  14.548  0.00  0.00    +0.000 A 
ATOM      5  C   UNL     1      39.889  -2.018  14.428  0.00  0.00    +0.000 A 
ATOM      6  C   UNL     1      39.261  -2.230  13.278  0.00  0.00    +0.000 A 
ATOM      7  C   UNL     1      39.980  -2.731  12.170  0.00  0.00    +0.000 A 
ATOM      8  C   UNL     1      37.853  -1.982  13.044  0.00  0.00    +0.000 C 
ATOM      9  C   UNL     1      37.096  -1.756  14.267  0.00  0.00    +0.000 C 
ATOM     10  C   UNL     1      37.793  -2.444  15.537  0.00  0.00    +0.000 C 
ATOM     11  C   UNL     1      39.182  -1.465  15.725  0.00  0.00    +0.000 C 
ENDROOT
BRANCH  10  12
ATOM     12  C   UNL     1      36.924  -1.799  16.638  0.00  0.00    +0.000 A 
ATOM     13  C   UNL     1      37.375  -1.524  17.889  0.00  0.00    +0.000 A 
ATOM     14  C   UNL     1      36.533  -0.945  18.852  0.00  0.00    +0.000 A 
ATOM     15  C   UNL     1      35.246  -0.656  18.523  0.00  0.00    +0.000 A 
ATOM     16  C   UNL     1      34.771  -0.921  17.279  0.00  0.00    +0.000 A 
ATOM     17  C   UNL     1      35.635  -1.505  16.323  0.00  0.00    +0.000 A 
ENDBRANCH  10  12
BRANCH  11  18
ATOM     18  C   UNL     1      38.707  -0.090  15.209  0.00  0.00    +0.000 A 
ATOM     19  C   UNL     1      37.531   0.485  15.545  0.00  0.00    +0.000 A 
ATOM     20  C   UNL     1      37.151   1.709  15.025  0.00  0.00    +0.000 A 
ATOM     21  C   UNL     1      37.984   2.359  14.147  0.00  0.00    +0.000 A 
ATOM     22  N   UNL     1      39.141   1.788  13.820  0.00  0.00    +0.000 NA
ATOM     23  C   UNL     1      39.518   0.567  14.338  0.00  0.00    +0.000 A 
BRANCH  21  24
ATOM     24  O   UNL     1      37.622   3.611  13.600  0.00  0.00    +0.000 OA
BRANCH  24  25
ATOM     25  C   UNL     1      37.439   4.732  14.438  0.00  0.00    +0.000 C 
BRANCH  25  26
ATOM     26  C   UNL     1      38.832   5.217  14.824  0.00  0.00    +0.000 C 
BRANCH  26  27
ATOM     27  N   UNL     1      38.756   5.673  16.190  0.00  0.00    +0.000 NA
ATOM     28  C   UNL     1      38.298   4.676  17.108  0.00  0.00    +0.000 C 
ATOM     29  C   UNL     1      38.914   4.938  18.444  0.00  0.00    +0.000 C 
ATOM     30  C   UNL     1      40.040   5.879  18.170  0.00  0.00    +0.000 C 
ATOM     31  C   UNL     1      39.995   6.205  16.679  0.00  0.00    +0.000 C 
ENDBRANCH  26  27
ENDBRANCH  25  26
ENDBRANCH  24  25
ENDBRANCH  21  24
ENDBRANCH  11  18
TORSDOF 6
ENDMDL
MODEL 2
REMARK VINA RESULT:      -7.6      2.035      2.751
REMARK  Name = 
REMARK  6 active torsions:
REMARK  status: ('A' for Active; 'I' for Inactive)
REMARK    1  A    between atoms: C_10  and  C_11
REMARK    2  A    between atoms: C_17  and  C_18
REMARK    3  A    between atoms: C_21  and  O_22
REMARK    4  A    between atoms: O_22  and  C_23
REMARK    5  A    between atoms: C_23  and  C_24
REMARK    6  A    between atoms: C_24  and  N_25
REMARK                            x       y       z     vdW  Elec       q    Type
REMARK                         _______ _______ _______ _____ _____    ______ ____
ROOT
ATOM      1  O   UNL     1      42.335  -3.514  11.419  0.00  0.00    +0.000 OA
ATOM      2  C   UNL     1      41.537  -2.988  12.452  0.00  0.00    +0.000 A 
ATOM      3  C   UNL     1      42.107  -2.494  13.602  0.00  0.00    +0.000 A 
ATOM      4  C   UNL     1      41.324  -1.977  14.621  0.00  0.00    +0.000 A 
ATOM      5  C   UNL     1      39.949  -1.953  14.488  0.00  0.00    +0.000 A 
ATOM      6  C   UNL     1      39.371  -2.423  13.390  0.00  0.00    +0.000 A 
ATOM      7  C   UNL     1      40.169  -2.951  12.350  0.00  0.00    +0.000 A 
ATOM      8  C   UNL     1      37.943  -2.443  13.148  0.00  0.00    +0.000 C 
ATOM      9  C   UNL     1      37.152  -2.174  14.340  0.00  0.00    +0.000 C 
ATOM     10  C   UNL     1      37.944  -2.555  15.681  0.00  0.00    +0.000 C 
ATOM     11  C   UNL     1      39.153  -1.347  15.708  0.00  0.00    +0.000 C 
ENDROOT
BRANCH  10  12
ATOM     12  C   UNL     1      36.975  -1.913  16.697  0.00  0.00    +0.000 A 
ATOM     13  C   UNL     1      37.351  -1.481  17.928  0.00  0.00    +0.000 A 
ATOM     14  C   UNL     1      36.420  -0.913  18.812  0.00  0.00    +0.000 A 
ATOM     15  C   UNL     1      35.122  -0.795  18.427  0.00  0.00    +0.000 A 
ATOM     16  C   UNL     1      34.720  -1.219  17.201  0.00  0.00    +0.000 A 
ATOM     17  C   UNL     1      35.673  -1.789  16.324  0.00  0.00    +0.000 A 
ENDBRANCH  10  12
BRANCH  11  18
ATOM     18  C   UNL     1      38.462  -0.153  15.014  0.00  0.00    +0.000 A 
ATOM     19  C   UNL     1      37.326   0.431  15.455  0.00  0.00    +0.000 A 
ATOM     20  C   UNL     1      36.742   1.481  14.770  0.00  0.00    +0.000 A 
ATOM     21  C   UNL     1      37.325   1.944  13.616  0.00  0.00    +0.000 A 
ATOM     22  N   UNL     1      38.444   1.365  13.186  0.00  0.00    +0.000 NA
ATOM     23  C   UNL     1      39.026   0.318  13.869  0.00  0.00    +0.000 A 
BRANCH  21  24
ATOM     24  O   UNL     1      36.750   3.016  12.895  0.00  0.00    +0.000 OA
BRANCH  24  25
ATOM     25  C   UNL     1      37.489   4.195  12.656  0.00  0.00    +0.000 C 
BRANCH  25  26
ATOM     26  C   UNL     1      36.879   5.275  13.543  0.00  0.00    +0.000 C 
BRANCH  26  27
ATOM     27  N   UNL     1      35.523   5.472  13.095  0.00  0.00    +0.000 NA
ATOM     28  C   UNL     1      34.664   6.045  14.084  0.00  0.00    +0.000 C 
ATOM     29  C   UNL     1      33.609   6.848  13.394  0.00  0.00    +0.000 C 
ATOM     30  C   UNL     1      34.119   7.038  12.004  0.00  0.00    +0.000 C 
ATOM     31  C   UNL     1      35.430   6.263  11.901  0.00  0.00    +0.000 C 
ENDBRANCH  26  27
ENDBRANCH  25  26
ENDBRANCH  24  25
ENDBRANCH  21  24
ENDBRANCH  11  18
TORSDOF 6
ENDMDL
MODEL 3
REMARK VINA RESULT:      -7.5      1.830      2.367
REMARK  Name = 
REMARK  6 active torsions:
REMARK  status: ('A' for Active; 'I' for Inactive)
REMARK    1  A    between atoms: C_10  and  C_11
REMARK    2  A    between atoms: C_17  and  C_18
REMARK    3  A    between atoms: C_21  and  O_22
REMARK    4  A    between atoms: O_22  and  C_23
REMARK    5  A    between atoms: C_23  and  C_24
REMARK    6  A    between atoms: C_24  and  N_25
REMARK                            x       y       z     vdW  Elec       q    Type
REMARK                         _______ _______ _______ _____ _____    ______ ____
ROOT
ATOM      1  O   UNL     1      44.293   0.077  11.727  0.00  0.00    +0.000 OA
ATOM      2  C   UNL     1      43.233  -0.386  12.529  0.00  0.00    +0.000 A 
ATOM      3  C   UNL     1      43.446  -0.756  13.836  0.00  0.00    +0.000 A 
ATOM      4  C   UNL     1      42.405  -1.213  14.628  0.00  0.00    +0.000 A 
ATOM      5  C   UNL     1      41.130  -1.300  14.104  0.00  0.00    +0.000 A 
ATOM      6  C   UNL     1      40.894  -0.949  12.846  0.00  0.00    +0.000 A 
ATOM      7  C   UNL     1      41.956  -0.484  12.039  0.00  0.00    +0.000 A 
ATOM      8  C   UNL     1      39.598  -0.999  12.201  0.00  0.00    +0.000 C 
ATOM      9  C   UNL     1      38.606  -1.752  12.955  0.00  0.00    +0.000 C 
ATOM     10  C   UNL     1      39.286  -2.840  13.917  0.00  0.00    +0.000 C 
ATOM     11  C   UNL     1      40.020  -1.835  15.089  0.00  0.00    +0.000 C 
ENDROOT
BRANCH  10  12
ATOM     12  C   UNL     1      38.031  -3.232  14.725  0.00  0.00    +0.000 A 
ATOM     13  C   UNL     1      38.069  -3.682  16.005  0.00  0.00    +0.000 A 
ATOM     14  C   UNL     1      36.891  -4.034  16.685  0.00  0.00    +0.000 A 
ATOM     15  C   UNL     1      35.695  -3.919  16.048  0.00  0.00    +0.000 A 
ATOM     16  C   UNL     1      35.630  -3.471  14.768  0.00  0.00    +0.000 A 
ATOM     17  C   UNL     1      36.828  -3.122  14.099  0.00  0.00    +0.000 A 
ENDBRANCH  10  12
BRANCH  11  18
ATOM     18  C   UNL     1      39.080  -0.610  15.129  0.00  0.00    +0.000 A 
ATOM     19  C   UNL     1      37.788  -0.654  15.520  0.00  0.00    +0.000 A 
ATOM     20  C   UNL     1      36.990   0.476  15.506  0.00  0.00    +0.000 A 
ATOM     21  C   UNL     1      37.519   1.672  15.086  0.00  0.00    +0.000 A 
ATOM     22  N   UNL     1      38.794   1.710  14.702  0.00  0.00    +0.000 NA
ATOM     23  C   UNL     1      39.588   0.582  14.716  0.00  0.00    +0.000 A 
BRANCH  21  24
ATOM     24  O   UNL     1      36.729   2.844  15.062  0.00  0.00    +0.000 OA
BRANCH  24  25
ATOM     25  C   UNL     1      37.283   4.088  15.431  0.00  0.00    +0.000 C 
BRANCH  25  26
ATOM     26  C   UNL     1      37.437   4.061  16.948  0.00  0.00    +0.000 C 
BRANCH  26  27
ATOM     27  N   UNL     1      38.805   4.410  17.239  0.00  0.00    +0.000 NA
ATOM     28  C   UNL     1      39.408   5.256  16.256  0.00  0.00    +0.000 C 
ATOM     29  C   UNL     1      40.434   6.111  16.928  0.00  0.00    +0.000 C 
ATOM     30  C   UNL     1      40.128   6.006  18.385  0.00  0.00    +0.000 C 
ATOM     31  C   UNL     1      38.973   5.019  18.527  0.00  0.00    +0.000 C 
ENDBRANCH  26  27
ENDBRANCH  25  26
ENDBRANCH  24  25
ENDBRANCH  21  24
ENDBRANCH  11  18
TORSDOF 6
ENDMDL
MODEL 4
REMARK VINA RESULT:      -7.5      2.512      5.214
REMARK  Name = 
REMARK  6 active torsions:
REMARK  status: ('A' for Active; 'I' for Inactive)
REMARK    1  A    between atoms: C_10  and  C_11
REMARK    2  A    between atoms: C_17  and  C_18
REMARK    3  A    between atoms: C_21  and  O_22
REMARK    4  A    between atoms: O_22  and  C_23
REMARK    5  A    between atoms: C_23  and  C_24
REMARK    6  A    between atoms: C_24  and  N_25
REMARK                            x       y       z     vdW  Elec       q    Type
REMARK                         _______ _______ _______ _____ _____    ______ ____
ROOT
ATOM      1  O   UNL     1      33.608  -2.967  16.539  0.00  0.00    +0.000 OA
ATOM      2  C   UNL     1      34.835  -2.908  15.853  0.00  0.00    +0.000 A 
ATOM      3  C   UNL     1      35.198  -3.897  14.969  0.00  0.00    +0.000 A 
ATOM      4  C   UNL     1      36.406  -3.842  14.293  0.00  0.00    +0.000 A 
ATOM      5  C   UNL     1      37.264  -2.780  14.504  0.00  0.00    +0.000 A 
ATOM      6  C   UNL     1      36.940  -1.811  15.350  0.00  0.00    +0.000 A 
ATOM      7  C   UNL     1      35.709  -1.867  16.040  0.00  0.00    +0.000 A 
ATOM      8  C   UNL     1      37.764  -0.655  15.641  0.00  0.00    +0.000 C 
ATOM      9  C   UNL     1      39.129  -0.780  15.151  0.00  0.00    +0.000 C 
ATOM     10  C   UNL     1      39.574  -2.314  15.008  0.00  0.00    +0.000 C 
ATOM     11  C   UNL     1      38.613  -2.817  13.686  0.00  0.00    +0.000 C 
ENDROOT
BRANCH  10  12
ATOM     12  C   UNL     1      40.894  -2.087  14.240  0.00  0.00    +0.000 A 
ATOM     13  C   UNL     1      41.532  -3.056  13.535  0.00  0.00    +0.000 A 
ATOM     14  C   UNL     1      42.737  -2.791  12.865  0.00  0.00    +0.000 A 
ATOM     15  C   UNL     1      43.271  -1.542  12.925  0.00  0.00    +0.000 A 
ATOM     16  C   UNL     1      42.652  -0.555  13.623  0.00  0.00    +0.000 A 
ATOM     17  C   UNL     1      41.439  -0.842  14.292  0.00  0.00    +0.000 A 
ENDBRANCH  10  12
BRANCH  11  18
ATOM     18  C   UNL     1      38.463  -1.523  12.857  0.00  0.00    +0.000 A 
ATOM     19  C   UNL     1      37.453  -0.638  13.003  0.00  0.00    +0.000 A 
ATOM     20  C   UNL     1      37.362   0.491  12.208  0.00  0.00    +0.000 A 
ATOM     21  C   UNL     1      38.317   0.721  11.248  0.00  0.00    +0.000 A 
ATOM     22  N   UNL     1      39.310  -0.154  11.109  0.00  0.00    +0.000 NA
ATOM     23  C   UNL     1      39.400  -1.280  11.902  0.00  0.00    +0.000 A 
BRANCH  21  24
ATOM     24  O   UNL     1      38.250   1.866  10.422  0.00  0.00    +0.000 OA
BRANCH  24  25
ATOM     25  C   UNL     1      37.724   3.077  10.919  0.00  0.00    +0.000 C 
BRANCH  25  26
ATOM     26  C   UNL     1      38.918   3.943  11.306  0.00  0.00    +0.000 C 
BRANCH  26  27
ATOM     27  N   UNL     1      38.899   4.072  12.742  0.00  0.00    +0.000 NA
ATOM     28  C   UNL     1      37.610   3.862  13.323  0.00  0.00    +0.000 C 
ATOM     29  C   UNL     1      37.791   3.303  14.698  0.00  0.00    +0.000 C 
ATOM     30  C   UNL     1      39.208   2.834  14.738  0.00  0.00    +0.000 C 
ATOM     31  C   UNL     1      39.840   3.212  13.400  0.00  0.00    +0.000 C 
ENDBRANCH  26  27
ENDBRANCH  25  26
ENDBRANCH  24  25
ENDBRANCH  21  24
ENDBRANCH  11  18
TORSDOF 6
ENDMDL
MODEL 5
REMARK VINA RESULT:      -7.3      3.732      9.348
REMARK  Name = 
REMARK  6 active torsions:
REMARK  status: ('A' for Active; 'I' for Inactive)
REMARK    1  A    between atoms: C_10  and  C_11
REMARK    2  A    between atoms: C_17  and  C_18
REMARK    3  A    between atoms: C_21  and  O_22
REMARK    4  A    between atoms: O_22  and  C_23
REMARK    5  A    between atoms: C_23  and  C_24
REMARK    6  A    between atoms: C_24  and  N_25
REMARK                            x       y       z     vdW  Elec       q    Type
REMARK                         _______ _______ _______ _____ _____    ______ ____
ROOT
ATOM      1  O   UNL     1      45.119   6.010  20.767  0.00  0.00    +0.000 OA
ATOM      2  C   UNL     1      44.018   6.500  20.040  0.00  0.00    +0.000 A 
ATOM      3  C   UNL     1      44.173   6.972  18.758  0.00  0.00    +0.000 A 
ATOM      4  C   UNL     1      43.092   7.456  18.039  0.00  0.00    +0.000 A 
ATOM      5  C   UNL     1      41.835   7.466  18.613  0.00  0.00    +0.000 A 
ATOM      6  C   UNL     1      41.655   7.016  19.848  0.00  0.00    +0.000 A 
ATOM      7  C   UNL     1      42.758   6.523  20.581  0.00  0.00    +0.000 A 
ATOM      8  C   UNL     1      40.382   6.980  20.540  0.00  0.00    +0.000 C 
ATOM      9  C   UNL     1      39.344   7.757  19.880  0.00  0.00    +0.000 C 
ATOM     10  C   UNL     1      39.958   8.933  18.980  0.00  0.00    +0.000 C 
ATOM     11  C   UNL     1      40.675   8.040  17.710  0.00  0.00    +0.000 C 
ENDROOT
BRANCH  10  12
ATOM     12  C   UNL     1      38.664   9.347  18.248  0.00  0.00    +0.000 A 
ATOM     13  C   UNL     1      38.645  10.096  17.116  0.00  0.00    +0.000 A 
ATOM     14  C   UNL     1      37.433  10.450  16.502  0.00  0.00    +0.000 A 
ATOM     15  C   UNL     1      36.261  10.033  17.051  0.00  0.00    +0.000 A 
ATOM     16  C   UNL     1      36.253   9.282  18.183  0.00  0.00    +0.000 A 
ATOM     17  C   UNL     1      37.485   8.937  18.788  0.00  0.00    +0.000 A 
ENDBRANCH  10  12
BRANCH  11  18
ATOM     18  C   UNL     1      39.768   6.795  17.611  0.00  0.00    +0.000 A 
ATOM     19  C   UNL     1      39.782   5.770  18.492  0.00  0.00    +0.000 A 
ATOM     20  C   UNL     1      38.961   4.668  18.330  0.00  0.00    +0.000 A 
ATOM     21  C   UNL     1      38.110   4.610  17.253  0.00  0.00    +0.000 A 
ATOM     22  N   UNL     1      38.100   5.622  16.389  0.00  0.00    +0.000 NA
ATOM     23  C   UNL     1      38.920   6.720  16.550  0.00  0.00    +0.000 A 
BRANCH  21  24
ATOM     24  O   UNL     1      37.260   3.497  17.063  0.00  0.00    +0.000 OA
BRANCH  24  25
ATOM     25  C   UNL     1      37.112   2.920  15.783  0.00  0.00    +0.000 C 
BRANCH  25  26
ATOM     26  C   UNL     1      35.617   2.911  15.481  0.00  0.00    +0.000 C 
BRANCH  26  27
ATOM     27  N   UNL     1      35.176   1.542  15.579  0.00  0.00    +0.000 NA
ATOM     28  C   UNL     1      36.136   0.590  15.117  0.00  0.00    +0.000 C 
ATOM     29  C   UNL     1      35.953  -0.682  15.880  0.00  0.00    +0.000 C 
ATOM     30  C   UNL     1      35.120  -0.306  17.060  0.00  0.00    +0.000 C 
ATOM     31  C   UNL     1      34.771   1.172  16.905  0.00  0.00    +0.000 C 
ENDBRANCH  26  27
ENDBRANCH  25  26
ENDBRANCH  24  25
ENDBRANCH  21  24
ENDBRANCH  11  18
TORSDOF 6
ENDMDL
MODEL 6
REMARK VINA RESULT:      -7.3      1.656      2.266
REMARK  Name = 
REMARK  6 active torsions:
REMARK  status: ('A' for Active; 'I' for Inactive)
REMARK    1  A    between atoms: C_10  and  C_11
REMARK    2  A    between atoms: C_17  and  C_18
REMARK    3  A    between atoms: C_21  and  O_22
REMARK    4  A    between atoms: O_22  and  C_23
REMARK    5  A    between atoms: C_23  and  C_24
REMARK    6  A    between atoms: C_24  and  N_25
REMARK                            x       y       z     vdW  Elec       q    Type
REMARK                         _______ _______ _______ _____ _____    ______ ____
ROOT
ATOM      1  O   UNL     1      43.661  -3.308  11.508  0.00  0.00    +0.000 OA
ATOM      2  C   UNL     1      42.693  -2.879  12.435  0.00  0.00    +0.000 A 
ATOM      3  C   UNL     1      43.059  -2.440  13.685  0.00  0.00    +0.000 A 
ATOM      4  C   UNL     1      42.108  -2.017  14.600  0.00  0.00    +0.000 A 
ATOM      5  C   UNL     1      40.769  -2.035  14.258  0.00  0.00    +0.000 A 
ATOM      6  C   UNL     1      40.387  -2.453  13.058  0.00  0.00    +0.000 A 
ATOM      7  C   UNL     1      41.356  -2.884  12.126  0.00  0.00    +0.000 A 
ATOM      8  C   UNL     1      39.014  -2.509  12.598  0.00  0.00    +0.000 C 
ATOM      9  C   UNL     1      38.040  -2.346  13.668  0.00  0.00    +0.000 C 
ATOM     10  C   UNL     1      38.635  -2.783  15.091  0.00  0.00    +0.000 C 
ATOM     11  C   UNL     1      39.771  -1.536  15.374  0.00  0.00    +0.000 C 
ENDROOT
BRANCH  10  12
ATOM     12  C   UNL     1      37.496  -2.243  15.980  0.00  0.00    +0.000 A 
ATOM     13  C   UNL     1      36.207  -2.131  15.568  0.00  0.00    +0.000 A 
ATOM     14  C   UNL     1      35.215  -1.622  16.422  0.00  0.00    +0.000 A 
ATOM     15  C   UNL     1      35.554  -1.235  17.681  0.00  0.00    +0.000 A 
ATOM     16  C   UNL     1      36.836  -1.337  18.117  0.00  0.00    +0.000 A 
ATOM     17  C   UNL     1      37.821  -1.852  17.241  0.00  0.00    +0.000 A 
ENDBRANCH  10  12
BRANCH  11  18
ATOM     18  C   UNL     1      39.140  -0.327  14.651  0.00  0.00    +0.000 A 
ATOM     19  C   UNL     1      37.818  -0.191  14.405  0.00  0.00    +0.000 A 
ATOM     20  C   UNL     1      37.319   0.907  13.728  0.00  0.00    +0.000 A 
ATOM     21  C   UNL     1      38.182   1.884  13.294  0.00  0.00    +0.000 A 
ATOM     22  N   UNL     1      39.483   1.745  13.539  0.00  0.00    +0.000 NA
ATOM     23  C   UNL     1      39.979   0.650  14.214  0.00  0.00    +0.000 A 
BRANCH  21  24
ATOM     24  O   UNL     1      37.700   3.017  12.599  0.00  0.00    +0.000 OA
BRANCH  24  25
ATOM     25  C   UNL     1      36.575   3.723  13.075  0.00  0.00    +0.000 C 
BRANCH  25  26
ATOM     26  C   UNL     1      37.051   4.542  14.271  0.00  0.00    +0.000 C 
BRANCH  26  27
ATOM     27  N   UNL     1      36.288   4.103  15.413  0.00  0.00    +0.000 NA
ATOM     28  C   UNL     1      35.118   3.355  15.074  0.00  0.00    +0.000 C 
ATOM     29  C   UNL     1      34.837   2.383  16.174  0.00  0.00    +0.000 C 
ATOM     30  C   UNL     1      36.100   2.326  16.969  0.00  0.00    +0.000 C 
ATOM     31  C   UNL     1      37.061   3.338  16.349  0.00  0.00    +0.000 C 
ENDBRANCH  26  27
ENDBRANCH  25  26
ENDBRANCH  24  25
ENDBRANCH  21  24
ENDBRANCH  11  18
TORSDOF 6
ENDMDL
MODEL 7
REMARK VINA RESULT:      -7.3      1.782      2.445
REMARK  Name = 
REMARK  6 active torsions:
REMARK  status: ('A' for Active; 'I' for Inactive)
REMARK    1  A    between atoms: C_10  and  C_11
REMARK    2  A    between atoms: C_17  and  C_18
REMARK    3  A    between atoms: C_21  and  O_22
REMARK    4  A    between atoms: O_22  and  C_23
REMARK    5  A    between atoms: C_23  and  C_24
REMARK    6  A    between atoms: C_24  and  N_25
REMARK                            x       y       z     vdW  Elec       q    Type
REMARK                         _______ _______ _______ _____ _____    ______ ____
ROOT
ATOM      1  O   UNL     1      41.950  -3.386  11.398  0.00  0.00    +0.000 OA
ATOM      2  C   UNL     1      41.121  -2.609  12.228  0.00  0.00    +0.000 A 
ATOM      3  C   UNL     1      41.168  -2.741  13.596  0.00  0.00    +0.000 A 
ATOM      4  C   UNL     1      40.353  -1.978  14.416  0.00  0.00    +0.000 A 
ATOM      5  C   UNL     1      39.476  -1.067  13.858  0.00  0.00    +0.000 A 
ATOM      6  C   UNL     1      39.410  -0.917  12.541  0.00  0.00    +0.000 A 
ATOM      7  C   UNL     1      40.241  -1.696  11.705  0.00  0.00    +0.000 A 
ATOM      8  C   UNL     1      38.530   0.008  11.856  0.00  0.00    +0.000 C 
ATOM      9  C   UNL     1      37.496   0.566  12.715  0.00  0.00    +0.000 C 
ATOM     10  C   UNL     1      37.164  -0.398  13.953  0.00  0.00    +0.000 C 
ATOM     11  C   UNL     1      38.593  -0.253  14.880  0.00  0.00    +0.000 C 
ENDROOT
BRANCH  10  12
ATOM     12  C   UNL     1      36.283   0.579  14.760  0.00  0.00    +0.000 A 
ATOM     13  C   UNL     1      35.936   0.385  16.058  0.00  0.00    +0.000 A 
ATOM     14  C   UNL     1      35.122   1.307  16.737  0.00  0.00    +0.000 A 
ATOM     15  C   UNL     1      34.677   2.411  16.081  0.00  0.00    +0.000 A 
ATOM     16  C   UNL     1      35.010   2.629  14.782  0.00  0.00    +0.000 A 
ATOM     17  C   UNL     1      35.830   1.688  14.116  0.00  0.00    +0.000 A 
ENDBRANCH  10  12
BRANCH  11  18
ATOM     18  C   UNL     1      39.064   1.182  14.563  0.00  0.00    +0.000 A 
ATOM     19  C   UNL     1      39.999   1.490  13.637  0.00  0.00    +0.000 A 
ATOM     20  C   UNL     1      40.398   2.797  13.420  0.00  0.00    +0.000 A 
ATOM     21  C   UNL     1      39.834   3.808  14.159  0.00  0.00    +0.000 A 
ATOM     22  N   UNL     1      38.913   3.499  15.070  0.00  0.00    +0.000 NA
ATOM     23  C   UNL     1      38.517   2.195  15.286  0.00  0.00    +0.000 A 
BRANCH  21  24
ATOM     24  O   UNL     1      40.221   5.153  13.959  0.00  0.00    +0.000 OA
BRANCH  24  25
ATOM     25  C   UNL     1      40.673   5.935  15.043  0.00  0.00    +0.000 C 
BRANCH  25  26
ATOM     26  C   UNL     1      39.525   6.870  15.411  0.00  0.00    +0.000 C 
BRANCH  26  27
ATOM     27  N   UNL     1      39.521   6.988  16.848  0.00  0.00    +0.000 NA
ATOM     28  C   UNL     1      38.597   6.111  17.497  0.00  0.00    +0.000 C 
ATOM     29  C   UNL     1      39.136   5.765  18.848  0.00  0.00    +0.000 C 
ATOM     30  C   UNL     1      40.576   6.156  18.798  0.00  0.00    +0.000 C 
ATOM     31  C   UNL     1      40.816   6.799  17.435  0.00  0.00    +0.000 C 
ENDBRANCH  26  27
ENDBRANCH  25  26
ENDBRANCH  24  25
ENDBRANCH  21  24
ENDBRANCH  11  18
TORSDOF 6
ENDMDL
MODEL 8
REMARK VINA RESULT:      -7.2      2.383      3.941
REMARK  Name = 
REMARK  6 active torsions:
REMARK  status: ('A' for Active; 'I' for Inactive)
REMARK    1  A    between atoms: C_10  and  C_11
REMARK    2  A    between atoms: C_17  and  C_18
REMARK    3  A    between atoms: C_21  and  O_22
REMARK    4  A    between atoms: O_22  and  C_23
REMARK    5  A    between atoms: C_23  and  C_24
REMARK    6  A    between atoms: C_24  and  N_25
REMARK                            x       y       z     vdW  Elec       q    Type
REMARK                         _______ _______ _______ _____ _____    ______ ____
ROOT
ATOM      1  O   UNL     1      42.395  -3.703  11.419  0.00  0.00    +0.000 OA
ATOM      2  C   UNL     1      41.600  -3.144  12.436  0.00  0.00    +0.000 A 
ATOM      3  C   UNL     1      42.169  -2.666  13.593  0.00  0.00    +0.000 A 
ATOM      4  C   UNL     1      41.389  -2.115  14.598  0.00  0.00    +0.000 A 
ATOM      5  C   UNL     1      40.018  -2.041  14.441  0.00  0.00    +0.000 A 
ATOM      6  C   UNL     1      39.442  -2.494  13.335  0.00  0.00    +0.000 A 
ATOM      7  C   UNL     1      40.237  -3.056  12.311  0.00  0.00    +0.000 A 
ATOM      8  C   UNL     1      38.018  -2.462  13.069  0.00  0.00    +0.000 C 
ATOM      9  C   UNL     1      37.218  -2.158  14.247  0.00  0.00    +0.000 C 
ATOM     10  C   UNL     1      37.972  -2.562  15.603  0.00  0.00    +0.000 C 
ATOM     11  C   UNL     1      39.225  -1.399  15.645  0.00  0.00    +0.000 C 
ENDROOT
BRANCH  10  12
ATOM     12  C   UNL     1      37.011  -1.879  16.599  0.00  0.00    +0.000 A 
ATOM     13  C   UNL     1      37.383  -1.454  17.833  0.00  0.00    +0.000 A 
ATOM     14  C   UNL     1      36.459  -0.848  18.700  0.00  0.00    +0.000 A 
ATOM     15  C   UNL     1      35.172  -0.685  18.293  0.00  0.00    +0.000 A 
ATOM     16  C   UNL     1      34.775  -1.102  17.063  0.00  0.00    +0.000 A 
ATOM     17  C   UNL     1      35.721  -1.711  16.205  0.00  0.00    +0.000 A 
ENDBRANCH  10  12
BRANCH  11  18
ATOM     18  C   UNL     1      38.591  -0.185  14.935  0.00  0.00    +0.000 A 
ATOM     19  C   UNL     1      37.468   0.441  15.351  0.00  0.00    +0.000 A 
ATOM     20  C   UNL     1      36.935   1.509  14.652  0.00  0.00    +0.000 A 
ATOM     21  C   UNL     1      37.557   1.948  13.509  0.00  0.00    +0.000 A 
ATOM     22  N   UNL     1      38.664   1.329  13.103  0.00  0.00    +0.000 NA
ATOM     23  C   UNL     1      39.194   0.263  13.801  0.00  0.00    +0.000 A 
BRANCH  21  24
ATOM     24  O   UNL     1      37.036   3.038  12.775  0.00  0.00    +0.000 OA
BRANCH  24  25
ATOM     25  C   UNL     1      37.866   3.778  11.906  0.00  0.00    +0.000 C 
BRANCH  25  26
ATOM     26  C   UNL     1      37.096   3.934  10.599  0.00  0.00    +0.000 C 
BRANCH  26  27
ATOM     27  N   UNL     1      37.118   2.652   9.941  0.00  0.00    +0.000 NA
ATOM     28  C   UNL     1      36.288   2.584   8.778  0.00  0.00    +0.000 C 
ATOM     29  C   UNL     1      36.889   1.607   7.820  0.00  0.00    +0.000 C 
ATOM     30  C   UNL     1      38.288   1.408   8.299  0.00  0.00    +0.000 C 
ATOM     31  C   UNL     1      38.439   2.221   9.582  0.00  0.00    +0.000 C 
ENDBRANCH  26  27
ENDBRANCH  25  26
ENDBRANCH  24  25
ENDBRANCH  21  24
ENDBRANCH  11  18
TORSDOF 6
ENDMDL
MODEL 9
REMARK VINA RESULT:      -7.2     25.277     29.011
REMARK  Name = 
REMARK  6 active torsions:
REMARK  status: ('A' for Active; 'I' for Inactive)
REMARK    1  A    between atoms: C_10  and  C_11
REMARK    2  A    between atoms: C_17  and  C_18
REMARK    3  A    between atoms: C_21  and  O_22
REMARK    4  A    between atoms: O_22  and  C_23
REMARK    5  A    between atoms: C_23  and  C_24
REMARK    6  A    between atoms: C_24  and  N_25
REMARK                            x       y       z     vdW  Elec       q    Type
REMARK                         _______ _______ _______ _____ _____    ______ ____
ROOT
ATOM      1  O   UNL     1      27.731  18.358  42.082  0.00  0.00    +0.000 OA
ATOM      2  C   UNL     1      27.513  18.156  40.706  0.00  0.00    +0.000 A 
ATOM      3  C   UNL     1      27.500  19.216  39.831  0.00  0.00    +0.000 A 
ATOM      4  C   UNL     1      27.285  19.021  38.476  0.00  0.00    +0.000 A 
ATOM      5  C   UNL     1      27.081  17.744  37.989  0.00  0.00    +0.000 A 
ATOM      6  C   UNL     1      27.088  16.702  38.811  0.00  0.00    +0.000 A 
ATOM      7  C   UNL     1      27.307  16.901  40.192  0.00  0.00    +0.000 A 
ATOM      8  C   UNL     1      26.887  15.325  38.405  0.00  0.00    +0.000 C 
ATOM      9  C   UNL     1      26.376  15.191  37.049  0.00  0.00    +0.000 C 
ATOM     10  C   UNL     1      25.573  16.498  36.581  0.00  0.00    +0.000 C 
ATOM     11  C   UNL     1      26.843  17.634  36.434  0.00  0.00    +0.000 C 
ENDROOT
BRANCH  10  12
ATOM     12  C   UNL     1      25.428  16.142  35.087  0.00  0.00    +0.000 A 
ATOM     13  C   UNL     1      25.039  17.029  34.135  0.00  0.00    +0.000 A 
ATOM     14  C   UNL     1      24.915  16.641  32.791  0.00  0.00    +0.000 A 
ATOM     15  C   UNL     1      25.190  15.357  32.440  0.00  0.00    +0.000 A 
ATOM     16  C   UNL     1      25.581  14.451  33.373  0.00  0.00    +0.000 A 
ATOM     17  C   UNL     1      25.699  14.860  34.722  0.00  0.00    +0.000 A 
ENDBRANCH  10  12
BRANCH  11  18
ATOM     18  C   UNL     1      28.047  16.753  36.037  0.00  0.00    +0.000 A 
ATOM     19  C   UNL     1      28.914  16.207  36.918  0.00  0.00    +0.000 A 
ATOM     20  C   UNL     1      29.991  15.448  36.495  0.00  0.00    +0.000 A 
ATOM     21  C   UNL     1      30.188  15.243  35.151  0.00  0.00    +0.000 A 
ATOM     22  N   UNL     1      29.330  15.784  34.288  0.00  0.00    +0.000 NA
ATOM     23  C   UNL     1      28.257  16.540  34.711  0.00  0.00    +0.000 A 
BRANCH  21  24
ATOM     24  O   UNL     1      31.280  14.473  34.689  0.00  0.00    +0.000 OA
BRANCH  24  25
ATOM     25  C   UNL     1      31.718  13.346  35.418  0.00  0.00    +0.000 C 
BRANCH  25  26
ATOM     26  C   UNL     1      33.119  13.676  35.923  0.00  0.00    +0.000 C 
BRANCH  26  27
ATOM     27  N   UNL     1      33.222  13.143  37.258  0.00  0.00    +0.000 NA
ATOM     28  C   UNL     1      32.816  14.058  38.279  0.00  0.00    +0.000 C 
ATOM     29  C   UNL     1      32.269  13.276  39.430  0.00  0.00    +0.000 C 
ATOM     30  C   UNL     1      32.014  11.911  38.882  0.00  0.00    +0.000 C 
ATOM     31  C   UNL     1      32.501  11.915  37.435  0.00  0.00    +0.000 C 
ENDBRANCH  26  27
ENDBRANCH  25  26
ENDBRANCH  24  25
ENDBRANCH  21  24
ENDBRANCH  11  18
TORSDOF 6
ENDMDL
MODEL 10
REMARK VINA RESULT:      -7.1      3.131      6.650
REMARK  Name = 
REMARK  6 active torsions:
REMARK  status: ('A' for Active; 'I' for Inactive)
REMARK    1  A    between atoms: C_10  and  C_11
REMARK    2  A    between atoms: C_17  and  C_18
REMARK    3  A    between atoms: C_21  and  O_22
REMARK    4  A    between atoms: O_22  and  C_23
REMARK    5  A    between atoms: C_23  and  C_24
REMARK    6  A    between atoms: C_24  and  N_25
REMARK                            x       y       z     vdW  Elec       q    Type
REMARK                         _______ _______ _______ _____ _____    ______ ____
ROOT
ATOM      1  O   UNL     1      36.028  -5.918  16.533  0.00  0.00    +0.000 OA
ATOM      2  C   UNL     1      36.538  -4.631  16.277  0.00  0.00    +0.000 A 
ATOM      3  C   UNL     1      36.669  -3.710  17.289  0.00  0.00    +0.000 A 
ATOM      4  C   UNL     1      37.170  -2.442  17.041  0.00  0.00    +0.000 A 
ATOM      5  C   UNL     1      37.547  -2.091  15.759  0.00  0.00    +0.000 A 
ATOM      6  C   UNL     1      37.432  -2.960  14.762  0.00  0.00    +0.000 A 
ATOM      7  C   UNL     1      36.921  -4.252  15.015  0.00  0.00    +0.000 A 
ATOM      8  C   UNL     1      37.800  -2.695  13.386  0.00  0.00    +0.000 C 
ATOM      9  C   UNL     1      38.035  -1.285  13.112  0.00  0.00    +0.000 C 
ATOM     10  C   UNL     1      37.243  -0.337  14.135  0.00  0.00    +0.000 C 
ATOM     11  C   UNL     1      38.100  -0.624  15.586  0.00  0.00    +0.000 C 
ENDROOT
BRANCH  10  12
ATOM     12  C   UNL     1      37.909   1.001  13.752  0.00  0.00    +0.000 A 
ATOM     13  C   UNL     1      38.022   2.056  14.599  0.00  0.00    +0.000 A 
ATOM     14  C   UNL     1      38.630   3.254  14.188  0.00  0.00    +0.000 A 
ATOM     15  C   UNL     1      39.113   3.355  12.922  0.00  0.00    +0.000 A 
ATOM     16  C   UNL     1      39.013   2.314  12.055  0.00  0.00    +0.000 A 
ATOM     17  C   UNL     1      38.396   1.116  12.487  0.00  0.00    +0.000 A 
ENDBRANCH  10  12
BRANCH  11  18
ATOM     18  C   UNL     1      39.528  -0.931  15.086  0.00  0.00    +0.000 A 
ATOM     19  C   UNL     1      40.325  -0.037  14.459  0.00  0.00    +0.000 A 
ATOM     20  C   UNL     1      41.587  -0.385  14.011  0.00  0.00    +0.000 A 
ATOM     21  C   UNL     1      42.045  -1.665  14.205  0.00  0.00    +0.000 A 
ATOM     22  N   UNL     1      41.257  -2.541  14.824  0.00  0.00    +0.000 NA
ATOM     23  C   UNL     1      39.998  -2.194  15.270  0.00  0.00    +0.000 A 
BRANCH  21  24
ATOM     24  O   UNL     1      43.330  -2.048  13.758  0.00  0.00    +0.000 OA
BRANCH  24  25
ATOM     25  C   UNL     1      43.812  -1.611  12.505  0.00  0.00    +0.000 C 
BRANCH  25  26
ATOM     26  C   UNL     1      43.801  -2.830  11.588  0.00  0.00    +0.000 C 
BRANCH  26  27
ATOM     27  N   UNL     1      42.689  -2.668  10.685  0.00  0.00    +0.000 NA
ATOM     28  C   UNL     1      41.531  -3.421  11.053  0.00  0.00    +0.000 C 
ATOM     29  C   UNL     1      40.316  -2.691  10.578  0.00  0.00    +0.000 C 
ATOM     30  C   UNL     1      40.793  -1.309  10.273  0.00  0.00    +0.000 C 
ATOM     31  C   UNL     1      42.302  -1.298  10.504  0.00  0.00    +0.000 C 
ENDBRANCH  26  27
ENDBRANCH  25  26
ENDBRANCH  24  25
ENDBRANCH  21  24
ENDBRANCH  11  18
TORSDOF 6
ENDMDL
