MODEL 1
REMARK VINA RESULT:      -7.5      0.000      0.000
REMARK  Name = 
REMARK  4 active torsions:
REMARK  status: ('A' for Active; 'I' for Inactive)
REMARK    1  A    between atoms: C_2  and  C_3
REMARK    2  A    between atoms: C_8  and  N_9
REMARK    3  A    between atoms: C_10  and  C_12
REMARK    4  A    between atoms: C_15  and  N_16
REMARK                            x       y       z     vdW  Elec       q    Type
REMARK                         _______ _______ _______ _____ _____    ______ ____
ROOT
ATOM      1  N   UNL     1      15.377  11.464  35.402  0.00  0.00    +0.000 NA
ATOM      2  C   UNL     1      16.574  11.787  36.097  0.00  0.00    +0.000 C 
ATOM      3  O   UNL     1      17.089  12.912  35.875  0.00  0.00    +0.000 OA
ENDROOT
BRANCH   2   4
ATOM      4  C   UNL     1      17.193  10.862  37.035  0.00  0.00    +0.000 A 
ATOM      5  C   UNL     1      18.363  10.209  36.720  0.00  0.00    +0.000 A 
ATOM      6  C   UNL     1      18.965   9.322  37.608  0.00  0.00    +0.000 A 
ATOM      7  C   UNL     1      18.401   9.073  38.834  0.00  0.00    +0.000 A 
ATOM      8  C   UNL     1      17.231   9.731  39.139  0.00  0.00    +0.000 A 
ATOM      9  C   UNL     1      16.623   9.460  40.466  0.00  0.00    +0.000 C 
ATOM     10  C   UNL     1      16.629  10.609  38.268  0.00  0.00    +0.000 A 
BRANCH   7  11
ATOM     11  N   UNL     1      18.972   8.180  39.778  0.00  0.00    +0.000 N 
ATOM     12  O   UNL     1      18.665   6.968  39.724  0.00  0.00    +0.000 OA
ATOM     13  O   UNL     1      19.841   8.672  40.721  0.00  0.00    +0.000 OA
ENDBRANCH   7  11
ENDBRANCH   2   4
BRANCH   1  19
ATOM     14  C   UNL     1      14.955  12.263  33.133  0.00  0.00    +0.000 A 
ATOM     15  C   UNL     1      14.362  13.190  32.307  0.00  0.00    +0.000 A 
ATOM     16  C   UNL     1      13.611  14.236  32.795  0.00  0.00    +0.000 A 
ATOM     17  C   UNL     1      13.444  14.365  34.157  0.00  0.00    +0.000 A 
ATOM     18  C   UNL     1      14.035  13.443  34.984  0.00  0.00    +0.000 A 
ATOM     19  C   UNL     1      14.785  12.399  34.477  0.00  0.00    +0.000 A 
BRANCH  14  21
ATOM     20  C   UNL     1      15.730  11.176  31.091  0.00  0.00    +0.000 C 
ATOM     21  C   UNL     1      15.762  11.139  32.595  0.00  0.00    +0.000 C 
ENDBRANCH  14  21
ENDBRANCH   1  19
TORSDOF 4
ENDMDL
MODEL 2
REMARK VINA RESULT:      -7.4      1.122      2.299
REMARK  Name = 
REMARK  4 active torsions:
REMARK  status: ('A' for Active; 'I' for Inactive)
REMARK    1  A    between atoms: C_2  and  C_3
REMARK    2  A    between atoms: C_8  and  N_9
REMARK    3  A    between atoms: C_10  and  C_12
REMARK    4  A    between atoms: C_15  and  N_16
REMARK                            x       y       z     vdW  Elec       q    Type
REMARK                         _______ _______ _______ _____ _____    ______ ____
ROOT
ATOM      1  N   UNL     1      15.225  11.541  34.420  0.00  0.00    +0.000 NA
ATOM      2  C   UNL     1      16.611  11.382  34.693  0.00  0.00    +0.000 C 
ATOM      3  O   UNL     1      17.425  11.801  33.831  0.00  0.00    +0.000 OA
ENDROOT
BRANCH   2   4
ATOM      4  C   UNL     1      17.087  10.761  35.920  0.00  0.00    +0.000 A 
ATOM      5  C   UNL     1      18.305  10.123  35.966  0.00  0.00    +0.000 A 
ATOM      6  C   UNL     1      18.771   9.525  37.133  0.00  0.00    +0.000 A 
ATOM      7  C   UNL     1      18.021   9.558  38.282  0.00  0.00    +0.000 A 
ATOM      8  C   UNL     1      16.804  10.199  38.226  0.00  0.00    +0.000 A 
ATOM      9  C   UNL     1      15.993  10.233  39.468  0.00  0.00    +0.000 C 
ATOM     10  C   UNL     1      16.335  10.792  37.076  0.00  0.00    +0.000 A 
BRANCH   7  11
ATOM     11  N   UNL     1      18.447   8.967  39.499  0.00  0.00    +0.000 N 
ATOM     12  O   UNL     1      18.252   7.744  39.677  0.00  0.00    +0.000 OA
ATOM     13  O   UNL     1      19.060   9.753  40.444  0.00  0.00    +0.000 OA
ENDBRANCH   7  11
ENDBRANCH   2   4
BRANCH   1  19
ATOM     14  C   UNL     1      14.087  13.332  33.210  0.00  0.00    +0.000 A 
ATOM     15  C   UNL     1      13.693  13.868  32.007  0.00  0.00    +0.000 A 
ATOM     16  C   UNL     1      13.975  13.261  30.804  0.00  0.00    +0.000 A 
ATOM     17  C   UNL     1      14.676  12.075  30.797  0.00  0.00    +0.000 A 
ATOM     18  C   UNL     1      15.071  11.537  31.997  0.00  0.00    +0.000 A 
ATOM     19  C   UNL     1      14.780  12.159  33.195  0.00  0.00    +0.000 A 
BRANCH  14  21
ATOM     20  C   UNL     1      12.975  15.243  34.243  0.00  0.00    +0.000 C 
ATOM     21  C   UNL     1      13.778  13.996  34.501  0.00  0.00    +0.000 C 
ENDBRANCH  14  21
ENDBRANCH   1  19
TORSDOF 4
ENDMDL
MODEL 3
REMARK VINA RESULT:      -7.0      2.691      7.412
REMARK  Name = 
REMARK  4 active torsions:
REMARK  status: ('A' for Active; 'I' for Inactive)
REMARK    1  A    between atoms: C_2  and  C_3
REMARK    2  A    between atoms: C_8  and  N_9
REMARK    3  A    between atoms: C_10  and  C_12
REMARK    4  A    between atoms: C_15  and  N_16
REMARK                            x       y       z     vdW  Elec       q    Type
REMARK                         _______ _______ _______ _____ _____    ______ ____
ROOT
ATOM      1  N   UNL     1      17.107  11.040  37.188  0.00  0.00    +0.000 NA
ATOM      2  C   UNL     1      17.098  10.218  36.029  0.00  0.00    +0.000 C 
ATOM      3  O   UNL     1      17.516   9.038  36.151  0.00  0.00    +0.000 OA
ENDROOT
BRANCH   2   4
ATOM      4  C   UNL     1      16.627  10.707  34.742  0.00  0.00    +0.000 A 
ATOM      5  C   UNL     1      17.131  10.205  33.564  0.00  0.00    +0.000 A 
ATOM      6  C   UNL     1      16.689  10.664  32.327  0.00  0.00    +0.000 A 
ATOM      7  C   UNL     1      15.727  11.640  32.248  0.00  0.00    +0.000 A 
ATOM      8  C   UNL     1      15.229  12.135  33.432  0.00  0.00    +0.000 A 
ATOM      9  C   UNL     1      14.189  13.191  33.345  0.00  0.00    +0.000 C 
ATOM     10  C   UNL     1      15.661  11.688  34.659  0.00  0.00    +0.000 A 
BRANCH   7  11
ATOM     11  N   UNL     1      15.239  12.144  31.015  0.00  0.00    +0.000 N 
ATOM     12  O   UNL     1      14.350  11.504  30.411  0.00  0.00    +0.000 OA
ATOM     13  O   UNL     1      15.756  13.317  30.522  0.00  0.00    +0.000 OA
ENDBRANCH   7  11
ENDBRANCH   2   4
BRANCH   1  19
ATOM     14  C   UNL     1      18.878  10.688  38.833  0.00  0.00    +0.000 A 
ATOM     15  C   UNL     1      19.262  10.179  40.051  0.00  0.00    +0.000 A 
ATOM     16  C   UNL     1      18.384   9.524  40.885  0.00  0.00    +0.000 A 
ATOM     17  C   UNL     1      17.072   9.370  40.492  0.00  0.00    +0.000 A 
ATOM     18  C   UNL     1      16.685   9.876  39.276  0.00  0.00    +0.000 A 
ATOM     19  C   UNL     1      17.580  10.531  38.452  0.00  0.00    +0.000 A 
BRANCH  14  21
ATOM     20  C   UNL     1      20.020  12.806  38.426  0.00  0.00    +0.000 C 
ATOM     21  C   UNL     1      19.834  11.393  37.942  0.00  0.00    +0.000 C 
ENDBRANCH  14  21
ENDBRANCH   1  19
TORSDOF 4
ENDMDL
MODEL 4
REMARK VINA RESULT:      -6.5      2.664      7.529
REMARK  Name = 
REMARK  4 active torsions:
REMARK  status: ('A' for Active; 'I' for Inactive)
REMARK    1  A    between atoms: C_2  and  C_3
REMARK    2  A    between atoms: C_8  and  N_9
REMARK    3  A    between atoms: C_10  and  C_12
REMARK    4  A    between atoms: C_15  and  N_16
REMARK                            x       y       z     vdW  Elec       q    Type
REMARK                         _______ _______ _______ _____ _____    ______ ____
ROOT
ATOM      1  N   UNL     1      18.115  11.174  37.712  0.00  0.00    +0.000 NA
ATOM      2  C   UNL     1      18.108  10.354  36.552  0.00  0.00    +0.000 C 
ATOM      3  O   UNL     1      18.799   9.304  36.579  0.00  0.00    +0.000 OA
ENDROOT
BRANCH   2   4
ATOM      4  C   UNL     1      17.336  10.701  35.368  0.00  0.00    +0.000 A 
ATOM      5  C   UNL     1      17.639  10.161  34.139  0.00  0.00    +0.000 A 
ATOM      6  C   UNL     1      16.908  10.485  33.000  0.00  0.00    +0.000 A 
ATOM      7  C   UNL     1      15.854  11.361  33.073  0.00  0.00    +0.000 A 
ATOM      8  C   UNL     1      15.558  11.895  34.307  0.00  0.00    +0.000 A 
ATOM      9  C   UNL     1      14.419  12.842  34.385  0.00  0.00    +0.000 C 
ATOM     10  C   UNL     1      16.276  11.581  35.438  0.00  0.00    +0.000 A 
BRANCH   7  11
ATOM     11  N   UNL     1      15.075  11.726  31.945  0.00  0.00    +0.000 N 
ATOM     12  O   UNL     1      14.180  10.945  31.552  0.00  0.00    +0.000 OA
ATOM     13  O   UNL     1      15.326  12.923  31.320  0.00  0.00    +0.000 OA
ENDBRANCH   7  11
ENDBRANCH   2   4
BRANCH   1  19
ATOM     14  C   UNL     1      18.355  10.039  39.861  0.00  0.00    +0.000 A 
ATOM     15  C   UNL     1      19.148   9.724  40.940  0.00  0.00    +0.000 A 
ATOM     16  C   UNL     1      20.450  10.159  41.046  0.00  0.00    +0.000 A 
ATOM     17  C   UNL     1      20.984  10.936  40.040  0.00  0.00    +0.000 A 
ATOM     18  C   UNL     1      20.195  11.252  38.962  0.00  0.00    +0.000 A 
ATOM     19  C   UNL     1      18.889  10.807  38.872  0.00  0.00    +0.000 A 
BRANCH  14  21
ATOM     20  C   UNL     1      16.361   9.446  41.137  0.00  0.00    +0.000 C 
ATOM     21  C   UNL     1      16.952   9.564  39.758  0.00  0.00    +0.000 C 
ENDBRANCH  14  21
ENDBRANCH   1  19
TORSDOF 4
ENDMDL
MODEL 5
REMARK VINA RESULT:      -6.4      2.882      7.553
REMARK  Name = 
REMARK  4 active torsions:
REMARK  status: ('A' for Active; 'I' for Inactive)
REMARK    1  A    between atoms: C_2  and  C_3
REMARK    2  A    between atoms: C_8  and  N_9
REMARK    3  A    between atoms: C_10  and  C_12
REMARK    4  A    between atoms: C_15  and  N_16
REMARK                            x       y       z     vdW  Elec       q    Type
REMARK                         _______ _______ _______ _____ _____    ______ ____
ROOT
ATOM      1  N   UNL     1      19.209  10.930  37.043  0.00  0.00    +0.000 NA
ATOM      2  C   UNL     1      18.200  10.100  36.484  0.00  0.00    +0.000 C 
ATOM      3  O   UNL     1      18.028   8.966  37.001  0.00  0.00    +0.000 OA
ENDROOT
BRANCH   2   4
ATOM      4  C   UNL     1      17.387  10.530  35.356  0.00  0.00    +0.000 A 
ATOM      5  C   UNL     1      17.649  10.083  34.082  0.00  0.00    +0.000 A 
ATOM      6  C   UNL     1      16.879  10.486  32.995  0.00  0.00    +0.000 A 
ATOM      7  C   UNL     1      15.826  11.349  33.168  0.00  0.00    +0.000 A 
ATOM      8  C   UNL     1      15.572  11.791  34.447  0.00  0.00    +0.000 A 
ATOM      9  C   UNL     1      14.434  12.724  34.632  0.00  0.00    +0.000 C 
ATOM     10  C   UNL     1      16.328  11.397  35.526  0.00  0.00    +0.000 A 
BRANCH   7  11
ATOM     11  N   UNL     1      15.008  11.793  32.096  0.00  0.00    +0.000 N 
ATOM     12  O   UNL     1      14.134  11.020  31.645  0.00  0.00    +0.000 OA
ATOM     13  O   UNL     1      15.201  13.054  31.588  0.00  0.00    +0.000 OA
ENDBRANCH   7  11
ENDBRANCH   2   4
BRANCH   1  19
ATOM     14  C   UNL     1      21.236   9.935  37.975  0.00  0.00    +0.000 A 
ATOM     15  C   UNL     1      21.938   9.526  39.085  0.00  0.00    +0.000 A 
ATOM     16  C   UNL     1      21.435   9.650  40.360  0.00  0.00    +0.000 A 
ATOM     17  C   UNL     1      20.185  10.203  40.540  0.00  0.00    +0.000 A 
ATOM     18  C   UNL     1      19.481  10.611  39.435  0.00  0.00    +0.000 A 
ATOM     19  C   UNL     1      20.001  10.479  38.161  0.00  0.00    +0.000 A 
BRANCH  14  21
ATOM     20  C   UNL     1      23.172   9.210  36.680  0.00  0.00    +0.000 C 
ATOM     21  C   UNL     1      21.788   9.797  36.605  0.00  0.00    +0.000 C 
ENDBRANCH  14  21
ENDBRANCH   1  19
TORSDOF 4
ENDMDL
MODEL 6
REMARK VINA RESULT:      -6.1      3.550      4.717
REMARK  Name = 
REMARK  4 active torsions:
REMARK  status: ('A' for Active; 'I' for Inactive)
REMARK    1  A    between atoms: C_2  and  C_3
REMARK    2  A    between atoms: C_8  and  N_9
REMARK    3  A    between atoms: C_10  and  C_12
REMARK    4  A    between atoms: C_15  and  N_16
REMARK                            x       y       z     vdW  Elec       q    Type
REMARK                         _______ _______ _______ _____ _____    ______ ____
ROOT
ATOM      1  N   UNL     1      18.086  10.430  36.979  0.00  0.00    +0.000 NA
ATOM      2  C   UNL     1      19.137  11.245  37.481  0.00  0.00    +0.000 C 
ATOM      3  O   UNL     1      18.824  12.361  37.969  0.00  0.00    +0.000 OA
ENDROOT
BRANCH   2   4
ATOM      4  C   UNL     1      20.528  10.820  37.439  0.00  0.00    +0.000 A 
ATOM      5  C   UNL     1      20.926   9.772  36.641  0.00  0.00    +0.000 A 
ATOM      6  C   UNL     1      22.253   9.356  36.592  0.00  0.00    +0.000 A 
ATOM      7  C   UNL     1      23.210   9.987  37.347  0.00  0.00    +0.000 A 
ATOM      8  C   UNL     1      22.802  11.034  38.142  0.00  0.00    +0.000 A 
ATOM      9  C   UNL     1      23.837  11.714  38.958  0.00  0.00    +0.000 C 
ATOM     10  C   UNL     1      21.492  11.451  38.197  0.00  0.00    +0.000 A 
BRANCH   7  11
ATOM     11  N   UNL     1      24.577   9.606  37.335  0.00  0.00    +0.000 N 
ATOM     12  O   UNL     1      24.968   8.738  38.147  0.00  0.00    +0.000 OA
ATOM     13  O   UNL     1      25.428  10.199  36.435  0.00  0.00    +0.000 OA
ENDBRANCH   7  11
ENDBRANCH   2   4
BRANCH   1  19
ATOM     14  C   UNL     1      16.121  11.454  35.952  0.00  0.00    +0.000 A 
ATOM     15  C   UNL     1      14.811  11.856  36.070  0.00  0.00    +0.000 A 
ATOM     16  C   UNL     1      14.094  11.692  37.233  0.00  0.00    +0.000 A 
ATOM     17  C   UNL     1      14.702  11.105  38.322  0.00  0.00    +0.000 A 
ATOM     18  C   UNL     1      16.010  10.703  38.208  0.00  0.00    +0.000 A 
ATOM     19  C   UNL     1      16.716  10.876  37.032  0.00  0.00    +0.000 A 
BRANCH  14  21
ATOM     20  C   UNL     1      16.373  10.675  33.653  0.00  0.00    +0.000 C 
ATOM     21  C   UNL     1      16.885  11.636  34.692  0.00  0.00    +0.000 C 
ENDBRANCH  14  21
ENDBRANCH   1  19
TORSDOF 4
ENDMDL
MODEL 7
REMARK VINA RESULT:      -6.1     23.024     25.789
REMARK  Name = 
REMARK  4 active torsions:
REMARK  status: ('A' for Active; 'I' for Inactive)
REMARK    1  A    between atoms: C_2  and  C_3
REMARK    2  A    between atoms: C_8  and  N_9
REMARK    3  A    between atoms: C_10  and  C_12
REMARK    4  A    between atoms: C_15  and  N_16
REMARK                            x       y       z     vdW  Elec       q    Type
REMARK                         _______ _______ _______ _____ _____    ______ ____
ROOT
ATOM      1  N   UNL     1      29.457  25.588  22.867  0.00  0.00    +0.000 NA
ATOM      2  C   UNL     1      29.442  25.407  21.458  0.00  0.00    +0.000 C 
ATOM      3  O   UNL     1      29.604  24.239  21.020  0.00  0.00    +0.000 OA
ENDROOT
BRANCH   2   4
ATOM      4  C   UNL     1      29.247  26.521  20.541  0.00  0.00    +0.000 A 
ATOM      5  C   UNL     1      28.217  27.415  20.719  0.00  0.00    +0.000 A 
ATOM      6  C   UNL     1      28.021  28.484  19.850  0.00  0.00    +0.000 A 
ATOM      7  C   UNL     1      28.859  28.677  18.781  0.00  0.00    +0.000 A 
ATOM      8  C   UNL     1      29.888  27.777  18.612  0.00  0.00    +0.000 A 
ATOM      9  C   UNL     1      30.794  27.986  17.456  0.00  0.00    +0.000 C 
ATOM     10  C   UNL     1      30.088  26.717  19.466  0.00  0.00    +0.000 A 
BRANCH   7  11
ATOM     11  N   UNL     1      28.707  29.749  17.864  0.00  0.00    +0.000 N 
ATOM     12  O   UNL     1      29.267  30.840  18.113  0.00  0.00    +0.000 OA
ATOM     13  O   UNL     1      27.950  29.558  16.734  0.00  0.00    +0.000 OA
ENDBRANCH   7  11
ENDBRANCH   2   4
BRANCH   1  19
ATOM     14  C   UNL     1      28.599  23.871  24.378  0.00  0.00    +0.000 A 
ATOM     15  C   UNL     1      28.855  22.806  25.210  0.00  0.00    +0.000 A 
ATOM     16  C   UNL     1      30.129  22.332  25.426  0.00  0.00    +0.000 A 
ATOM     17  C   UNL     1      31.190  22.941  24.791  0.00  0.00    +0.000 A 
ATOM     18  C   UNL     1      30.938  24.004  23.960  0.00  0.00    +0.000 A 
ATOM     19  C   UNL     1      29.652  24.467  23.754  0.00  0.00    +0.000 A 
BRANCH  14  21
ATOM     20  C   UNL     1      26.508  23.464  23.189  0.00  0.00    +0.000 C 
ATOM     21  C   UNL     1      27.220  24.374  24.153  0.00  0.00    +0.000 C 
ENDBRANCH  14  21
ENDBRANCH   1  19
TORSDOF 4
ENDMDL
MODEL 8
REMARK VINA RESULT:      -6.0     19.098     21.638
REMARK  Name = 
REMARK  4 active torsions:
REMARK  status: ('A' for Active; 'I' for Inactive)
REMARK    1  A    between atoms: C_2  and  C_3
REMARK    2  A    between atoms: C_8  and  N_9
REMARK    3  A    between atoms: C_10  and  C_12
REMARK    4  A    between atoms: C_15  and  N_16
REMARK                            x       y       z     vdW  Elec       q    Type
REMARK                         _______ _______ _______ _____ _____    ______ ____
ROOT
ATOM      1  N   UNL     1      34.326  -1.192  34.260  0.00  0.00    +0.000 NA
ATOM      2  C   UNL     1      33.310  -0.269  34.627  0.00  0.00    +0.000 C 
ATOM      3  O   UNL     1      32.194  -0.737  34.967  0.00  0.00    +0.000 OA
ENDROOT
BRANCH   2   4
ATOM      4  C   UNL     1      33.537   1.169  34.616  0.00  0.00    +0.000 A 
ATOM      5  C   UNL     1      33.467   1.889  33.445  0.00  0.00    +0.000 A 
ATOM      6  C   UNL     1      33.681   3.264  33.421  0.00  0.00    +0.000 A 
ATOM      7  C   UNL     1      33.970   3.945  34.576  0.00  0.00    +0.000 A 
ATOM      8  C   UNL     1      34.038   3.216  35.742  0.00  0.00    +0.000 A 
ATOM      9  C   UNL     1      34.351   3.954  36.991  0.00  0.00    +0.000 C 
ATOM     10  C   UNL     1      33.828   1.857  35.775  0.00  0.00    +0.000 A 
BRANCH   7  11
ATOM     11  N   UNL     1      34.197   5.346  34.610  0.00  0.00    +0.000 N 
ATOM     12  O   UNL     1      35.375   5.767  34.586  0.00  0.00    +0.000 OA
ATOM     13  O   UNL     1      33.119   6.195  34.669  0.00  0.00    +0.000 OA
ENDBRANCH   7  11
ENDBRANCH   2   4
BRANCH   1  19
ATOM     14  C   UNL     1      34.388  -3.368  35.369  0.00  0.00    +0.000 A 
ATOM     15  C   UNL     1      34.122  -4.717  35.321  0.00  0.00    +0.000 A 
ATOM     16  C   UNL     1      33.555  -5.316  34.219  0.00  0.00    +0.000 A 
ATOM     17  C   UNL     1      33.241  -4.544  33.121  0.00  0.00    +0.000 A 
ATOM     18  C   UNL     1      33.505  -3.198  33.165  0.00  0.00    +0.000 A 
ATOM     19  C   UNL     1      34.075  -2.613  34.279  0.00  0.00    +0.000 A 
BRANCH  14  21
ATOM     20  C   UNL     1      36.498  -2.836  36.472  0.00  0.00    +0.000 C 
ATOM     21  C   UNL     1      34.999  -2.733  36.563  0.00  0.00    +0.000 C 
ENDBRANCH  14  21
ENDBRANCH   1  19
TORSDOF 4
ENDMDL
MODEL 9
REMARK VINA RESULT:      -6.0     20.572     23.487
REMARK  Name = 
REMARK  4 active torsions:
REMARK  status: ('A' for Active; 'I' for Inactive)
REMARK    1  A    between atoms: C_2  and  C_3
REMARK    2  A    between atoms: C_8  and  N_9
REMARK    3  A    between atoms: C_10  and  C_12
REMARK    4  A    between atoms: C_15  and  N_16
REMARK                            x       y       z     vdW  Elec       q    Type
REMARK                         _______ _______ _______ _____ _____    ______ ____
ROOT
ATOM      1  N   UNL     1      33.182  -4.688  31.376  0.00  0.00    +0.000 NA
ATOM      2  C   UNL     1      33.948  -4.781  32.570  0.00  0.00    +0.000 C 
ATOM      3  O   UNL     1      34.671  -5.799  32.718  0.00  0.00    +0.000 OA
ENDROOT
BRANCH   2   4
ATOM      4  C   UNL     1      33.908  -3.745  33.592  0.00  0.00    +0.000 A 
ATOM      5  C   UNL     1      34.203  -4.033  34.905  0.00  0.00    +0.000 A 
ATOM      6  C   UNL     1      34.168  -3.052  35.891  0.00  0.00    +0.000 A 
ATOM      7  C   UNL     1      33.838  -1.758  35.577  0.00  0.00    +0.000 A 
ATOM      8  C   UNL     1      33.546  -1.480  34.261  0.00  0.00    +0.000 A 
ATOM      9  C   UNL     1      33.188  -0.081  33.922  0.00  0.00    +0.000 C 
ATOM     10  C   UNL     1      33.576  -2.444  33.279  0.00  0.00    +0.000 A 
BRANCH   7  11
ATOM     11  N   UNL     1      33.788  -0.718  36.541  0.00  0.00    +0.000 N 
ATOM     12  O   UNL     1      32.712  -0.504  37.143  0.00  0.00    +0.000 OA
ATOM     13  O   UNL     1      34.920   0.021  36.785  0.00  0.00    +0.000 OA
ENDBRANCH   7  11
ENDBRANCH   2   4
BRANCH   1  19
ATOM     14  C   UNL     1      32.383  -6.788  30.417  0.00  0.00    +0.000 A 
ATOM     15  C   UNL     1      32.491  -7.745  29.435  0.00  0.00    +0.000 A 
ATOM     16  C   UNL     1      33.427  -7.663  28.429  0.00  0.00    +0.000 A 
ATOM     17  C   UNL     1      34.289  -6.588  28.397  0.00  0.00    +0.000 A 
ATOM     18  C   UNL     1      34.184  -5.631  29.376  0.00  0.00    +0.000 A 
ATOM     19  C   UNL     1      33.239  -5.729  30.379  0.00  0.00    +0.000 A 
BRANCH  14  21
ATOM     20  C   UNL     1      30.004  -6.606  30.929  0.00  0.00    +0.000 C 
ATOM     21  C   UNL     1      31.370  -6.886  31.497  0.00  0.00    +0.000 C 
ENDBRANCH  14  21
ENDBRANCH   1  19
TORSDOF 4
ENDMDL
MODEL 10
REMARK VINA RESULT:      -5.9     20.375     22.470
REMARK  Name = 
REMARK  4 active torsions:
REMARK  status: ('A' for Active; 'I' for Inactive)
REMARK    1  A    between atoms: C_2  and  C_3
REMARK    2  A    between atoms: C_8  and  N_9
REMARK    3  A    between atoms: C_10  and  C_12
REMARK    4  A    between atoms: C_15  and  N_16
REMARK                            x       y       z     vdW  Elec       q    Type
REMARK                         _______ _______ _______ _____ _____    ______ ____
ROOT
ATOM      1  N   UNL     1      32.671  -1.691  34.676  0.00  0.00    +0.000 NA
ATOM      2  C   UNL     1      33.517  -2.812  34.462  0.00  0.00    +0.000 C 
ATOM      3  O   UNL     1      34.654  -2.793  35.000  0.00  0.00    +0.000 OA
ENDROOT
BRANCH   2   4
ATOM      4  C   UNL     1      33.101  -3.948  33.653  0.00  0.00    +0.000 A 
ATOM      5  C   UNL     1      32.137  -4.822  34.101  0.00  0.00    +0.000 A 
ATOM      6  C   UNL     1      31.729  -5.912  33.336  0.00  0.00    +0.000 A 
ATOM      7  C   UNL     1      32.284  -6.145  32.103  0.00  0.00    +0.000 A 
ATOM      8  C   UNL     1      33.247  -5.265  31.665  0.00  0.00    +0.000 A 
ATOM      9  C   UNL     1      33.847  -5.519  30.331  0.00  0.00    +0.000 C 
ATOM     10  C   UNL     1      33.656  -4.186  32.413  0.00  0.00    +0.000 A 
BRANCH   7  11
ATOM     11  N   UNL     1      31.907  -7.239  31.282  0.00  0.00    +0.000 N 
ATOM     12  O   UNL     1      30.934  -7.104  30.507  0.00  0.00    +0.000 OA
ATOM     13  O   UNL     1      32.619  -8.411  31.362  0.00  0.00    +0.000 OA
ENDBRANCH   7  11
ENDBRANCH   2   4
BRANCH   1  19
ATOM     14  C   UNL     1      33.523   0.586  34.908  0.00  0.00    +0.000 A 
ATOM     15  C   UNL     1      33.927   1.609  35.735  0.00  0.00    +0.000 A 
ATOM     16  C   UNL     1      33.924   1.490  37.106  0.00  0.00    +0.000 A 
ATOM     17  C   UNL     1      33.502   0.310  37.678  0.00  0.00    +0.000 A 
ATOM     18  C   UNL     1      33.099  -0.713  36.857  0.00  0.00    +0.000 A 
ATOM     19  C   UNL     1      33.108  -0.578  35.481  0.00  0.00    +0.000 A 
BRANCH  14  21
ATOM     20  C   UNL     1      33.711   2.174  33.065  0.00  0.00    +0.000 C 
ATOM     21  C   UNL     1      33.530   0.726  33.430  0.00  0.00    +0.000 C 
ENDBRANCH  14  21
ENDBRANCH   1  19
TORSDOF 4
ENDMDL
