MODEL 1
REMARK VINA RESULT:      -8.0      0.000      0.000
REMARK  Name = 
REMARK  8 active torsions:
REMARK  status: ('A' for Active; 'I' for Inactive)
REMARK    1  A    between atoms: C_2  and  C_3
REMARK    2  A    between atoms: C_3  and  C_4
REMARK    3  A    between atoms: C_4  and  C_5
REMARK    4  A    between atoms: C_5  and  O_6
REMARK    5  A    between atoms: O_6  and  C_7
REMARK    6  A    between atoms: C_7  and  C_9
REMARK    7  A    between atoms: N_12  and  C_13
REMARK    8  A    between atoms: C_13  and  C_15
REMARK                            x       y       z     vdW  Elec       q    Type
REMARK                         _______ _______ _______ _____ _____    ______ ____
ROOT
ATOM      1  C   UNL     1      36.790   1.764  15.882  0.00  0.00    +0.000 A 
ATOM      2  C   UNL     1      35.837   0.868  16.301  0.00  0.00    +0.000 A 
ATOM      3  N   UNL     1      34.572   1.137  16.887  0.00  0.00    +0.000 NA
ATOM      4  N   UNL     1      36.311  -0.350  16.059  0.00  0.00    +0.000 N 
ATOM      5  C   UNL     1      37.481  -0.270  15.524  0.00  0.00    +0.000 A 
ATOM      6  N   UNL     1      38.360  -1.207  15.102  0.00  0.00    +0.000 NA
ATOM      7  C   UNL     1      39.550  -0.865  14.563  0.00  0.00    +0.000 A 
ATOM      8  C   UNL     1      40.458  -1.815  14.128  0.00  0.00    +0.000 A 
ATOM      9  C   UNL     1      41.684  -1.516  13.571  0.00  0.00    +0.000 A 
ATOM     10  C   UNL     1      42.038  -0.188  13.435  0.00  0.00    +0.000 A 
ATOM     11  C   UNL     1      41.153   0.787  13.861  0.00  0.00    +0.000 A 
ATOM     12  C   UNL     1      39.930   0.456  14.415  0.00  0.00    +0.000 A 
ATOM     13  N   UNL     1      39.056   1.389  14.835  0.00  0.00    +0.000 NA
ATOM     14  C   UNL     1      37.852   1.039  15.380  0.00  0.00    +0.000 A 
ENDROOT
BRANCH   1  15
ATOM     15  C   UNL     1      36.708   3.220  15.948  0.00  0.00    +0.000 C 
ATOM     16  O   UNL     1      36.224   3.915  15.028  0.00  0.00    +0.000 OA
BRANCH  15  17
ATOM     17  O   UNL     1      37.183   3.887  17.069  0.00  0.00    +0.000 OA
BRANCH  17  18
ATOM     18  C   UNL     1      38.354   4.671  16.978  0.00  0.00    +0.000 C 
BRANCH  18  19
ATOM     19  C   UNL     1      38.903   4.988  18.369  0.00  0.00    +0.000 C 
BRANCH  19  20
ATOM     20  C   UNL     1      38.829   6.490  18.522  0.00  0.00    +0.000 C 
BRANCH  20  22
ATOM     21  C   UNL     1      40.839   6.303  19.885  0.00  0.00    +0.000 C 
ATOM     22  C   UNL     1      39.418   6.870  19.873  0.00  0.00    +0.000 C 
ENDBRANCH  20  22
ENDBRANCH  19  20
ENDBRANCH  18  19
ENDBRANCH  17  18
ENDBRANCH  15  17
ENDBRANCH   1  15
BRANCH   4  23
ATOM     23  C   UNL     1      35.502  -1.634  16.403  0.00  0.00    +0.000 C 
ATOM     24  C   UNL     1      35.983  -2.552  15.141  0.00  0.00    +0.000 C 
BRANCH  23  25
ATOM     25  C   UNL     1      36.565  -2.149  17.472  0.00  0.00    +0.000 A 
ATOM     26  C   UNL     1      37.238  -3.291  17.086  0.00  0.00    +0.000 A 
ATOM     27  C   UNL     1      38.182  -3.839  17.921  0.00  0.00    +0.000 A 
ATOM     28  C   UNL     1      38.447  -3.241  19.134  0.00  0.00    +0.000 A 
ATOM     29  C   UNL     1      37.747  -2.102  19.470  0.00  0.00    +0.000 A 
ATOM     30  C   UNL     1      36.804  -1.569  18.619  0.00  0.00    +0.000 A 
ENDBRANCH  23  25
ENDBRANCH   4  23
TORSDOF 8
ENDMDL
MODEL 2
REMARK VINA RESULT:      -7.2      3.396      5.802
REMARK  Name = 
REMARK  8 active torsions:
REMARK  status: ('A' for Active; 'I' for Inactive)
REMARK    1  A    between atoms: C_2  and  C_3
REMARK    2  A    between atoms: C_3  and  C_4
REMARK    3  A    between atoms: C_4  and  C_5
REMARK    4  A    between atoms: C_5  and  O_6
REMARK    5  A    between atoms: O_6  and  C_7
REMARK    6  A    between atoms: C_7  and  C_9
REMARK    7  A    between atoms: N_12  and  C_13
REMARK    8  A    between atoms: C_13  and  C_15
REMARK                            x       y       z     vdW  Elec       q    Type
REMARK                         _______ _______ _______ _____ _____    ______ ____
ROOT
ATOM      1  C   UNL     1      39.632  -1.356  15.003  0.00  0.00    +0.000 A 
ATOM      2  C   UNL     1      39.314  -2.360  15.885  0.00  0.00    +0.000 A 
ATOM      3  N   UNL     1      40.057  -3.531  16.192  0.00  0.00    +0.000 NA
ATOM      4  N   UNL     1      38.145  -2.045  16.432  0.00  0.00    +0.000 N 
ATOM      5  C   UNL     1      37.721  -0.926  15.953  0.00  0.00    +0.000 A 
ATOM      6  N   UNL     1      36.606  -0.196  16.186  0.00  0.00    +0.000 NA
ATOM      7  C   UNL     1      36.383   0.971  15.544  0.00  0.00    +0.000 A 
ATOM      8  C   UNL     1      35.246   1.727  15.772  0.00  0.00    +0.000 A 
ATOM      9  C   UNL     1      34.974   2.924  15.143  0.00  0.00    +0.000 A 
ATOM     10  C   UNL     1      35.886   3.408  14.226  0.00  0.00    +0.000 A 
ATOM     11  C   UNL     1      37.033   2.676  13.973  0.00  0.00    +0.000 A 
ATOM     12  C   UNL     1      37.279   1.478  14.620  0.00  0.00    +0.000 A 
ATOM     13  N   UNL     1      38.387   0.753  14.390  0.00  0.00    +0.000 NA
ATOM     14  C   UNL     1      38.611  -0.429  15.041  0.00  0.00    +0.000 A 
ENDROOT
BRANCH   1  15
ATOM     15  C   UNL     1      40.828  -1.272  14.170  0.00  0.00    +0.000 C 
ATOM     16  O   UNL     1      40.867  -1.695  12.993  0.00  0.00    +0.000 OA
BRANCH  15  17
ATOM     17  O   UNL     1      41.987  -0.706  14.684  0.00  0.00    +0.000 OA
BRANCH  17  18
ATOM     18  C   UNL     1      43.190  -0.774  13.946  0.00  0.00    +0.000 C 
BRANCH  18  19
ATOM     19  C   UNL     1      44.312  -1.372  14.794  0.00  0.00    +0.000 C 
BRANCH  19  20
ATOM     20  C   UNL     1      45.218  -0.222  15.172  0.00  0.00    +0.000 C 
BRANCH  20  22
ATOM     21  C   UNL     1      46.704   0.422  16.992  0.00  0.00    +0.000 C 
ATOM     22  C   UNL     1      45.324  -0.167  16.689  0.00  0.00    +0.000 C 
ENDBRANCH  20  22
ENDBRANCH  19  20
ENDBRANCH  18  19
ENDBRANCH  17  18
ENDBRANCH  15  17
ENDBRANCH   1  15
BRANCH   4  23
ATOM     23  C   UNL     1      37.458  -2.955  17.493  0.00  0.00    +0.000 C 
ATOM     24  C   UNL     1      36.555  -1.808  18.226  0.00  0.00    +0.000 C 
BRANCH  23  25
ATOM     25  C   UNL     1      36.355  -3.491  16.476  0.00  0.00    +0.000 A 
ATOM     26  C   UNL     1      35.101  -2.949  16.674  0.00  0.00    +0.000 A 
ATOM     27  C   UNL     1      34.059  -3.331  15.863  0.00  0.00    +0.000 A 
ATOM     28  C   UNL     1      34.279  -4.251  14.861  0.00  0.00    +0.000 A 
ATOM     29  C   UNL     1      35.551  -4.761  14.706  0.00  0.00    +0.000 A 
ATOM     30  C   UNL     1      36.581  -4.365  15.530  0.00  0.00    +0.000 A 
ENDBRANCH  23  25
ENDBRANCH   4  23
TORSDOF 8
ENDMDL
MODEL 3
REMARK VINA RESULT:      -7.2      3.219      6.034
REMARK  Name = 
REMARK  8 active torsions:
REMARK  status: ('A' for Active; 'I' for Inactive)
REMARK    1  A    between atoms: C_2  and  C_3
REMARK    2  A    between atoms: C_3  and  C_4
REMARK    3  A    between atoms: C_4  and  C_5
REMARK    4  A    between atoms: C_5  and  O_6
REMARK    5  A    between atoms: O_6  and  C_7
REMARK    6  A    between atoms: C_7  and  C_9
REMARK    7  A    between atoms: N_12  and  C_13
REMARK    8  A    between atoms: C_13  and  C_15
REMARK                            x       y       z     vdW  Elec       q    Type
REMARK                         _______ _______ _______ _____ _____    ______ ____
ROOT
ATOM      1  C   UNL     1      39.504  -0.990  14.937  0.00  0.00    +0.000 A 
ATOM      2  C   UNL     1      39.313  -2.069  15.765  0.00  0.00    +0.000 A 
ATOM      3  N   UNL     1      40.147  -3.205  15.938  0.00  0.00    +0.000 NA
ATOM      4  N   UNL     1      38.167  -1.871  16.408  0.00  0.00    +0.000 N 
ATOM      5  C   UNL     1      37.640  -0.754  16.038  0.00  0.00    +0.000 A 
ATOM      6  N   UNL     1      36.501  -0.117  16.394  0.00  0.00    +0.000 NA
ATOM      7  C   UNL     1      36.161   1.072  15.853  0.00  0.00    +0.000 A 
ATOM      8  C   UNL     1      34.998   1.733  16.208  0.00  0.00    +0.000 A 
ATOM      9  C   UNL     1      34.607   2.948  15.685  0.00  0.00    +0.000 A 
ATOM     10  C   UNL     1      35.421   3.552  14.747  0.00  0.00    +0.000 A 
ATOM     11  C   UNL     1      36.591   2.918  14.369  0.00  0.00    +0.000 A 
ATOM     12  C   UNL     1      36.957   1.699  14.912  0.00  0.00    +0.000 A 
ATOM     13  N   UNL     1      38.090   1.067  14.558  0.00  0.00    +0.000 NA
ATOM     14  C   UNL     1      38.432  -0.138  15.108  0.00  0.00    +0.000 A 
ENDROOT
BRANCH   1  15
ATOM     15  C   UNL     1      40.632  -0.770  14.037  0.00  0.00    +0.000 C 
ATOM     16  O   UNL     1      41.542   0.054  14.277  0.00  0.00    +0.000 OA
BRANCH  15  17
ATOM     17  O   UNL     1      40.721  -1.492  12.854  0.00  0.00    +0.000 OA
BRANCH  17  18
ATOM     18  C   UNL     1      41.061  -0.833  11.652  0.00  0.00    +0.000 C 
BRANCH  18  19
ATOM     19  C   UNL     1      39.849  -0.738  10.725  0.00  0.00    +0.000 C 
BRANCH  19  20
ATOM     20  C   UNL     1      39.808   0.688  10.224  0.00  0.00    +0.000 C 
BRANCH  20  22
ATOM     21  C   UNL     1      37.541   0.796  11.109  0.00  0.00    +0.000 C 
ATOM     22  C   UNL     1      38.901   1.497  11.138  0.00  0.00    +0.000 C 
ENDBRANCH  20  22
ENDBRANCH  19  20
ENDBRANCH  18  19
ENDBRANCH  17  18
ENDBRANCH  15  17
ENDBRANCH   1  15
BRANCH   4  23
ATOM     23  C   UNL     1      37.613  -2.894  17.443  0.00  0.00    +0.000 C 
ATOM     24  C   UNL     1      36.690  -1.863  18.310  0.00  0.00    +0.000 C 
BRANCH  23  25
ATOM     25  C   UNL     1      36.482  -3.438  16.464  0.00  0.00    +0.000 A 
ATOM     26  C   UNL     1      35.224  -2.934  16.727  0.00  0.00    +0.000 A 
ATOM     27  C   UNL     1      34.158  -3.326  15.953  0.00  0.00    +0.000 A 
ATOM     28  C   UNL     1      34.357  -4.219  14.922  0.00  0.00    +0.000 A 
ATOM     29  C   UNL     1      35.634  -4.692  14.702  0.00  0.00    +0.000 A 
ATOM     30  C   UNL     1      36.689  -4.286  15.489  0.00  0.00    +0.000 A 
ENDBRANCH  23  25
ENDBRANCH   4  23
TORSDOF 8
ENDMDL
MODEL 4
REMARK VINA RESULT:      -7.1      1.414      4.303
REMARK  Name = 
REMARK  8 active torsions:
REMARK  status: ('A' for Active; 'I' for Inactive)
REMARK    1  A    between atoms: C_2  and  C_3
REMARK    2  A    between atoms: C_3  and  C_4
REMARK    3  A    between atoms: C_4  and  C_5
REMARK    4  A    between atoms: C_5  and  O_6
REMARK    5  A    between atoms: O_6  and  C_7
REMARK    6  A    between atoms: C_7  and  C_9
REMARK    7  A    between atoms: N_12  and  C_13
REMARK    8  A    between atoms: C_13  and  C_15
REMARK                            x       y       z     vdW  Elec       q    Type
REMARK                         _______ _______ _______ _____ _____    ______ ____
ROOT
ATOM      1  C   UNL     1      36.428   0.769  15.911  0.00  0.00    +0.000 A 
ATOM      2  C   UNL     1      36.710   0.536  14.587  0.00  0.00    +0.000 A 
ATOM      3  N   UNL     1      36.381   1.338  13.462  0.00  0.00    +0.000 NA
ATOM      4  N   UNL     1      37.370  -0.615  14.524  0.00  0.00    +0.000 N 
ATOM      5  C   UNL     1      37.515  -1.107  15.707  0.00  0.00    +0.000 A 
ATOM      6  N   UNL     1      38.105  -2.236  16.162  0.00  0.00    +0.000 NA
ATOM      7  C   UNL     1      38.126  -2.537  17.478  0.00  0.00    +0.000 A 
ATOM      8  C   UNL     1      38.726  -3.689  17.956  0.00  0.00    +0.000 A 
ATOM      9  C   UNL     1      38.774  -4.040  19.290  0.00  0.00    +0.000 A 
ATOM     10  C   UNL     1      38.192  -3.195  20.213  0.00  0.00    +0.000 A 
ATOM     11  C   UNL     1      37.583  -2.035  19.769  0.00  0.00    +0.000 A 
ATOM     12  C   UNL     1      37.550  -1.710  18.425  0.00  0.00    +0.000 A 
ATOM     13  N   UNL     1      36.964  -0.587  17.972  0.00  0.00    +0.000 NA
ATOM     14  C   UNL     1      36.944  -0.284  16.638  0.00  0.00    +0.000 A 
ENDROOT
BRANCH   1  15
ATOM     15  C   UNL     1      35.715   1.917  16.463  0.00  0.00    +0.000 C 
ATOM     16  O   UNL     1      34.467   1.971  16.535  0.00  0.00    +0.000 OA
BRANCH  15  17
ATOM     17  O   UNL     1      36.429   3.011  16.934  0.00  0.00    +0.000 OA
BRANCH  17  18
ATOM     18  C   UNL     1      37.029   3.905  16.020  0.00  0.00    +0.000 C 
BRANCH  18  19
ATOM     19  C   UNL     1      38.475   4.198  16.419  0.00  0.00    +0.000 C 
BRANCH  19  20
ATOM     20  C   UNL     1      38.445   4.577  17.882  0.00  0.00    +0.000 C 
BRANCH  20  22
ATOM     21  C   UNL     1      39.107   6.508  19.209  0.00  0.00    +0.000 C 
ATOM     22  C   UNL     1      39.613   5.508  18.167  0.00  0.00    +0.000 C 
ENDBRANCH  20  22
ENDBRANCH  19  20
ENDBRANCH  18  19
ENDBRANCH  17  18
ENDBRANCH  15  17
ENDBRANCH   1  15
BRANCH   4  23
ATOM     23  C   UNL     1      37.862  -1.212  13.172  0.00  0.00    +0.000 C 
ATOM     24  C   UNL     1      37.668   0.122  12.251  0.00  0.00    +0.000 C 
BRANCH  23  25
ATOM     25  C   UNL     1      39.404  -1.018  13.524  0.00  0.00    +0.000 A 
ATOM     26  C   UNL     1      40.130  -2.192  13.518  0.00  0.00    +0.000 A 
ATOM     27  C   UNL     1      41.473  -2.163  13.807  0.00  0.00    +0.000 A 
ATOM     28  C   UNL     1      42.080  -0.960  14.098  0.00  0.00    +0.000 A 
ATOM     29  C   UNL     1      41.309   0.183  14.089  0.00  0.00    +0.000 A 
ATOM     30  C   UNL     1      39.964   0.131  13.797  0.00  0.00    +0.000 A 
ENDBRANCH  23  25
ENDBRANCH   4  23
TORSDOF 8
ENDMDL
MODEL 5
REMARK VINA RESULT:      -7.1      2.667      6.350
REMARK  Name = 
REMARK  8 active torsions:
REMARK  status: ('A' for Active; 'I' for Inactive)
REMARK    1  A    between atoms: C_2  and  C_3
REMARK    2  A    between atoms: C_3  and  C_4
REMARK    3  A    between atoms: C_4  and  C_5
REMARK    4  A    between atoms: C_5  and  O_6
REMARK    5  A    between atoms: O_6  and  C_7
REMARK    6  A    between atoms: C_7  and  C_9
REMARK    7  A    between atoms: N_12  and  C_13
REMARK    8  A    between atoms: C_13  and  C_15
REMARK                            x       y       z     vdW  Elec       q    Type
REMARK                         _______ _______ _______ _____ _____    ______ ____
ROOT
ATOM      1  C   UNL     1      38.453  -0.975  13.692  0.00  0.00    +0.000 A 
ATOM      2  C   UNL     1      37.680   0.113  13.364  0.00  0.00    +0.000 A 
ATOM      3  N   UNL     1      37.552   0.756  12.104  0.00  0.00    +0.000 NA
ATOM      4  N   UNL     1      37.040   0.485  14.468  0.00  0.00    +0.000 N 
ATOM      5  C   UNL     1      37.361  -0.289  15.447  0.00  0.00    +0.000 A 
ATOM      6  N   UNL     1      36.987  -0.324  16.746  0.00  0.00    +0.000 NA
ATOM      7  C   UNL     1      37.474  -1.254  17.594  0.00  0.00    +0.000 A 
ATOM      8  C   UNL     1      37.100  -1.300  18.926  0.00  0.00    +0.000 A 
ATOM      9  C   UNL     1      37.568  -2.230  19.831  0.00  0.00    +0.000 A 
ATOM     10  C   UNL     1      38.467  -3.181  19.390  0.00  0.00    +0.000 A 
ATOM     11  C   UNL     1      38.863  -3.163  18.064  0.00  0.00    +0.000 A 
ATOM     12  C   UNL     1      38.376  -2.218  17.180  0.00  0.00    +0.000 A 
ATOM     13  N   UNL     1      38.747  -2.184  15.888  0.00  0.00    +0.000 NA
ATOM     14  C   UNL     1      38.253  -1.240  15.031  0.00  0.00    +0.000 A 
ENDROOT
BRANCH   1  15
ATOM     15  C   UNL     1      39.330  -1.723  12.797  0.00  0.00    +0.000 C 
ATOM     16  O   UNL     1      39.040  -2.857  12.354  0.00  0.00    +0.000 OA
BRANCH  15  17
ATOM     17  O   UNL     1      40.545  -1.177  12.407  0.00  0.00    +0.000 OA
BRANCH  17  18
ATOM     18  C   UNL     1      41.742  -1.622  13.010  0.00  0.00    +0.000 C 
BRANCH  18  19
ATOM     19  C   UNL     1      42.103  -0.744  14.209  0.00  0.00    +0.000 C 
BRANCH  19  20
ATOM     20  C   UNL     1      43.462  -0.154  13.909  0.00  0.00    +0.000 C 
BRANCH  20  22
ATOM     21  C   UNL     1      44.800  -1.762  15.158  0.00  0.00    +0.000 C 
ATOM     22  C   UNL     1      44.339  -0.303  15.144  0.00  0.00    +0.000 C 
ENDBRANCH  20  22
ENDBRANCH  19  20
ENDBRANCH  18  19
ENDBRANCH  17  18
ENDBRANCH  15  17
ENDBRANCH   1  15
BRANCH   4  23
ATOM     23  C   UNL     1      36.061   1.696  14.486  0.00  0.00    +0.000 C 
ATOM     24  C   UNL     1      35.252   1.314  15.852  0.00  0.00    +0.000 C 
BRANCH  23  25
ATOM     25  C   UNL     1      37.128   2.689  15.128  0.00  0.00    +0.000 A 
ATOM     26  C   UNL     1      36.776   3.155  16.379  0.00  0.00    +0.000 A 
ATOM     27  C   UNL     1      37.612   4.022  17.042  0.00  0.00    +0.000 A 
ATOM     28  C   UNL     1      38.793   4.415  16.450  0.00  0.00    +0.000 A 
ATOM     29  C   UNL     1      39.096   3.919  15.199  0.00  0.00    +0.000 A 
ATOM     30  C   UNL     1      38.245   3.051  14.552  0.00  0.00    +0.000 A 
ENDBRANCH  23  25
ENDBRANCH   4  23
TORSDOF 8
ENDMDL
MODEL 6
REMARK VINA RESULT:      -7.0      2.145      3.025
REMARK  Name = 
REMARK  8 active torsions:
REMARK  status: ('A' for Active; 'I' for Inactive)
REMARK    1  A    between atoms: C_2  and  C_3
REMARK    2  A    between atoms: C_3  and  C_4
REMARK    3  A    between atoms: C_4  and  C_5
REMARK    4  A    between atoms: C_5  and  O_6
REMARK    5  A    between atoms: O_6  and  C_7
REMARK    6  A    between atoms: C_7  and  C_9
REMARK    7  A    between atoms: N_12  and  C_13
REMARK    8  A    between atoms: C_13  and  C_15
REMARK                            x       y       z     vdW  Elec       q    Type
REMARK                         _______ _______ _______ _____ _____    ______ ____
ROOT
ATOM      1  C   UNL     1      37.238   1.391  15.617  0.00  0.00    +0.000 A 
ATOM      2  C   UNL     1      36.254   0.506  15.990  0.00  0.00    +0.000 A 
ATOM      3  N   UNL     1      34.960   0.792  16.498  0.00  0.00    +0.000 NA
ATOM      4  N   UNL     1      36.732  -0.717  15.789  0.00  0.00    +0.000 N 
ATOM      5  C   UNL     1      37.932  -0.652  15.323  0.00  0.00    +0.000 A 
ATOM      6  N   UNL     1      38.826  -1.601  14.963  0.00  0.00    +0.000 NA
ATOM      7  C   UNL     1      40.048  -1.274  14.491  0.00  0.00    +0.000 A 
ATOM      8  C   UNL     1      40.972  -2.236  14.120  0.00  0.00    +0.000 A 
ATOM      9  C   UNL     1      42.231  -1.952  13.633  0.00  0.00    +0.000 A 
ATOM     10  C   UNL     1      42.603  -0.628  13.503  0.00  0.00    +0.000 A 
ATOM     11  C   UNL     1      41.704   0.358  13.866  0.00  0.00    +0.000 A 
ATOM     12  C   UNL     1      40.447   0.043  14.351  0.00  0.00    +0.000 A 
ATOM     13  N   UNL     1      39.558   0.987  14.709  0.00  0.00    +0.000 NA
ATOM     14  C   UNL     1      38.321   0.652  15.186  0.00  0.00    +0.000 A 
ENDROOT
BRANCH   1  15
ATOM     15  C   UNL     1      37.164   2.848  15.662  0.00  0.00    +0.000 C 
ATOM     16  O   UNL     1      37.305   3.502  16.719  0.00  0.00    +0.000 OA
BRANCH  15  17
ATOM     17  O   UNL     1      36.926   3.563  14.496  0.00  0.00    +0.000 OA
BRANCH  17  18
ATOM     18  C   UNL     1      35.620   4.015  14.202  0.00  0.00    +0.000 C 
BRANCH  18  19
ATOM     19  C   UNL     1      35.565   5.542  14.194  0.00  0.00    +0.000 C 
BRANCH  19  20
ATOM     20  C   UNL     1      35.358   5.952  12.753  0.00  0.00    +0.000 C 
BRANCH  20  22
ATOM     21  C   UNL     1      33.671   7.054  14.122  0.00  0.00    +0.000 C 
ATOM     22  C   UNL     1      34.162   6.888  12.682  0.00  0.00    +0.000 C 
ENDBRANCH  20  22
ENDBRANCH  19  20
ENDBRANCH  18  19
ENDBRANCH  17  18
ENDBRANCH  15  17
ENDBRANCH   1  15
BRANCH   4  23
ATOM     23  C   UNL     1      35.894  -1.992  16.100  0.00  0.00    +0.000 C 
ATOM     24  C   UNL     1      36.415  -2.916  14.858  0.00  0.00    +0.000 C 
BRANCH  23  25
ATOM     25  C   UNL     1      36.906  -2.519  17.211  0.00  0.00    +0.000 A 
ATOM     26  C   UNL     1      37.488  -3.733  16.907  0.00  0.00    +0.000 A 
ATOM     27  C   UNL     1      38.380  -4.299  17.786  0.00  0.00    +0.000 A 
ATOM     28  C   UNL     1      38.684  -3.647  18.961  0.00  0.00    +0.000 A 
ATOM     29  C   UNL     1      38.075  -2.436  19.216  0.00  0.00    +0.000 A 
ATOM     30  C   UNL     1      37.183  -1.886  18.322  0.00  0.00    +0.000 A 
ENDBRANCH  23  25
ENDBRANCH   4  23
TORSDOF 8
ENDMDL
MODEL 7
REMARK VINA RESULT:      -7.0      3.271      6.939
REMARK  Name = 
REMARK  8 active torsions:
REMARK  status: ('A' for Active; 'I' for Inactive)
REMARK    1  A    between atoms: C_2  and  C_3
REMARK    2  A    between atoms: C_3  and  C_4
REMARK    3  A    between atoms: C_4  and  C_5
REMARK    4  A    between atoms: C_5  and  O_6
REMARK    5  A    between atoms: O_6  and  C_7
REMARK    6  A    between atoms: C_7  and  C_9
REMARK    7  A    between atoms: N_12  and  C_13
REMARK    8  A    between atoms: C_13  and  C_15
REMARK                            x       y       z     vdW  Elec       q    Type
REMARK                         _______ _______ _______ _____ _____    ______ ____
ROOT
ATOM      1  C   UNL     1      39.559  -1.098  14.969  0.00  0.00    +0.000 A 
ATOM      2  C   UNL     1      39.318  -2.151  15.818  0.00  0.00    +0.000 A 
ATOM      3  N   UNL     1      40.122  -3.298  16.050  0.00  0.00    +0.000 NA
ATOM      4  N   UNL     1      38.155  -1.913  16.416  0.00  0.00    +0.000 N 
ATOM      5  C   UNL     1      37.665  -0.796  15.999  0.00  0.00    +0.000 A 
ATOM      6  N   UNL     1      36.527  -0.128  16.299  0.00  0.00    +0.000 NA
ATOM      7  C   UNL     1      36.230   1.052  15.715  0.00  0.00    +0.000 A 
ATOM      8  C   UNL     1      35.069   1.745  16.012  0.00  0.00    +0.000 A 
ATOM      9  C   UNL     1      34.721   2.953  15.444  0.00  0.00    +0.000 A 
ATOM     10  C   UNL     1      35.579   3.515  14.519  0.00  0.00    +0.000 A 
ATOM     11  C   UNL     1      36.747   2.848  14.198  0.00  0.00    +0.000 A 
ATOM     12  C   UNL     1      37.069   1.638  14.785  0.00  0.00    +0.000 A 
ATOM     13  N   UNL     1      38.201   0.974  14.487  0.00  0.00    +0.000 NA
ATOM     14  C   UNL     1      38.499  -0.222  15.080  0.00  0.00    +0.000 A 
ENDROOT
BRANCH   1  15
ATOM     15  C   UNL     1      40.721  -0.925  14.102  0.00  0.00    +0.000 C 
ATOM     16  O   UNL     1      41.624  -0.091  14.335  0.00  0.00    +0.000 OA
BRANCH  15  17
ATOM     17  O   UNL     1      40.853  -1.707  12.962  0.00  0.00    +0.000 OA
BRANCH  17  18
ATOM     18  C   UNL     1      42.111  -1.821  12.330  0.00  0.00    +0.000 C 
BRANCH  18  19
ATOM     19  C   UNL     1      42.586  -3.274  12.330  0.00  0.00    +0.000 C 
BRANCH  19  20
ATOM     20  C   UNL     1      43.026  -3.578  10.916  0.00  0.00    +0.000 C 
BRANCH  20  22
ATOM     21  C   UNL     1      42.191  -5.493   9.665  0.00  0.00    +0.000 C 
ATOM     22  C   UNL     1      41.825  -4.082  10.132  0.00  0.00    +0.000 C 
ENDBRANCH  20  22
ENDBRANCH  19  20
ENDBRANCH  18  19
ENDBRANCH  17  18
ENDBRANCH  15  17
ENDBRANCH   1  15
BRANCH   4  23
ATOM     23  C   UNL     1      37.547  -2.896  17.459  0.00  0.00    +0.000 C 
ATOM     24  C   UNL     1      36.610  -1.826  18.262  0.00  0.00    +0.000 C 
BRANCH  23  25
ATOM     25  C   UNL     1      36.442  -3.450  16.454  0.00  0.00    +0.000 A 
ATOM     26  C   UNL     1      35.175  -2.952  16.685  0.00  0.00    +0.000 A 
ATOM     27  C   UNL     1      34.130  -3.353  15.888  0.00  0.00    +0.000 A 
ATOM     28  C   UNL     1      34.360  -4.247  14.864  0.00  0.00    +0.000 A 
ATOM     29  C   UNL     1      35.644  -4.713  14.676  0.00  0.00    +0.000 A 
ATOM     30  C   UNL     1      36.677  -4.299  15.487  0.00  0.00    +0.000 A 
ENDBRANCH  23  25
ENDBRANCH   4  23
TORSDOF 8
ENDMDL
MODEL 8
REMARK VINA RESULT:      -6.9      1.186      2.004
REMARK  Name = 
REMARK  8 active torsions:
REMARK  status: ('A' for Active; 'I' for Inactive)
REMARK    1  A    between atoms: C_2  and  C_3
REMARK    2  A    between atoms: C_3  and  C_4
REMARK    3  A    between atoms: C_4  and  C_5
REMARK    4  A    between atoms: C_5  and  O_6
REMARK    5  A    between atoms: O_6  and  C_7
REMARK    6  A    between atoms: C_7  and  C_9
REMARK    7  A    between atoms: N_12  and  C_13
REMARK    8  A    between atoms: C_13  and  C_15
REMARK                            x       y       z     vdW  Elec       q    Type
REMARK                         _______ _______ _______ _____ _____    ______ ____
ROOT
ATOM      1  C   UNL     1      36.583   1.334  15.750  0.00  0.00    +0.000 A 
ATOM      2  C   UNL     1      35.772   0.648  16.620  0.00  0.00    +0.000 A 
ATOM      3  N   UNL     1      34.528   1.055  17.173  0.00  0.00    +0.000 NA
ATOM      4  N   UNL     1      36.365  -0.513  16.875  0.00  0.00    +0.000 N 
ATOM      5  C   UNL     1      37.477  -0.592  16.229  0.00  0.00    +0.000 A 
ATOM      6  N   UNL     1      38.426  -1.554  16.156  0.00  0.00    +0.000 NA
ATOM      7  C   UNL     1      39.528  -1.399  15.391  0.00  0.00    +0.000 A 
ATOM      8  C   UNL     1      40.506  -2.375  15.308  0.00  0.00    +0.000 A 
ATOM      9  C   UNL     1      41.647  -2.263  14.541  0.00  0.00    +0.000 A 
ATOM     10  C   UNL     1      41.835  -1.110  13.806  0.00  0.00    +0.000 A 
ATOM     11  C   UNL     1      40.877  -0.114  13.867  0.00  0.00    +0.000 A 
ATOM     12  C   UNL     1      39.742  -0.254  14.645  0.00  0.00    +0.000 A 
ATOM     13  N   UNL     1      38.798   0.702  14.717  0.00  0.00    +0.000 NA
ATOM     14  C   UNL     1      37.683   0.542  15.493  0.00  0.00    +0.000 A 
ENDROOT
BRANCH   1  15
ATOM     15  C   UNL     1      36.339   2.660  15.190  0.00  0.00    +0.000 C 
ATOM     16  O   UNL     1      35.877   2.837  14.041  0.00  0.00    +0.000 OA
BRANCH  15  17
ATOM     17  O   UNL     1      36.625   3.790  15.944  0.00  0.00    +0.000 OA
BRANCH  17  18
ATOM     18  C   UNL     1      37.967   4.193  16.126  0.00  0.00    +0.000 C 
BRANCH  18  19
ATOM     19  C   UNL     1      38.273   4.405  17.608  0.00  0.00    +0.000 C 
BRANCH  19  20
ATOM     20  C   UNL     1      39.341   5.473  17.673  0.00  0.00    +0.000 C 
BRANCH  20  22
ATOM     21  C   UNL     1      38.831   7.265  19.241  0.00  0.00    +0.000 C 
ATOM     22  C   UNL     1      39.513   5.900  19.123  0.00  0.00    +0.000 C 
ENDBRANCH  20  22
ENDBRANCH  19  20
ENDBRANCH  18  19
ENDBRANCH  17  18
ENDBRANCH  15  17
ENDBRANCH   1  15
BRANCH   4  23
ATOM     23  C   UNL     1      35.735  -1.570  17.830  0.00  0.00    +0.000 C 
ATOM     24  C   UNL     1      34.164  -1.246  17.524  0.00  0.00    +0.000 C 
BRANCH  23  25
ATOM     25  C   UNL     1      35.920  -2.771  16.800  0.00  0.00    +0.000 A 
ATOM     26  C   UNL     1      35.105  -2.686  15.690  0.00  0.00    +0.000 A 
ATOM     27  C   UNL     1      35.167  -3.662  14.724  0.00  0.00    +0.000 A 
ATOM     28  C   UNL     1      36.043  -4.715  14.876  0.00  0.00    +0.000 A 
ATOM     29  C   UNL     1      36.835  -4.752  16.005  0.00  0.00    +0.000 A 
ATOM     30  C   UNL     1      36.757  -3.763  16.960  0.00  0.00    +0.000 A 
ENDBRANCH  23  25
ENDBRANCH   4  23
TORSDOF 8
ENDMDL
MODEL 9
REMARK VINA RESULT:      -6.8      2.849      5.991
REMARK  Name = 
REMARK  8 active torsions:
REMARK  status: ('A' for Active; 'I' for Inactive)
REMARK    1  A    between atoms: C_2  and  C_3
REMARK    2  A    between atoms: C_3  and  C_4
REMARK    3  A    between atoms: C_4  and  C_5
REMARK    4  A    between atoms: C_5  and  O_6
REMARK    5  A    between atoms: O_6  and  C_7
REMARK    6  A    between atoms: C_7  and  C_9
REMARK    7  A    between atoms: N_12  and  C_13
REMARK    8  A    between atoms: C_13  and  C_15
REMARK                            x       y       z     vdW  Elec       q    Type
REMARK                         _______ _______ _______ _____ _____    ______ ____
ROOT
ATOM      1  C   UNL     1      39.757   1.395  14.360  0.00  0.00    +0.000 A 
ATOM      2  C   UNL     1      40.904   1.282  13.612  0.00  0.00    +0.000 A 
ATOM      3  N   UNL     1      41.551   2.280  12.836  0.00  0.00    +0.000 NA
ATOM      4  N   UNL     1      41.331   0.030  13.738  0.00  0.00    +0.000 N 
ATOM      5  C   UNL     1      40.535  -0.634  14.504  0.00  0.00    +0.000 A 
ATOM      6  N   UNL     1      40.537  -1.917  14.932  0.00  0.00    +0.000 NA
ATOM      7  C   UNL     1      39.571  -2.387  15.750  0.00  0.00    +0.000 A 
ATOM      8  C   UNL     1      39.561  -3.698  16.195  0.00  0.00    +0.000 A 
ATOM      9  C   UNL     1      38.598  -4.224  17.030  0.00  0.00    +0.000 A 
ATOM     10  C   UNL     1      37.575  -3.400  17.456  0.00  0.00    +0.000 A 
ATOM     11  C   UNL     1      37.555  -2.084  17.029  0.00  0.00    +0.000 A 
ATOM     12  C   UNL     1      38.535  -1.584  16.191  0.00  0.00    +0.000 A 
ATOM     13  N   UNL     1      38.534  -0.308  15.766  0.00  0.00    +0.000 NA
ATOM     14  C   UNL     1      39.513   0.165  14.937  0.00  0.00    +0.000 A 
ENDROOT
BRANCH   1  15
ATOM     15  C   UNL     1      38.935   2.590  14.523  0.00  0.00    +0.000 C 
ATOM     16  O   UNL     1      39.011   3.334  15.527  0.00  0.00    +0.000 OA
BRANCH  15  17
ATOM     17  O   UNL     1      38.021   2.939  13.539  0.00  0.00    +0.000 OA
BRANCH  17  18
ATOM     18  C   UNL     1      36.813   2.217  13.413  0.00  0.00    +0.000 C 
BRANCH  18  19
ATOM     19  C   UNL     1      35.834   2.603  14.522  0.00  0.00    +0.000 C 
BRANCH  19  20
ATOM     20  C   UNL     1      35.495   1.325  15.254  0.00  0.00    +0.000 C 
BRANCH  20  22
ATOM     21  C   UNL     1      35.554   0.878  17.648  0.00  0.00    +0.000 C 
ATOM     22  C   UNL     1      34.823   1.683  16.571  0.00  0.00    +0.000 C 
ENDBRANCH  20  22
ENDBRANCH  19  20
ENDBRANCH  18  19
ENDBRANCH  17  18
ENDBRANCH  15  17
ENDBRANCH   1  15
BRANCH   4  23
ATOM     23  C   UNL     1      42.620  -0.477  13.026  0.00  0.00    +0.000 C 
ATOM     24  C   UNL     1      42.984  -1.693  14.053  0.00  0.00    +0.000 C 
BRANCH  23  25
ATOM     25  C   UNL     1      41.819  -1.329  11.945  0.00  0.00    +0.000 A 
ATOM     26  C   UNL     1      42.118  -2.677  11.962  0.00  0.00    +0.000 A 
ATOM     27  C   UNL     1      41.494  -3.523  11.076  0.00  0.00    +0.000 A 
ATOM     28  C   UNL     1      40.576  -3.016  10.182  0.00  0.00    +0.000 A 
ATOM     29  C   UNL     1      40.314  -1.663  10.208  0.00  0.00    +0.000 A 
ATOM     30  C   UNL     1      40.950  -0.832  11.104  0.00  0.00    +0.000 A 
ENDBRANCH  23  25
ENDBRANCH   4  23
TORSDOF 8
ENDMDL
MODEL 10
REMARK VINA RESULT:      -6.8      1.871      5.193
REMARK  Name = 
REMARK  8 active torsions:
REMARK  status: ('A' for Active; 'I' for Inactive)
REMARK    1  A    between atoms: C_2  and  C_3
REMARK    2  A    between atoms: C_3  and  C_4
REMARK    3  A    between atoms: C_4  and  C_5
REMARK    4  A    between atoms: C_5  and  O_6
REMARK    5  A    between atoms: O_6  and  C_7
REMARK    6  A    between atoms: C_7  and  C_9
REMARK    7  A    between atoms: N_12  and  C_13
REMARK    8  A    between atoms: C_13  and  C_15
REMARK                            x       y       z     vdW  Elec       q    Type
REMARK                         _______ _______ _______ _____ _____    ______ ____
ROOT
ATOM      1  C   UNL     1      39.496   1.645  14.434  0.00  0.00    +0.000 A 
ATOM      2  C   UNL     1      40.642   1.607  13.678  0.00  0.00    +0.000 A 
ATOM      3  N   UNL     1      41.240   2.657  12.930  0.00  0.00    +0.000 NA
ATOM      4  N   UNL     1      41.126   0.372  13.761  0.00  0.00    +0.000 N 
ATOM      5  C   UNL     1      40.365  -0.350  14.510  0.00  0.00    +0.000 A 
ATOM      6  N   UNL     1      40.426  -1.645  14.897  0.00  0.00    +0.000 NA
ATOM      7  C   UNL     1      39.487  -2.183  15.705  0.00  0.00    +0.000 A 
ATOM      8  C   UNL     1      39.537  -3.506  16.108  0.00  0.00    +0.000 A 
ATOM      9  C   UNL     1      38.604  -4.101  16.930  0.00  0.00    +0.000 A 
ATOM     10  C   UNL     1      37.548  -3.336  17.387  0.00  0.00    +0.000 A 
ATOM     11  C   UNL     1      37.467  -2.010  17.003  0.00  0.00    +0.000 A 
ATOM     12  C   UNL     1      38.419  -1.441  16.176  0.00  0.00    +0.000 A 
ATOM     13  N   UNL     1      38.358  -0.154  15.792  0.00  0.00    +0.000 NA
ATOM     14  C   UNL     1      39.311   0.389  14.974  0.00  0.00    +0.000 A 
ENDROOT
BRANCH   1  15
ATOM     15  C   UNL     1      38.624   2.797  14.640  0.00  0.00    +0.000 C 
ATOM     16  O   UNL     1      38.063   3.401  13.698  0.00  0.00    +0.000 OA
BRANCH  15  17
ATOM     17  O   UNL     1      38.391   3.265  15.926  0.00  0.00    +0.000 OA
BRANCH  17  18
ATOM     18  C   UNL     1      38.784   4.575  16.280  0.00  0.00    +0.000 C 
BRANCH  18  19
ATOM     19  C   UNL     1      38.698   4.776  17.793  0.00  0.00    +0.000 C 
BRANCH  19  20
ATOM     20  C   UNL     1      39.259   6.152  18.071  0.00  0.00    +0.000 C 
BRANCH  20  22
ATOM     21  C   UNL     1      41.302   6.444  19.366  0.00  0.00    +0.000 C 
ATOM     22  C   UNL     1      39.800   6.178  19.493  0.00  0.00    +0.000 C 
ENDBRANCH  20  22
ENDBRANCH  19  20
ENDBRANCH  18  19
ENDBRANCH  17  18
ENDBRANCH  15  17
ENDBRANCH   1  15
BRANCH   4  23
ATOM     23  C   UNL     1      42.431  -0.054  13.028  0.00  0.00    +0.000 C 
ATOM     24  C   UNL     1      42.937  -1.179  14.098  0.00  0.00    +0.000 C 
BRANCH  23  25
ATOM     25  C   UNL     1      41.675  -1.030  12.020  0.00  0.00    +0.000 A 
ATOM     26  C   UNL     1      42.017  -2.359  12.166  0.00  0.00    +0.000 A 
ATOM     27  C   UNL     1      41.435  -3.304  11.355  0.00  0.00    +0.000 A 
ATOM     28  C   UNL     1      40.516  -2.913  10.405  0.00  0.00    +0.000 A 
ATOM     29  C   UNL     1      40.210  -1.572  10.302  0.00  0.00    +0.000 A 
ATOM     30  C   UNL     1      40.805  -0.641  11.124  0.00  0.00    +0.000 A 
ENDBRANCH  23  25
ENDBRANCH   4  23
TORSDOF 8
ENDMDL
