MODEL 1
REMARK VINA RESULT:      -9.0      0.000      0.000
REMARK  Name = 
REMARK  6 active torsions:
REMARK  status: ('A' for Active; 'I' for Inactive)
REMARK    1  A    between atoms: C_13  and  N_14
REMARK    2  A    between atoms: N_14  and  C_15
REMARK    3  A    between atoms: C_15  and  C_16
REMARK    4  A    between atoms: C_16  and  C_17
REMARK    5  A    between atoms: C_24  and  N_25
REMARK    6  A    between atoms: N_25  and  C_26
REMARK                            x       y       z     vdW  Elec       q    Type
REMARK                         _______ _______ _______ _____ _____    ______ ____
ROOT
ATOM      1  O   UNL     1      38.348  -1.803  13.209  0.00  0.00    +0.000 OA
ATOM      2  C   UNL     1      37.545  -1.429  14.077  0.00  0.00    +0.000 C 
ATOM      3  C   UNL     1      36.526  -2.311  14.691  0.00  0.00    +0.000 A 
ATOM      4  C   UNL     1      36.438  -3.629  14.299  0.00  0.00    +0.000 A 
ATOM      5  C   UNL     1      35.515  -4.507  14.827  0.00  0.00    +0.000 A 
ATOM      6  C   UNL     1      34.635  -4.051  15.794  0.00  0.00    +0.000 A 
ATOM      7  C   UNL     1      34.706  -2.714  16.209  0.00  0.00    +0.000 A 
ATOM      8  C   UNL     1      35.642  -1.876  15.655  0.00  0.00    +0.000 A 
ATOM      9  C   UNL     1      35.735  -0.466  16.076  0.00  0.00    +0.000 A 
ATOM     10  O   UNL     1      35.097   0.292  16.931  0.00  0.00    +0.000 OA
ATOM     11  N   UNL     1      35.594   1.524  16.920  0.00  0.00    +0.000 NA
ATOM     12  C   UNL     1      36.598   1.603  16.030  0.00  0.00    +0.000 A 
ATOM     13  C   UNL     1      37.494   2.532  15.545  0.00  0.00    +0.000 A 
ATOM     14  C   UNL     1      38.426   2.158  14.559  0.00  0.00    +0.000 A 
ATOM     15  C   UNL     1      38.491   0.883  14.043  0.00  0.00    +0.000 A 
ATOM     16  C   UNL     1      37.583  -0.045  14.539  0.00  0.00    +0.000 A 
ATOM     17  C   UNL     1      36.681   0.335  15.500  0.00  0.00    +0.000 A 
ENDROOT
BRANCH  13  18
ATOM     18  N   UNL     1      37.431   3.833  16.069  0.00  0.00    +0.000 NA
BRANCH  18  19
ATOM     19  C   UNL     1      38.661   4.474  16.498  0.00  0.00    +0.000 C 
BRANCH  19  20
ATOM     20  C   UNL     1      38.501   4.858  17.952  0.00  0.00    +0.000 C 
BRANCH  20  21
ATOM     21  C   UNL     1      39.651   5.763  18.300  0.00  0.00    +0.000 C 
ATOM     22  C   UNL     1      39.777   6.169  19.550  0.00  0.00    +0.000 C 
ATOM     23  C   UNL     1      40.935   7.076  19.883  0.00  0.00    +0.000 C 
ATOM     24  C   UNL     1      42.130   6.514  19.140  0.00  0.00    +0.000 C 
ATOM     25  C   UNL     1      41.942   6.506  17.657  0.00  0.00    +0.000 C 
ATOM     26  C   UNL     1      40.569   6.136  17.207  0.00  0.00    +0.000 C 
ENDBRANCH  20  21
ENDBRANCH  19  20
ENDBRANCH  18  19
ENDBRANCH  13  18
BRANCH  15  27
ATOM     27  N   UNL     1      39.431   0.518  13.053  0.00  0.00    +0.000 NA
BRANCH  27  28
ATOM     28  C   UNL     1      40.824   0.485  13.262  0.00  0.00    +0.000 A 
ATOM     29  C   UNL     1      41.449  -0.440  14.068  0.00  0.00    +0.000 A 
ATOM     30  C   UNL     1      42.811  -0.471  14.273  0.00  0.00    +0.000 A 
ATOM     31  C   UNL     1      43.566   0.494  13.615  0.00  0.00    +0.000 A 
ATOM     32  C   UNL     1      42.968   1.429  12.803  0.00  0.00    +0.000 A 
ATOM     33  C   UNL     1      41.609   1.423  12.629  0.00  0.00    +0.000 A 
ENDBRANCH  27  28
ENDBRANCH  15  27
TORSDOF 6
ENDMDL
MODEL 2
REMARK VINA RESULT:      -8.6      2.304      7.725
REMARK  Name = 
REMARK  6 active torsions:
REMARK  status: ('A' for Active; 'I' for Inactive)
REMARK    1  A    between atoms: C_13  and  N_14
REMARK    2  A    between atoms: N_14  and  C_15
REMARK    3  A    between atoms: C_15  and  C_16
REMARK    4  A    between atoms: C_16  and  C_17
REMARK    5  A    between atoms: C_24  and  N_25
REMARK    6  A    between atoms: N_25  and  C_26
REMARK                            x       y       z     vdW  Elec       q    Type
REMARK                         _______ _______ _______ _____ _____    ______ ____
ROOT
ATOM      1  O   UNL     1      37.011   3.136  17.680  0.00  0.00    +0.000 OA
ATOM      2  C   UNL     1      37.795   3.629  16.855  0.00  0.00    +0.000 C 
ATOM      3  C   UNL     1      38.807   4.656  17.194  0.00  0.00    +0.000 A 
ATOM      4  C   UNL     1      38.911   5.111  18.490  0.00  0.00    +0.000 A 
ATOM      5  C   UNL     1      39.830   6.064  18.876  0.00  0.00    +0.000 A 
ATOM      6  C   UNL     1      40.688   6.592  17.926  0.00  0.00    +0.000 A 
ATOM      7  C   UNL     1      40.600   6.143  16.600  0.00  0.00    +0.000 A 
ATOM      8  C   UNL     1      39.669   5.193  16.262  0.00  0.00    +0.000 A 
ATOM      9  C   UNL     1      39.559   4.706  14.874  0.00  0.00    +0.000 A 
ATOM     10  O   UNL     1      40.175   4.962  13.748  0.00  0.00    +0.000 OA
ATOM     11  N   UNL     1      39.671   4.225  12.765  0.00  0.00    +0.000 NA
ATOM     12  C   UNL     1      38.683   3.446  13.239  0.00  0.00    +0.000 A 
ATOM     13  C   UNL     1      37.790   2.498  12.785  0.00  0.00    +0.000 A 
ATOM     14  C   UNL     1      36.880   1.908  13.681  0.00  0.00    +0.000 A 
ATOM     15  C   UNL     1      36.834   2.235  15.018  0.00  0.00    +0.000 A 
ATOM     16  C   UNL     1      37.738   3.192  15.465  0.00  0.00    +0.000 A 
ATOM     17  C   UNL     1      38.620   3.758  14.579  0.00  0.00    +0.000 A 
ENDROOT
BRANCH  13  18
ATOM     18  N   UNL     1      37.835   2.162  11.423  0.00  0.00    +0.000 NA
BRANCH  18  19
ATOM     19  C   UNL     1      38.154   0.796  11.050  0.00  0.00    +0.000 C 
BRANCH  19  20
ATOM     20  C   UNL     1      39.575   0.516  11.484  0.00  0.00    +0.000 C 
BRANCH  20  21
ATOM     21  C   UNL     1      39.510  -0.505  12.588  0.00  0.00    +0.000 C 
ATOM     22  C   UNL     1      38.978  -1.683  12.324  0.00  0.00    +0.000 C 
ATOM     23  C   UNL     1      38.919  -2.695  13.440  0.00  0.00    +0.000 C 
ATOM     24  C   UNL     1      40.251  -2.603  14.156  0.00  0.00    +0.000 C 
ATOM     25  C   UNL     1      40.502  -1.254  14.748  0.00  0.00    +0.000 C 
ATOM     26  C   UNL     1      40.052  -0.111  13.901  0.00  0.00    +0.000 C 
ENDBRANCH  20  21
ENDBRANCH  19  20
ENDBRANCH  18  19
ENDBRANCH  13  18
BRANCH  15  27
ATOM     27  N   UNL     1      35.916   1.636  15.909  0.00  0.00    +0.000 NA
BRANCH  27  28
ATOM     28  C   UNL     1      35.958   0.281  16.293  0.00  0.00    +0.000 A 
ATOM     29  C   UNL     1      37.081  -0.507  16.172  0.00  0.00    +0.000 A 
ATOM     30  C   UNL     1      37.122  -1.832  16.547  0.00  0.00    +0.000 A 
ATOM     31  C   UNL     1      35.952  -2.372  17.071  0.00  0.00    +0.000 A 
ATOM     32  C   UNL     1      34.817  -1.608  17.203  0.00  0.00    +0.000 A 
ATOM     33  C   UNL     1      34.821  -0.293  16.817  0.00  0.00    +0.000 A 
ENDBRANCH  27  28
ENDBRANCH  15  27
TORSDOF 6
ENDMDL
MODEL 3
REMARK VINA RESULT:      -8.6      3.996      8.015
REMARK  Name = 
REMARK  6 active torsions:
REMARK  status: ('A' for Active; 'I' for Inactive)
REMARK    1  A    between atoms: C_13  and  N_14
REMARK    2  A    between atoms: N_14  and  C_15
REMARK    3  A    between atoms: C_15  and  C_16
REMARK    4  A    between atoms: C_16  and  C_17
REMARK    5  A    between atoms: C_24  and  N_25
REMARK    6  A    between atoms: N_25  and  C_26
REMARK                            x       y       z     vdW  Elec       q    Type
REMARK                         _______ _______ _______ _____ _____    ______ ____
ROOT
ATOM      1  O   UNL     1      34.095   3.685  15.379  0.00  0.00    +0.000 OA
ATOM      2  C   UNL     1      34.952   3.993  14.536  0.00  0.00    +0.000 C 
ATOM      3  C   UNL     1      35.018   5.319  13.878  0.00  0.00    +0.000 A 
ATOM      4  C   UNL     1      34.092   6.287  14.197  0.00  0.00    +0.000 A 
ATOM      5  C   UNL     1      34.094   7.542  13.625  0.00  0.00    +0.000 A 
ATOM      6  C   UNL     1      35.066   7.849  12.687  0.00  0.00    +0.000 A 
ATOM      7  C   UNL     1      36.019   6.878  12.347  0.00  0.00    +0.000 A 
ATOM      8  C   UNL     1      35.977   5.643  12.943  0.00  0.00    +0.000 A 
ATOM      9  C   UNL     1      36.970   4.607  12.601  0.00  0.00    +0.000 A 
ATOM     10  O   UNL     1      37.996   4.535  11.791  0.00  0.00    +0.000 OA
ATOM     11  N   UNL     1      38.565   3.337  11.869  0.00  0.00    +0.000 NA
ATOM     12  C   UNL     1      37.905   2.575  12.758  0.00  0.00    +0.000 A 
ATOM     13  C   UNL     1      37.961   1.304  13.290  0.00  0.00    +0.000 A 
ATOM     14  C   UNL     1      37.013   0.905  14.250  0.00  0.00    +0.000 A 
ATOM     15  C   UNL     1      36.010   1.736  14.696  0.00  0.00    +0.000 A 
ATOM     16  C   UNL     1      35.962   3.015  14.152  0.00  0.00    +0.000 A 
ATOM     17  C   UNL     1      36.894   3.389  13.217  0.00  0.00    +0.000 A 
ENDROOT
BRANCH  13  18
ATOM     18  N   UNL     1      38.983   0.454  12.839  0.00  0.00    +0.000 NA
BRANCH  18  19
ATOM     19  C   UNL     1      38.793  -0.982  12.939  0.00  0.00    +0.000 C 
BRANCH  19  20
ATOM     20  C   UNL     1      39.710  -1.496  14.026  0.00  0.00    +0.000 C 
BRANCH  20  21
ATOM     21  C   UNL     1      38.855  -2.257  15.003  0.00  0.00    +0.000 C 
ATOM     22  C   UNL     1      37.997  -3.142  14.532  0.00  0.00    +0.000 C 
ATOM     23  C   UNL     1      37.147  -3.896  15.523  0.00  0.00    +0.000 C 
ATOM     24  C   UNL     1      38.071  -4.264  16.667  0.00  0.00    +0.000 C 
ATOM     25  C   UNL     1      38.654  -3.070  17.351  0.00  0.00    +0.000 C 
ATOM     26  C   UNL     1      39.041  -1.958  16.435  0.00  0.00    +0.000 C 
ENDBRANCH  20  21
ENDBRANCH  19  20
ENDBRANCH  18  19
ENDBRANCH  13  18
BRANCH  15  27
ATOM     27  N   UNL     1      35.063   1.325  15.660  0.00  0.00    +0.000 NA
BRANCH  27  28
ATOM     28  C   UNL     1      35.366   0.501  16.762  0.00  0.00    +0.000 A 
ATOM     29  C   UNL     1      36.007   0.952  17.894  0.00  0.00    +0.000 A 
ATOM     30  C   UNL     1      36.303   0.145  18.970  0.00  0.00    +0.000 A 
ATOM     31  C   UNL     1      35.921  -1.189  18.878  0.00  0.00    +0.000 A 
ATOM     32  C   UNL     1      35.279  -1.666  17.760  0.00  0.00    +0.000 A 
ATOM     33  C   UNL     1      35.004  -0.827  16.712  0.00  0.00    +0.000 A 
ENDBRANCH  27  28
ENDBRANCH  15  27
TORSDOF 6
ENDMDL
MODEL 4
REMARK VINA RESULT:      -8.4      3.971      6.975
REMARK  Name = 
REMARK  6 active torsions:
REMARK  status: ('A' for Active; 'I' for Inactive)
REMARK    1  A    between atoms: C_13  and  N_14
REMARK    2  A    between atoms: N_14  and  C_15
REMARK    3  A    between atoms: C_15  and  C_16
REMARK    4  A    between atoms: C_16  and  C_17
REMARK    5  A    between atoms: C_24  and  N_25
REMARK    6  A    between atoms: N_25  and  C_26
REMARK                            x       y       z     vdW  Elec       q    Type
REMARK                         _______ _______ _______ _____ _____    ______ ____
ROOT
ATOM      1  O   UNL     1      38.327   3.059  12.153  0.00  0.00    +0.000 OA
ATOM      2  C   UNL     1      37.338   3.464  12.782  0.00  0.00    +0.000 C 
ATOM      3  C   UNL     1      36.704   4.783  12.557  0.00  0.00    +0.000 A 
ATOM      4  C   UNL     1      37.216   5.634  11.602  0.00  0.00    +0.000 A 
ATOM      5  C   UNL     1      36.677   6.875  11.339  0.00  0.00    +0.000 A 
ATOM      6  C   UNL     1      35.572   7.293  12.063  0.00  0.00    +0.000 A 
ATOM      7  C   UNL     1      35.034   6.444  13.041  0.00  0.00    +0.000 A 
ATOM      8  C   UNL     1      35.605   5.216  13.268  0.00  0.00    +0.000 A 
ATOM      9  C   UNL     1      35.056   4.307  14.291  0.00  0.00    +0.000 A 
ATOM     10  O   UNL     1      34.059   4.356  15.139  0.00  0.00    +0.000 OA
ATOM     11  N   UNL     1      34.003   3.237  15.853  0.00  0.00    +0.000 NA
ATOM     12  C   UNL     1      34.990   2.405  15.477  0.00  0.00    +0.000 A 
ATOM     13  C   UNL     1      35.479   1.154  15.791  0.00  0.00    +0.000 A 
ATOM     14  C   UNL     1      36.598   0.648  15.106  0.00  0.00    +0.000 A 
ATOM     15  C   UNL     1      37.246   1.354  14.116  0.00  0.00    +0.000 A 
ATOM     16  C   UNL     1      36.746   2.613  13.809  0.00  0.00    +0.000 A 
ATOM     17  C   UNL     1      35.653   3.093  14.485  0.00  0.00    +0.000 A 
ENDROOT
BRANCH  13  18
ATOM     18  N   UNL     1      34.820   0.433  16.799  0.00  0.00    +0.000 NA
BRANCH  18  19
ATOM     19  C   UNL     1      35.003  -1.006  16.862  0.00  0.00    +0.000 C 
BRANCH  19  20
ATOM     20  C   UNL     1      36.011  -1.298  17.951  0.00  0.00    +0.000 C 
BRANCH  20  21
ATOM     21  C   UNL     1      36.923  -2.376  17.433  0.00  0.00    +0.000 C 
ATOM     22  C   UNL     1      37.934  -2.762  18.189  0.00  0.00    +0.000 C 
ATOM     23  C   UNL     1      38.840  -3.843  17.656  0.00  0.00    +0.000 C 
ATOM     24  C   UNL     1      37.929  -4.872  17.018  0.00  0.00    +0.000 C 
ATOM     25  C   UNL     1      37.129  -4.318  15.884  0.00  0.00    +0.000 C 
ATOM     26  C   UNL     1      36.619  -2.933  16.102  0.00  0.00    +0.000 C 
ENDBRANCH  20  21
ENDBRANCH  19  20
ENDBRANCH  18  19
ENDBRANCH  13  18
BRANCH  15  27
ATOM     27  N   UNL     1      38.370   0.836  13.434  0.00  0.00    +0.000 NA
BRANCH  27  28
ATOM     28  C   UNL     1      38.941  -0.425  13.698  0.00  0.00    +0.000 A 
ATOM     29  C   UNL     1      38.639  -1.560  12.980  0.00  0.00    +0.000 A 
ATOM     30  C   UNL     1      39.197  -2.792  13.238  0.00  0.00    +0.000 A 
ATOM     31  C   UNL     1      40.111  -2.860  14.285  0.00  0.00    +0.000 A 
ATOM     32  C   UNL     1      40.432  -1.742  15.018  0.00  0.00    +0.000 A 
ATOM     33  C   UNL     1      39.851  -0.535  14.726  0.00  0.00    +0.000 A 
ENDBRANCH  27  28
ENDBRANCH  15  27
TORSDOF 6
ENDMDL
MODEL 5
REMARK VINA RESULT:      -8.4      1.364      6.067
REMARK  Name = 
REMARK  6 active torsions:
REMARK  status: ('A' for Active; 'I' for Inactive)
REMARK    1  A    between atoms: C_13  and  N_14
REMARK    2  A    between atoms: N_14  and  C_15
REMARK    3  A    between atoms: C_15  and  C_16
REMARK    4  A    between atoms: C_16  and  C_17
REMARK    5  A    between atoms: C_24  and  N_25
REMARK    6  A    between atoms: N_25  and  C_26
REMARK                            x       y       z     vdW  Elec       q    Type
REMARK                         _______ _______ _______ _____ _____    ______ ____
ROOT
ATOM      1  O   UNL     1      35.988   2.267  16.957  0.00  0.00    +0.000 OA
ATOM      2  C   UNL     1      36.314   1.345  16.194  0.00  0.00    +0.000 C 
ATOM      3  C   UNL     1      35.759  -0.026  16.276  0.00  0.00    +0.000 A 
ATOM      4  C   UNL     1      34.826  -0.329  17.243  0.00  0.00    +0.000 A 
ATOM      5  C   UNL     1      34.268  -1.583  17.378  0.00  0.00    +0.000 A 
ATOM      6  C   UNL     1      34.658  -2.586  16.507  0.00  0.00    +0.000 A 
ATOM      7  C   UNL     1      35.606  -2.301  15.515  0.00  0.00    +0.000 A 
ATOM      8  C   UNL     1      36.135  -1.038  15.419  0.00  0.00    +0.000 A 
ATOM      9  C   UNL     1      37.134  -0.716  14.383  0.00  0.00    +0.000 A 
ATOM     10  O   UNL     1      37.722  -1.380  13.420  0.00  0.00    +0.000 OA
ATOM     11  N   UNL     1      38.564  -0.592  12.760  0.00  0.00    +0.000 NA
ATOM     12  C   UNL     1      38.546   0.642  13.292  0.00  0.00    +0.000 A 
ATOM     13  C   UNL     1      39.143   1.871  13.102  0.00  0.00    +0.000 A 
ATOM     14  C   UNL     1      38.807   2.949  13.940  0.00  0.00    +0.000 A 
ATOM     15  C   UNL     1      37.893   2.839  14.964  0.00  0.00    +0.000 A 
ATOM     16  C   UNL     1      37.298   1.597  15.147  0.00  0.00    +0.000 A 
ATOM     17  C   UNL     1      37.635   0.554  14.321  0.00  0.00    +0.000 A 
ENDROOT
BRANCH  13  18
ATOM     18  N   UNL     1      40.075   1.986  12.059  0.00  0.00    +0.000 NA
BRANCH  18  19
ATOM     19  C   UNL     1      41.483   1.789  12.354  0.00  0.00    +0.000 C 
BRANCH  19  20
ATOM     20  C   UNL     1      41.976   0.635  11.509  0.00  0.00    +0.000 C 
BRANCH  20  21
ATOM     21  C   UNL     1      42.065  -0.567  12.410  0.00  0.00    +0.000 C 
ATOM     22  C   UNL     1      42.314  -0.376  13.692  0.00  0.00    +0.000 C 
ATOM     23  C   UNL     1      42.400  -1.591  14.581  0.00  0.00    +0.000 C 
ATOM     24  C   UNL     1      41.268  -2.502  14.151  0.00  0.00    +0.000 C 
ATOM     25  C   UNL     1      41.385  -2.944  12.728  0.00  0.00    +0.000 C 
ATOM     26  C   UNL     1      41.864  -1.889  11.788  0.00  0.00    +0.000 C 
ENDBRANCH  20  21
ENDBRANCH  19  20
ENDBRANCH  18  19
ENDBRANCH  13  18
BRANCH  15  27
ATOM     27  N   UNL     1      37.563   3.930  15.800  0.00  0.00    +0.000 NA
BRANCH  27  28
ATOM     28  C   UNL     1      38.499   4.639  16.577  0.00  0.00    +0.000 A 
ATOM     29  C   UNL     1      38.456   4.696  17.952  0.00  0.00    +0.000 A 
ATOM     30  C   UNL     1      39.371   5.390  18.712  0.00  0.00    +0.000 A 
ATOM     31  C   UNL     1      40.380   6.057  18.025  0.00  0.00    +0.000 A 
ATOM     32  C   UNL     1      40.448   6.017  16.652  0.00  0.00    +0.000 A 
ATOM     33  C   UNL     1      39.515   5.313  15.936  0.00  0.00    +0.000 A 
ENDBRANCH  27  28
ENDBRANCH  15  27
TORSDOF 6
ENDMDL
MODEL 6
REMARK VINA RESULT:      -8.0      3.996      5.953
REMARK  Name = 
REMARK  6 active torsions:
REMARK  status: ('A' for Active; 'I' for Inactive)
REMARK    1  A    between atoms: C_13  and  N_14
REMARK    2  A    between atoms: N_14  and  C_15
REMARK    3  A    between atoms: C_15  and  C_16
REMARK    4  A    between atoms: C_16  and  C_17
REMARK    5  A    between atoms: C_24  and  N_25
REMARK    6  A    between atoms: N_25  and  C_26
REMARK                            x       y       z     vdW  Elec       q    Type
REMARK                         _______ _______ _______ _____ _____    ______ ____
ROOT
ATOM      1  O   UNL     1      36.017   0.370  15.015  0.00  0.00    +0.000 OA
ATOM      2  C   UNL     1      36.800  -0.428  15.553  0.00  0.00    +0.000 C 
ATOM      3  C   UNL     1      36.773  -0.760  16.996  0.00  0.00    +0.000 A 
ATOM      4  C   UNL     1      35.838  -0.167  17.817  0.00  0.00    +0.000 A 
ATOM      5  C   UNL     1      35.755  -0.429  19.168  0.00  0.00    +0.000 A 
ATOM      6  C   UNL     1      36.647  -1.326  19.732  0.00  0.00    +0.000 A 
ATOM      7  C   UNL     1      37.607  -1.941  18.917  0.00  0.00    +0.000 A 
ATOM      8  C   UNL     1      37.652  -1.650  17.576  0.00  0.00    +0.000 A 
ATOM      9  C   UNL     1      38.653  -2.285  16.700  0.00  0.00    +0.000 A 
ATOM     10  O   UNL     1      39.622  -3.149  16.869  0.00  0.00    +0.000 OA
ATOM     11  N   UNL     1      40.237  -3.389  15.716  0.00  0.00    +0.000 NA
ATOM     12  C   UNL     1      39.668  -2.665  14.737  0.00  0.00    +0.000 A 
ATOM     13  C   UNL     1      39.807  -2.449  13.382  0.00  0.00    +0.000 A 
ATOM     14  C   UNL     1      38.944  -1.554  12.723  0.00  0.00    +0.000 A 
ATOM     15  C   UNL     1      37.945  -0.867  13.377  0.00  0.00    +0.000 A 
ATOM     16  C   UNL     1      37.815  -1.091  14.742  0.00  0.00    +0.000 A 
ATOM     17  C   UNL     1      38.664  -1.967  15.370  0.00  0.00    +0.000 A 
ENDROOT
BRANCH  13  18
ATOM     18  N   UNL     1      40.823  -3.148  12.712  0.00  0.00    +0.000 NA
BRANCH  18  19
ATOM     19  C   UNL     1      41.706  -2.416  11.821  0.00  0.00    +0.000 C 
BRANCH  19  20
ATOM     20  C   UNL     1      42.518  -1.455  12.660  0.00  0.00    +0.000 C 
BRANCH  20  21
ATOM     21  C   UNL     1      42.004  -0.071  12.369  0.00  0.00    +0.000 C 
ATOM     22  C   UNL     1      41.674   0.704  13.385  0.00  0.00    +0.000 C 
ATOM     23  C   UNL     1      41.160   2.088  13.077  0.00  0.00    +0.000 C 
ATOM     24  C   UNL     1      42.043   2.622  11.967  0.00  0.00    +0.000 C 
ATOM     25  C   UNL     1      41.972   1.799  10.721  0.00  0.00    +0.000 C 
ATOM     26  C   UNL     1      41.907   0.327  10.952  0.00  0.00    +0.000 C 
ENDBRANCH  20  21
ENDBRANCH  19  20
ENDBRANCH  18  19
ENDBRANCH  13  18
BRANCH  15  27
ATOM     27  N   UNL     1      37.084   0.030  12.706  0.00  0.00    +0.000 NA
BRANCH  27  28
ATOM     28  C   UNL     1      37.526   1.146  11.969  0.00  0.00    +0.000 A 
ATOM     29  C   UNL     1      37.990   1.065  10.675  0.00  0.00    +0.000 A 
ATOM     30  C   UNL     1      38.422   2.156   9.954  0.00  0.00    +0.000 A 
ATOM     31  C   UNL     1      38.374   3.390  10.594  0.00  0.00    +0.000 A 
ATOM     32  C   UNL     1      37.915   3.500  11.886  0.00  0.00    +0.000 A 
ATOM     33  C   UNL     1      37.494   2.386  12.566  0.00  0.00    +0.000 A 
ENDBRANCH  27  28
ENDBRANCH  15  27
TORSDOF 6
ENDMDL
MODEL 7
REMARK VINA RESULT:      -8.0      2.331      6.521
REMARK  Name = 
REMARK  6 active torsions:
REMARK  status: ('A' for Active; 'I' for Inactive)
REMARK    1  A    between atoms: C_13  and  N_14
REMARK    2  A    between atoms: N_14  and  C_15
REMARK    3  A    between atoms: C_15  and  C_16
REMARK    4  A    between atoms: C_16  and  C_17
REMARK    5  A    between atoms: C_24  and  N_25
REMARK    6  A    between atoms: N_25  and  C_26
REMARK                            x       y       z     vdW  Elec       q    Type
REMARK                         _______ _______ _______ _____ _____    ______ ____
ROOT
ATOM      1  O   UNL     1      36.065   2.411  16.686  0.00  0.00    +0.000 OA
ATOM      2  C   UNL     1      36.488   1.380  16.141  0.00  0.00    +0.000 C 
ATOM      3  C   UNL     1      35.855   0.050  16.294  0.00  0.00    +0.000 A 
ATOM      4  C   UNL     1      34.730  -0.085  17.078  0.00  0.00    +0.000 A 
ATOM      5  C   UNL     1      34.089  -1.292  17.264  0.00  0.00    +0.000 A 
ATOM      6  C   UNL     1      34.591  -2.421  16.640  0.00  0.00    +0.000 A 
ATOM      7  C   UNL     1      35.735  -2.307  15.838  0.00  0.00    +0.000 A 
ATOM      8  C   UNL     1      36.340  -1.085  15.681  0.00  0.00    +0.000 A 
ATOM      9  C   UNL     1      37.544  -0.942  14.841  0.00  0.00    +0.000 A 
ATOM     10  O   UNL     1      38.278  -1.754  14.123  0.00  0.00    +0.000 OA
ATOM     11  N   UNL     1      39.278  -1.092  13.551  0.00  0.00    +0.000 NA
ATOM     12  C   UNL     1      39.220   0.207  13.892  0.00  0.00    +0.000 A 
ATOM     13  C   UNL     1      39.909   1.379  13.664  0.00  0.00    +0.000 A 
ATOM     14  C   UNL     1      39.470   2.577  14.257  0.00  0.00    +0.000 A 
ATOM     15  C   UNL     1      38.362   2.640  15.074  0.00  0.00    +0.000 A 
ATOM     16  C   UNL     1      37.676   1.452  15.298  0.00  0.00    +0.000 A 
ATOM     17  C   UNL     1      38.116   0.293  14.711  0.00  0.00    +0.000 A 
ENDROOT
BRANCH  13  18
ATOM     18  N   UNL     1      41.038   1.319  12.832  0.00  0.00    +0.000 NA
BRANCH  18  19
ATOM     19  C   UNL     1      40.855   1.000  11.428  0.00  0.00    +0.000 C 
BRANCH  19  20
ATOM     20  C   UNL     1      40.220   2.198  10.759  0.00  0.00    +0.000 C 
BRANCH  20  21
ATOM     21  C   UNL     1      38.994   1.705  10.038  0.00  0.00    +0.000 C 
ATOM     22  C   UNL     1      37.826   1.804  10.643  0.00  0.00    +0.000 C 
ATOM     23  C   UNL     1      36.607   1.306   9.909  0.00  0.00    +0.000 C 
ATOM     24  C   UNL     1      36.765   1.772   8.476  0.00  0.00    +0.000 C 
ATOM     25  C   UNL     1      37.983   1.214   7.813  0.00  0.00    +0.000 C 
ATOM     26  C   UNL     1      39.188   1.140   8.690  0.00  0.00    +0.000 C 
ENDBRANCH  20  21
ENDBRANCH  19  20
ENDBRANCH  18  19
ENDBRANCH  13  18
BRANCH  15  27
ATOM     27  N   UNL     1      37.930   3.848  15.665  0.00  0.00    +0.000 NA
BRANCH  27  28
ATOM     28  C   UNL     1      38.732   4.649  16.501  0.00  0.00    +0.000 A 
ATOM     29  C   UNL     1      39.762   5.437  16.038  0.00  0.00    +0.000 A 
ATOM     30  C   UNL     1      40.547   6.219  16.856  0.00  0.00    +0.000 A 
ATOM     31  C   UNL     1      40.258   6.190  18.216  0.00  0.00    +0.000 A 
ATOM     32  C   UNL     1      39.235   5.413  18.707  0.00  0.00    +0.000 A 
ATOM     33  C   UNL     1      38.479   4.650  17.855  0.00  0.00    +0.000 A 
ENDBRANCH  27  28
ENDBRANCH  15  27
TORSDOF 6
ENDMDL
MODEL 8
REMARK VINA RESULT:      -8.0      4.583      7.574
REMARK  Name = 
REMARK  6 active torsions:
REMARK  status: ('A' for Active; 'I' for Inactive)
REMARK    1  A    between atoms: C_13  and  N_14
REMARK    2  A    between atoms: N_14  and  C_15
REMARK    3  A    between atoms: C_15  and  C_16
REMARK    4  A    between atoms: C_16  and  C_17
REMARK    5  A    between atoms: C_24  and  N_25
REMARK    6  A    between atoms: N_25  and  C_26
REMARK                            x       y       z     vdW  Elec       q    Type
REMARK                         _______ _______ _______ _____ _____    ______ ____
ROOT
ATOM      1  O   UNL     1      36.083   0.327  15.034  0.00  0.00    +0.000 OA
ATOM      2  C   UNL     1      36.895  -0.474  15.520  0.00  0.00    +0.000 C 
ATOM      3  C   UNL     1      36.937  -0.833  16.957  0.00  0.00    +0.000 A 
ATOM      4  C   UNL     1      36.037  -0.263  17.830  0.00  0.00    +0.000 A 
ATOM      5  C   UNL     1      36.018  -0.551  19.179  0.00  0.00    +0.000 A 
ATOM      6  C   UNL     1      36.942  -1.451  19.684  0.00  0.00    +0.000 A 
ATOM      7  C   UNL     1      37.868  -2.043  18.814  0.00  0.00    +0.000 A 
ATOM      8  C   UNL     1      37.849  -1.726  17.478  0.00  0.00    +0.000 A 
ATOM      9  C   UNL     1      38.813  -2.337  16.544  0.00  0.00    +0.000 A 
ATOM     10  O   UNL     1      39.794  -3.196  16.653  0.00  0.00    +0.000 OA
ATOM     11  N   UNL     1      40.357  -3.409  15.468  0.00  0.00    +0.000 NA
ATOM     12  C   UNL     1      39.739  -2.672  14.530  0.00  0.00    +0.000 A 
ATOM     13  C   UNL     1      39.814  -2.429  13.174  0.00  0.00    +0.000 A 
ATOM     14  C   UNL     1      38.915  -1.529  12.574  0.00  0.00    +0.000 A 
ATOM     15  C   UNL     1      37.942  -0.862  13.286  0.00  0.00    +0.000 A 
ATOM     16  C   UNL     1      37.876  -1.113  14.651  0.00  0.00    +0.000 A 
ATOM     17  C   UNL     1      38.760  -1.994  15.222  0.00  0.00    +0.000 A 
ENDROOT
BRANCH  13  18
ATOM     18  N   UNL     1      40.803  -3.107  12.446  0.00  0.00    +0.000 NA
BRANCH  18  19
ATOM     19  C   UNL     1      41.355  -2.476  11.261  0.00  0.00    +0.000 C 
BRANCH  19  20
ATOM     20  C   UNL     1      40.805  -3.199  10.051  0.00  0.00    +0.000 C 
BRANCH  20  21
ATOM     21  C   UNL     1      40.722  -2.194   8.934  0.00  0.00    +0.000 C 
ATOM     22  C   UNL     1      40.764  -2.631   7.690  0.00  0.00    +0.000 C 
ATOM     23  C   UNL     1      40.680  -1.613   6.582  0.00  0.00    +0.000 C 
ATOM     24  C   UNL     1      39.614  -0.623   7.006  0.00  0.00    +0.000 C 
ATOM     25  C   UNL     1      39.951   0.084   8.279  0.00  0.00    +0.000 C 
ATOM     26  C   UNL     1      40.597  -0.775   9.314  0.00  0.00    +0.000 C 
ENDBRANCH  20  21
ENDBRANCH  19  20
ENDBRANCH  18  19
ENDBRANCH  13  18
BRANCH  15  27
ATOM     27  N   UNL     1      37.044   0.040  12.672  0.00  0.00    +0.000 NA
BRANCH  27  28
ATOM     28  C   UNL     1      37.417   0.982  11.694  0.00  0.00    +0.000 A 
ATOM     29  C   UNL     1      38.431   1.897  11.870  0.00  0.00    +0.000 A 
ATOM     30  C   UNL     1      38.796   2.819  10.914  0.00  0.00    +0.000 A 
ATOM     31  C   UNL     1      38.085   2.798   9.719  0.00  0.00    +0.000 A 
ATOM     32  C   UNL     1      37.068   1.894   9.516  0.00  0.00    +0.000 A 
ATOM     33  C   UNL     1      36.739   0.995  10.496  0.00  0.00    +0.000 A 
ENDBRANCH  27  28
ENDBRANCH  15  27
TORSDOF 6
ENDMDL
MODEL 9
REMARK VINA RESULT:      -7.9      3.546      7.352
REMARK  Name = 
REMARK  6 active torsions:
REMARK  status: ('A' for Active; 'I' for Inactive)
REMARK    1  A    between atoms: C_13  and  N_14
REMARK    2  A    between atoms: N_14  and  C_15
REMARK    3  A    between atoms: C_15  and  C_16
REMARK    4  A    between atoms: C_16  and  C_17
REMARK    5  A    between atoms: C_24  and  N_25
REMARK    6  A    between atoms: N_25  and  C_26
REMARK                            x       y       z     vdW  Elec       q    Type
REMARK                         _______ _______ _______ _____ _____    ______ ____
ROOT
ATOM      1  O   UNL     1      38.995   2.288  12.168  0.00  0.00    +0.000 OA
ATOM      2  C   UNL     1      39.350   1.142  11.855  0.00  0.00    +0.000 C 
ATOM      3  C   UNL     1      39.699   0.737  10.473  0.00  0.00    +0.000 A 
ATOM      4  C   UNL     1      39.635   1.661   9.454  0.00  0.00    +0.000 A 
ATOM      5  C   UNL     1      39.944   1.355   8.145  0.00  0.00    +0.000 A 
ATOM      6  C   UNL     1      40.337   0.063   7.835  0.00  0.00    +0.000 A 
ATOM      7  C   UNL     1      40.408  -0.894   8.856  0.00  0.00    +0.000 A 
ATOM      8  C   UNL     1      40.090  -0.543  10.144  0.00  0.00    +0.000 A 
ATOM      9  C   UNL     1      40.159  -1.534  11.235  0.00  0.00    +0.000 A 
ATOM     10  O   UNL     1      40.475  -2.802  11.320  0.00  0.00    +0.000 OA
ATOM     11  N   UNL     1      40.366  -3.224  12.574  0.00  0.00    +0.000 NA
ATOM     12  C   UNL     1      39.963  -2.212  13.363  0.00  0.00    +0.000 A 
ATOM     13  C   UNL     1      39.668  -1.975  14.689  0.00  0.00    +0.000 A 
ATOM     14  C   UNL     1      39.261  -0.691  15.096  0.00  0.00    +0.000 A 
ATOM     15  C   UNL     1      39.139   0.364  14.219  0.00  0.00    +0.000 A 
ATOM     16  C   UNL     1      39.439   0.113  12.885  0.00  0.00    +0.000 A 
ATOM     17  C   UNL     1      39.834  -1.144  12.504  0.00  0.00    +0.000 A 
ENDROOT
BRANCH  13  18
ATOM     18  N   UNL     1      39.792  -3.047  15.585  0.00  0.00    +0.000 NA
BRANCH  18  19
ATOM     19  C   UNL     1      39.244  -2.908  16.922  0.00  0.00    +0.000 C 
BRANCH  19  20
ATOM     20  C   UNL     1      37.836  -3.459  16.907  0.00  0.00    +0.000 C 
BRANCH  20  21
ATOM     21  C   UNL     1      36.903  -2.296  17.110  0.00  0.00    +0.000 C 
ATOM     22  C   UNL     1      35.862  -2.178  16.308  0.00  0.00    +0.000 C 
ATOM     23  C   UNL     1      34.936  -1.007  16.524  0.00  0.00    +0.000 C 
ATOM     24  C   UNL     1      34.760  -0.888  18.024  0.00  0.00    +0.000 C 
ATOM     25  C   UNL     1      36.044  -0.618  18.741  0.00  0.00    +0.000 C 
ATOM     26  C   UNL     1      37.221  -1.362  18.206  0.00  0.00    +0.000 C 
ENDBRANCH  20  21
ENDBRANCH  19  20
ENDBRANCH  18  19
ENDBRANCH  13  18
BRANCH  15  27
ATOM     27  N   UNL     1      38.730   1.650  14.639  0.00  0.00    +0.000 NA
BRANCH  27  28
ATOM     28  C   UNL     1      37.430   1.956  15.087  0.00  0.00    +0.000 A 
ATOM     29  C   UNL     1      37.142   2.337  16.379  0.00  0.00    +0.000 A 
ATOM     30  C   UNL     1      35.871   2.636  16.817  0.00  0.00    +0.000 A 
ATOM     31  C   UNL     1      34.847   2.541  15.880  0.00  0.00    +0.000 A 
ATOM     32  C   UNL     1      35.105   2.164  14.584  0.00  0.00    +0.000 A 
ATOM     33  C   UNL     1      36.387   1.875  14.192  0.00  0.00    +0.000 A 
ENDBRANCH  27  28
ENDBRANCH  15  27
TORSDOF 6
ENDMDL
MODEL 10
REMARK VINA RESULT:      -7.9      4.286      6.408
REMARK  Name = 
REMARK  6 active torsions:
REMARK  status: ('A' for Active; 'I' for Inactive)
REMARK    1  A    between atoms: C_13  and  N_14
REMARK    2  A    between atoms: N_14  and  C_15
REMARK    3  A    between atoms: C_15  and  C_16
REMARK    4  A    between atoms: C_16  and  C_17
REMARK    5  A    between atoms: C_24  and  N_25
REMARK    6  A    between atoms: N_25  and  C_26
REMARK                            x       y       z     vdW  Elec       q    Type
REMARK                         _______ _______ _______ _____ _____    ______ ____
ROOT
ATOM      1  O   UNL     1      36.039   0.287  15.015  0.00  0.00    +0.000 OA
ATOM      2  C   UNL     1      36.855  -0.500  15.517  0.00  0.00    +0.000 C 
ATOM      3  C   UNL     1      36.889  -0.841  16.958  0.00  0.00    +0.000 A 
ATOM      4  C   UNL     1      35.977  -0.268  17.818  0.00  0.00    +0.000 A 
ATOM      5  C   UNL     1      35.951  -0.539  19.170  0.00  0.00    +0.000 A 
ATOM      6  C   UNL     1      36.879  -1.424  19.694  0.00  0.00    +0.000 A 
ATOM      7  C   UNL     1      37.817  -2.018  18.838  0.00  0.00    +0.000 A 
ATOM      8  C   UNL     1      37.805  -1.719  17.498  0.00  0.00    +0.000 A 
ATOM      9  C   UNL     1      38.781  -2.332  16.580  0.00  0.00    +0.000 A 
ATOM     10  O   UNL     1      39.770  -3.181  16.706  0.00  0.00    +0.000 OA
ATOM     11  N   UNL     1      40.344  -3.404  15.529  0.00  0.00    +0.000 NA
ATOM     12  C   UNL     1      39.726  -2.684  14.577  0.00  0.00    +0.000 A 
ATOM     13  C   UNL     1      39.809  -2.459  13.218  0.00  0.00    +0.000 A 
ATOM     14  C   UNL     1      38.906  -1.574  12.600  0.00  0.00    +0.000 A 
ATOM     15  C   UNL     1      37.922  -0.907  13.296  0.00  0.00    +0.000 A 
ATOM     16  C   UNL     1      37.849  -1.142  14.664  0.00  0.00    +0.000 A 
ATOM     17  C   UNL     1      38.736  -2.007  15.253  0.00  0.00    +0.000 A 
ENDROOT
BRANCH  13  18
ATOM     18  N   UNL     1      40.810  -3.137  12.506  0.00  0.00    +0.000 NA
BRANCH  18  19
ATOM     19  C   UNL     1      42.028  -2.426  12.163  0.00  0.00    +0.000 C 
BRANCH  19  20
ATOM     20  C   UNL     1      43.190  -3.176  12.775  0.00  0.00    +0.000 C 
BRANCH  20  21
ATOM     21  C   UNL     1      43.992  -2.179  13.568  0.00  0.00    +0.000 C 
ATOM     22  C   UNL     1      43.358  -1.172  14.138  0.00  0.00    +0.000 C 
ATOM     23  C   UNL     1      44.175  -0.182  14.928  0.00  0.00    +0.000 C 
ATOM     24  C   UNL     1      45.169  -1.004  15.723  0.00  0.00    +0.000 C 
ATOM     25  C   UNL     1      46.092  -1.798  14.856  0.00  0.00    +0.000 C 
ATOM     26  C   UNL     1      45.447  -2.403  13.654  0.00  0.00    +0.000 C 
ENDBRANCH  20  21
ENDBRANCH  19  20
ENDBRANCH  18  19
ENDBRANCH  13  18
BRANCH  15  27
ATOM     27  N   UNL     1      37.021  -0.021  12.664  0.00  0.00    +0.000 NA
BRANCH  27  28
ATOM     28  C   UNL     1      37.417   1.080  11.880  0.00  0.00    +0.000 A 
ATOM     29  C   UNL     1      37.109   1.211  10.545  0.00  0.00    +0.000 A 
ATOM     30  C   UNL     1      37.496   2.288   9.778  0.00  0.00    +0.000 A 
ATOM     31  C   UNL     1      38.234   3.278  10.417  0.00  0.00    +0.000 A 
ATOM     32  C   UNL     1      38.555   3.175  11.750  0.00  0.00    +0.000 A 
ATOM     33  C   UNL     1      38.149   2.084  12.474  0.00  0.00    +0.000 A 
ENDBRANCH  27  28
ENDBRANCH  15  27
TORSDOF 6
ENDMDL
