MODEL 1
REMARK VINA RESULT:      -6.2      0.000      0.000
REMARK  Name = 
REMARK  2 active torsions:
REMARK  status: ('A' for Active; 'I' for Inactive)
REMARK    1  A    between atoms: C_2  and  C_3
REMARK    2  A    between atoms: C_13  and  C_14
REMARK                            x       y       z     vdW  Elec       q    Type
REMARK                         _______ _______ _______ _____ _____    ______ ____
ROOT
ATOM      1  C   UNL     1      27.860  23.631  22.920  0.00  0.00    +0.000 C 
ATOM      2  C   UNL     1      29.065  23.916  22.568  0.00  0.00    +0.000 C 
ATOM      3  N   UNL     1      29.314  24.203  21.174  0.00  0.00    +0.000 NA
ATOM      4  O   UNL     1      30.146  23.973  23.406  0.00  0.00    +0.000 OA
ATOM      5  C   UNL     1      29.912  23.698  24.749  0.00  0.00    +0.000 C 
ATOM      6  C   UNL     1      28.742  23.406  25.184  0.00  0.00    +0.000 C 
ATOM      7  C   UNL     1      28.596  23.128  26.642  0.00  0.00    +0.000 C 
ATOM      8  C   UNL     1      29.669  22.115  26.982  0.00  0.00    +0.000 C 
ATOM      9  C   UNL     1      31.035  22.583  26.614  0.00  0.00    +0.000 C 
ATOM     10  C   UNL     1      31.106  23.757  25.701  0.00  0.00    +0.000 C 
ATOM     11  C   UNL     1      27.438  23.301  24.383  0.00  0.00    +0.000 C 
ENDROOT
BRANCH  11  12
ATOM     12  C   UNL     1      26.799  24.697  24.750  0.00  0.00    +0.000 A 
ATOM     13  C   UNL     1      25.503  24.745  25.108  0.00  0.00    +0.000 A 
ATOM     14  C   UNL     1      24.885  25.957  25.438  0.00  0.00    +0.000 A 
ATOM     15  C   UNL     1      25.626  27.110  25.392  0.00  0.00    +0.000 A 
ATOM     16  F   UNL     1      25.071  28.331  25.706  0.00  0.00    +0.000 F 
ATOM     17  C   UNL     1      26.951  27.048  25.023  0.00  0.00    +0.000 A 
ATOM     18  C   UNL     1      27.556  25.821  24.694  0.00  0.00    +0.000 A 
ENDBRANCH  11  12
BRANCH   1  20
ATOM     19  N   UNL     1      25.962  23.584  21.143  0.00  0.00    +0.000 NA
ATOM     20  C   UNL     1      26.818  23.608  21.933  0.00  0.00    +0.000 C 
ENDBRANCH   1  20
TORSDOF 2
ENDMDL
MODEL 2
REMARK VINA RESULT:      -6.2     20.321     21.915
REMARK  Name = 
REMARK  2 active torsions:
REMARK  status: ('A' for Active; 'I' for Inactive)
REMARK    1  A    between atoms: C_2  and  C_3
REMARK    2  A    between atoms: C_13  and  C_14
REMARK                            x       y       z     vdW  Elec       q    Type
REMARK                         _______ _______ _______ _____ _____    ______ ____
ROOT
ATOM      1  C   UNL     1      18.038   9.166  38.558  0.00  0.00    +0.000 C 
ATOM      2  C   UNL     1      17.053   9.845  39.036  0.00  0.00    +0.000 C 
ATOM      3  N   UNL     1      16.695   9.633  40.419  0.00  0.00    +0.000 NA
ATOM      4  O   UNL     1      16.307  10.759  38.344  0.00  0.00    +0.000 OA
ATOM      5  C   UNL     1      16.648  10.967  37.012  0.00  0.00    +0.000 C 
ATOM      6  C   UNL     1      17.615  10.334  36.457  0.00  0.00    +0.000 C 
ATOM      7  C   UNL     1      17.901  10.628  35.023  0.00  0.00    +0.000 C 
ATOM      8  C   UNL     1      16.574  10.517  34.302  0.00  0.00    +0.000 C 
ATOM      9  C   UNL     1      15.530  11.409  34.882  0.00  0.00    +0.000 C 
ATOM     10  C   UNL     1      15.827  11.985  36.222  0.00  0.00    +0.000 C 
ATOM     11  C   UNL     1      18.540   9.285  37.087  0.00  0.00    +0.000 C 
ENDROOT
BRANCH  11  12
ATOM     12  C   UNL     1      19.805  10.190  37.358  0.00  0.00    +0.000 A 
ATOM     13  C   UNL     1      21.000   9.797  36.882  0.00  0.00    +0.000 A 
ATOM     14  C   UNL     1      22.154  10.558  37.097  0.00  0.00    +0.000 A 
ATOM     15  C   UNL     1      22.052  11.726  37.808  0.00  0.00    +0.000 A 
ATOM     16  F   UNL     1      23.154  12.516  38.052  0.00  0.00    +0.000 F 
ATOM     17  C   UNL     1      20.823  12.118  38.293  0.00  0.00    +0.000 A 
ATOM     18  C   UNL     1      19.673  11.339  38.066  0.00  0.00    +0.000 A 
ENDBRANCH  11  12
BRANCH   1  20
ATOM     19  N   UNL     1      19.314   7.480  40.070  0.00  0.00    +0.000 NA
ATOM     20  C   UNL     1      18.737   8.237  39.399  0.00  0.00    +0.000 C 
ENDBRANCH   1  20
TORSDOF 2
ENDMDL
MODEL 3
REMARK VINA RESULT:      -5.8     13.685     15.805
REMARK  Name = 
REMARK  2 active torsions:
REMARK  status: ('A' for Active; 'I' for Inactive)
REMARK    1  A    between atoms: C_2  and  C_3
REMARK    2  A    between atoms: C_13  and  C_14
REMARK                            x       y       z     vdW  Elec       q    Type
REMARK                         _______ _______ _______ _____ _____    ______ ____
ROOT
ATOM      1  C   UNL     1      31.759  22.225  11.617  0.00  0.00    +0.000 C 
ATOM      2  C   UNL     1      31.874  21.220  12.415  0.00  0.00    +0.000 C 
ATOM      3  N   UNL     1      30.777  20.940  13.312  0.00  0.00    +0.000 NA
ATOM      4  O   UNL     1      32.955  20.385  12.492  0.00  0.00    +0.000 OA
ATOM      5  C   UNL     1      34.014  20.651  11.631  0.00  0.00    +0.000 C 
ATOM      6  C   UNL     1      33.982  21.630  10.804  0.00  0.00    +0.000 C 
ATOM      7  C   UNL     1      35.169  21.831   9.923  0.00  0.00    +0.000 C 
ATOM      8  C   UNL     1      36.374  21.814  10.839  0.00  0.00    +0.000 C 
ATOM      9  C   UNL     1      36.458  20.569  11.653  0.00  0.00    +0.000 C 
ATOM     10  C   UNL     1      35.231  19.728  11.700  0.00  0.00    +0.000 C 
ATOM     11  C   UNL     1      32.856  22.651  10.595  0.00  0.00    +0.000 C 
ENDROOT
BRANCH  11  12
ATOM     12  C   UNL     1      32.196  22.042   9.297  0.00  0.00    +0.000 A 
ATOM     13  C   UNL     1      32.150  22.789   8.179  0.00  0.00    +0.000 A 
ATOM     14  C   UNL     1      31.573  22.301   7.002  0.00  0.00    +0.000 A 
ATOM     15  C   UNL     1      31.048  21.035   7.000  0.00  0.00    +0.000 A 
ATOM     16  F   UNL     1      30.466  20.501   5.870  0.00  0.00    +0.000 F 
ATOM     17  C   UNL     1      31.099  20.279   8.150  0.00  0.00    +0.000 A 
ATOM     18  C   UNL     1      31.684  20.787   9.325  0.00  0.00    +0.000 A 
ENDBRANCH  11  12
BRANCH   1  20
ATOM     19  N   UNL     1      29.594  23.664  11.647  0.00  0.00    +0.000 NA
ATOM     20  C   UNL     1      30.564  23.020  11.642  0.00  0.00    +0.000 C 
ENDBRANCH   1  20
TORSDOF 2
ENDMDL
MODEL 4
REMARK VINA RESULT:      -5.8     33.778     35.225
REMARK  Name = 
REMARK  2 active torsions:
REMARK  status: ('A' for Active; 'I' for Inactive)
REMARK    1  A    between atoms: C_2  and  C_3
REMARK    2  A    between atoms: C_13  and  C_14
REMARK                            x       y       z     vdW  Elec       q    Type
REMARK                         _______ _______ _______ _____ _____    ______ ____
ROOT
ATOM      1  C   UNL     1      16.576  -9.201  25.875  0.00  0.00    +0.000 C 
ATOM      2  C   UNL     1      15.948  -8.091  26.057  0.00  0.00    +0.000 C 
ATOM      3  N   UNL     1      14.507  -8.104  25.952  0.00  0.00    +0.000 NA
ATOM      4  O   UNL     1      16.529  -6.886  26.344  0.00  0.00    +0.000 OA
ATOM      5  C   UNL     1      17.916  -6.868  26.447  0.00  0.00    +0.000 C 
ATOM      6  C   UNL     1      18.619  -7.927  26.281  0.00  0.00    +0.000 C 
ATOM      7  C   UNL     1      20.099  -7.802  26.412  0.00  0.00    +0.000 C 
ATOM      8  C   UNL     1      20.497  -6.634  25.535  0.00  0.00    +0.000 C 
ATOM      9  C   UNL     1      19.775  -5.380  25.888  0.00  0.00    +0.000 C 
ATOM     10  C   UNL     1      18.584  -5.531  26.768  0.00  0.00    +0.000 C 
ATOM     11  C   UNL     1      18.126  -9.343  25.956  0.00  0.00    +0.000 C 
ENDROOT
BRANCH  11  12
ATOM     12  C   UNL     1      18.214  -9.981  27.397  0.00  0.00    +0.000 A 
ATOM     13  C   UNL     1      18.764 -11.202  27.535  0.00  0.00    +0.000 A 
ATOM     14  C   UNL     1      18.863 -11.816  28.789  0.00  0.00    +0.000 A 
ATOM     15  C   UNL     1      18.387 -11.151  29.889  0.00  0.00    +0.000 A 
ATOM     16  F   UNL     1      18.457 -11.707  31.148  0.00  0.00    +0.000 F 
ATOM     17  C   UNL     1      17.825  -9.904  29.736  0.00  0.00    +0.000 A 
ATOM     18  C   UNL     1      17.734  -9.301  28.467  0.00  0.00    +0.000 A 
ENDBRANCH  11  12
BRANCH   1  20
ATOM     19  N   UNL     1      15.248 -11.373  25.350  0.00  0.00    +0.000 NA
ATOM     20  C   UNL     1      15.838 -10.396  25.579  0.00  0.00    +0.000 C 
ENDBRANCH   1  20
TORSDOF 2
ENDMDL
MODEL 5
REMARK VINA RESULT:      -5.7      2.584      4.966
REMARK  Name = 
REMARK  2 active torsions:
REMARK  status: ('A' for Active; 'I' for Inactive)
REMARK    1  A    between atoms: C_2  and  C_3
REMARK    2  A    between atoms: C_13  and  C_14
REMARK                            x       y       z     vdW  Elec       q    Type
REMARK                         _______ _______ _______ _____ _____    ______ ____
ROOT
ATOM      1  C   UNL     1      27.439  24.399  23.454  0.00  0.00    +0.000 C 
ATOM      2  C   UNL     1      26.243  23.920  23.452  0.00  0.00    +0.000 C 
ATOM      3  N   UNL     1      25.858  23.068  22.351  0.00  0.00    +0.000 NA
ATOM      4  O   UNL     1      25.292  24.151  24.409  0.00  0.00    +0.000 OA
ATOM      5  C   UNL     1      25.659  24.972  25.470  0.00  0.00    +0.000 C 
ATOM      6  C   UNL     1      26.829  25.488  25.551  0.00  0.00    +0.000 C 
ATOM      7  C   UNL     1      27.122  26.355  26.729  0.00  0.00    +0.000 C 
ATOM      8  C   UNL     1      25.983  27.349  26.809  0.00  0.00    +0.000 C 
ATOM      9  C   UNL     1      24.650  26.688  26.891  0.00  0.00    +0.000 C 
ATOM     10  C   UNL     1      24.611  25.240  26.550  0.00  0.00    +0.000 C 
ATOM     11  C   UNL     1      27.998  25.331  24.571  0.00  0.00    +0.000 C 
ENDROOT
BRANCH  11  12
ATOM     12  C   UNL     1      28.846  24.255  25.354  0.00  0.00    +0.000 A 
ATOM     13  C   UNL     1      30.172  24.440  25.483  0.00  0.00    +0.000 A 
ATOM     14  C   UNL     1      30.972  23.514  26.163  0.00  0.00    +0.000 A 
ATOM     15  C   UNL     1      30.381  22.402  26.704  0.00  0.00    +0.000 A 
ATOM     16  F   UNL     1      31.118  21.457  27.384  0.00  0.00    +0.000 F 
ATOM     17  C   UNL     1      29.022  22.222  26.565  0.00  0.00    +0.000 A 
ATOM     18  C   UNL     1      28.234  23.164  25.878  0.00  0.00    +0.000 A 
ENDBRANCH  11  12
BRANCH   1  20
ATOM     19  N   UNL     1      29.072  23.826  21.514  0.00  0.00    +0.000 NA
ATOM     20  C   UNL     1      28.337  24.075  22.382  0.00  0.00    +0.000 C 
ENDBRANCH   1  20
TORSDOF 2
ENDMDL
MODEL 6
REMARK VINA RESULT:      -5.7      1.944      2.571
REMARK  Name = 
REMARK  2 active torsions:
REMARK  status: ('A' for Active; 'I' for Inactive)
REMARK    1  A    between atoms: C_2  and  C_3
REMARK    2  A    between atoms: C_13  and  C_14
REMARK                            x       y       z     vdW  Elec       q    Type
REMARK                         _______ _______ _______ _____ _____    ______ ____
ROOT
ATOM      1  C   UNL     1      26.591  23.369  24.570  0.00  0.00    +0.000 C 
ATOM      2  C   UNL     1      27.864  23.250  24.723  0.00  0.00    +0.000 C 
ATOM      3  N   UNL     1      28.655  22.902  23.566  0.00  0.00    +0.000 NA
ATOM      4  O   UNL     1      28.544  23.425  25.899  0.00  0.00    +0.000 OA
ATOM      5  C   UNL     1      27.786  23.760  27.016  0.00  0.00    +0.000 C 
ATOM      6  C   UNL     1      26.514  23.900  26.951  0.00  0.00    +0.000 C 
ATOM      7  C   UNL     1      25.792  24.261  28.206  0.00  0.00    +0.000 C 
ATOM      8  C   UNL     1      26.270  23.281  29.257  0.00  0.00    +0.000 C 
ATOM      9  C   UNL     1      27.752  23.287  29.415  0.00  0.00    +0.000 C 
ATOM     10  C   UNL     1      28.527  23.961  28.337  0.00  0.00    +0.000 C 
ATOM     11  C   UNL     1      25.609  23.739  25.722  0.00  0.00    +0.000 C 
ENDROOT
BRANCH  11  12
ATOM     12  C   UNL     1      25.402  25.260  25.356  0.00  0.00    +0.000 A 
ATOM     13  C   UNL     1      24.151  25.754  25.309  0.00  0.00    +0.000 A 
ATOM     14  C   UNL     1      23.910  27.094  24.985  0.00  0.00    +0.000 A 
ATOM     15  C   UNL     1      24.978  27.910  24.714  0.00  0.00    +0.000 A 
ATOM     16  F   UNL     1      24.801  29.237  24.388  0.00  0.00    +0.000 F 
ATOM     17  C   UNL     1      26.254  27.394  24.763  0.00  0.00    +0.000 A 
ATOM     18  C   UNL     1      26.477  26.043  25.091  0.00  0.00    +0.000 A 
ENDBRANCH  11  12
BRANCH   1  20
ATOM     19  N   UNL     1      25.539  22.969  22.226  0.00  0.00    +0.000 NA
ATOM     20  C   UNL     1      26.007  23.157  23.276  0.00  0.00    +0.000 C 
ENDBRANCH   1  20
TORSDOF 2
ENDMDL
MODEL 7
REMARK VINA RESULT:      -5.7      4.632      6.684
REMARK  Name = 
REMARK  2 active torsions:
REMARK  status: ('A' for Active; 'I' for Inactive)
REMARK    1  A    between atoms: C_2  and  C_3
REMARK    2  A    between atoms: C_13  and  C_14
REMARK                            x       y       z     vdW  Elec       q    Type
REMARK                         _______ _______ _______ _____ _____    ______ ____
ROOT
ATOM      1  C   UNL     1      26.060  23.676  29.290  0.00  0.00    +0.000 C 
ATOM      2  C   UNL     1      25.873  24.826  29.840  0.00  0.00    +0.000 C 
ATOM      3  N   UNL     1      25.715  24.871  31.275  0.00  0.00    +0.000 NA
ATOM      4  O   UNL     1      25.808  26.022  29.179  0.00  0.00    +0.000 OA
ATOM      5  C   UNL     1      25.960  25.983  27.797  0.00  0.00    +0.000 C 
ATOM      6  C   UNL     1      26.151  24.882  27.170  0.00  0.00    +0.000 C 
ATOM      7  C   UNL     1      26.300  24.946  25.687  0.00  0.00    +0.000 C 
ATOM      8  C   UNL     1      25.130  25.766  25.186  0.00  0.00    +0.000 C 
ATOM      9  C   UNL     1      25.058  27.112  25.823  0.00  0.00    +0.000 C 
ATOM     10  C   UNL     1      25.892  27.309  27.041  0.00  0.00    +0.000 C 
ATOM     11  C   UNL     1      26.247  23.467  27.757  0.00  0.00    +0.000 C 
ENDROOT
BRANCH  11  12
ATOM     12  C   UNL     1      27.815  23.292  27.747  0.00  0.00    +0.000 A 
ATOM     13  C   UNL     1      28.350  22.263  27.065  0.00  0.00    +0.000 A 
ATOM     14  C   UNL     1      29.734  22.058  27.026  0.00  0.00    +0.000 A 
ATOM     15  C   UNL     1      30.550  22.930  27.700  0.00  0.00    +0.000 A 
ATOM     16  F   UNL     1      31.919  22.778  27.699  0.00  0.00    +0.000 F 
ATOM     17  C   UNL     1      29.991  23.979  28.396  0.00  0.00    +0.000 A 
ATOM     18  C   UNL     1      28.597  24.170  28.423  0.00  0.00    +0.000 A 
ENDBRANCH  11  12
BRANCH   1  20
ATOM     19  N   UNL     1      26.128  21.539  30.769  0.00  0.00    +0.000 NA
ATOM     20  C   UNL     1      26.107  22.496  30.106  0.00  0.00    +0.000 C 
ENDBRANCH   1  20
TORSDOF 2
ENDMDL
MODEL 8
REMARK VINA RESULT:      -5.6     32.860     34.321
REMARK  Name = 
REMARK  2 active torsions:
REMARK  status: ('A' for Active; 'I' for Inactive)
REMARK    1  A    between atoms: C_2  and  C_3
REMARK    2  A    between atoms: C_13  and  C_14
REMARK                            x       y       z     vdW  Elec       q    Type
REMARK                         _______ _______ _______ _____ _____    ______ ____
ROOT
ATOM      1  C   UNL     1      18.335  -7.590  25.832  0.00  0.00    +0.000 C 
ATOM      2  C   UNL     1      18.878  -6.449  26.082  0.00  0.00    +0.000 C 
ATOM      3  N   UNL     1      18.053  -5.425  26.679  0.00  0.00    +0.000 NA
ATOM      4  O   UNL     1      20.181  -6.116  25.831  0.00  0.00    +0.000 OA
ATOM      5  C   UNL     1      20.979  -7.099  25.257  0.00  0.00    +0.000 C 
ATOM      6  C   UNL     1      20.520  -8.262  24.976  0.00  0.00    +0.000 C 
ATOM      7  C   UNL     1      21.458  -9.246  24.362  0.00  0.00    +0.000 C 
ATOM      8  C   UNL     1      22.115  -8.527  23.203  0.00  0.00    +0.000 C 
ATOM      9  C   UNL     1      22.788  -7.264  23.619  0.00  0.00    +0.000 C 
ATOM     10  C   UNL     1      22.438  -6.746  24.970  0.00  0.00    +0.000 C 
ATOM     11  C   UNL     1      19.096  -8.791  25.191  0.00  0.00    +0.000 C 
ENDROOT
BRANCH  11  12
ATOM     12  C   UNL     1      19.331  -9.630  26.506  0.00  0.00    +0.000 A 
ATOM     13  C   UNL     1      18.922 -10.912  26.542  0.00  0.00    +0.000 A 
ATOM     14  C   UNL     1      19.101 -11.701  27.684  0.00  0.00    +0.000 A 
ATOM     15  C   UNL     1      19.707 -11.145  28.782  0.00  0.00    +0.000 A 
ATOM     16  F   UNL     1      19.909 -11.873  29.934  0.00  0.00    +0.000 F 
ATOM     17  C   UNL     1      20.120  -9.832  28.735  0.00  0.00    +0.000 A 
ATOM     18  C   UNL     1      19.932  -9.054  27.577  0.00  0.00    +0.000 A 
ENDBRANCH  11  12
BRANCH   1  20
ATOM     19  N   UNL     1      15.834  -7.988  26.416  0.00  0.00    +0.000 NA
ATOM     20  C   UNL     1      16.952  -7.805  26.148  0.00  0.00    +0.000 C 
ENDBRANCH   1  20
TORSDOF 2
ENDMDL
MODEL 9
REMARK VINA RESULT:      -5.6     33.701     35.083
REMARK  Name = 
REMARK  2 active torsions:
REMARK  status: ('A' for Active; 'I' for Inactive)
REMARK    1  A    between atoms: C_2  and  C_3
REMARK    2  A    between atoms: C_13  and  C_14
REMARK                            x       y       z     vdW  Elec       q    Type
REMARK                         _______ _______ _______ _____ _____    ______ ____
ROOT
ATOM      1  C   UNL     1      16.733  -9.697  26.935  0.00  0.00    +0.000 C 
ATOM      2  C   UNL     1      17.149 -10.853  26.548  0.00  0.00    +0.000 C 
ATOM      3  N   UNL     1      16.494 -11.462  25.413  0.00  0.00    +0.000 NA
ATOM      4  O   UNL     1      18.167 -11.565  27.121  0.00  0.00    +0.000 OA
ATOM      5  C   UNL     1      18.800 -10.982  28.214  0.00  0.00    +0.000 C 
ATOM      6  C   UNL     1      18.450  -9.835  28.664  0.00  0.00    +0.000 C 
ATOM      7  C   UNL     1      19.192  -9.297  29.841  0.00  0.00    +0.000 C 
ATOM      8  C   UNL     1      19.199 -10.407  30.871  0.00  0.00    +0.000 C 
ATOM      9  C   UNL     1      19.781 -11.674  30.345  0.00  0.00    +0.000 C 
ATOM     10  C   UNL     1      19.941 -11.762  28.868  0.00  0.00    +0.000 C 
ATOM     11  C   UNL     1      17.338  -8.916  28.140  0.00  0.00    +0.000 C 
ENDROOT
BRANCH  11  12
ATOM     12  C   UNL     1      18.217  -7.892  27.321  0.00  0.00    +0.000 A 
ATOM     13  C   UNL     1      17.912  -6.583  27.376  0.00  0.00    +0.000 A 
ATOM     14  C   UNL     1      18.654  -5.633  26.666  0.00  0.00    +0.000 A 
ATOM     15  C   UNL     1      19.712  -6.057  25.904  0.00  0.00    +0.000 A 
ATOM     16  F   UNL     1      20.479  -5.168  25.183  0.00  0.00    +0.000 F 
ATOM     17  C   UNL     1      20.015  -7.400  25.854  0.00  0.00    +0.000 A 
ATOM     18  C   UNL     1      19.257  -8.341  26.575  0.00  0.00    +0.000 A 
ENDBRANCH  11  12
BRANCH   1  20
ATOM     19  N   UNL     1      14.782  -8.544  25.661  0.00  0.00    +0.000 NA
ATOM     20  C   UNL     1      15.651  -9.060  26.239  0.00  0.00    +0.000 C 
ENDBRANCH   1  20
TORSDOF 2
ENDMDL
MODEL 10
REMARK VINA RESULT:      -5.4     31.561     32.814
REMARK  Name = 
REMARK  2 active torsions:
REMARK  status: ('A' for Active; 'I' for Inactive)
REMARK    1  A    between atoms: C_2  and  C_3
REMARK    2  A    between atoms: C_13  and  C_14
REMARK                            x       y       z     vdW  Elec       q    Type
REMARK                         _______ _______ _______ _____ _____    ______ ____
ROOT
ATOM      1  C   UNL     1      34.881  -5.739  32.974  0.00  0.00    +0.000 C 
ATOM      2  C   UNL     1      35.816  -6.531  32.578  0.00  0.00    +0.000 C 
ATOM      3  N   UNL     1      36.941  -6.744  33.460  0.00  0.00    +0.000 NA
ATOM      4  O   UNL     1      35.841  -7.198  31.383  0.00  0.00    +0.000 OA
ATOM      5  C   UNL     1      34.761  -6.997  30.531  0.00  0.00    +0.000 C 
ATOM      6  C   UNL     1      33.787  -6.225  30.847  0.00  0.00    +0.000 C 
ATOM      7  C   UNL     1      32.676  -6.076  29.863  0.00  0.00    +0.000 C 
ATOM      8  C   UNL     1      33.334  -5.757  28.537  0.00  0.00    +0.000 C 
ATOM      9  C   UNL     1      34.335  -6.784  28.132  0.00  0.00    +0.000 C 
ATOM     10  C   UNL     1      34.770  -7.734  29.192  0.00  0.00    +0.000 C 
ATOM     11  C   UNL     1      33.609  -5.411  32.135  0.00  0.00    +0.000 C 
ENDROOT
BRANCH  11  12
ATOM     12  C   UNL     1      32.596  -6.353  32.894  0.00  0.00    +0.000 A 
ATOM     13  C   UNL     1      31.488  -5.815  33.435  0.00  0.00    +0.000 A 
ATOM     14  C   UNL     1      30.558  -6.603  34.124  0.00  0.00    +0.000 A 
ATOM     15  C   UNL     1      30.792  -7.949  34.241  0.00  0.00    +0.000 A 
ATOM     16  F   UNL     1      29.913  -8.774  34.908  0.00  0.00    +0.000 F 
ATOM     17  C   UNL     1      31.931  -8.489  33.685  0.00  0.00    +0.000 A 
ATOM     18  C   UNL     1      32.854  -7.681  32.996  0.00  0.00    +0.000 A 
ENDBRANCH  11  12
BRANCH   1  20
ATOM     19  N   UNL     1      35.071  -4.599  35.303  0.00  0.00    +0.000 NA
ATOM     20  C   UNL     1      34.984  -5.102  34.256  0.00  0.00    +0.000 C 
ENDBRANCH   1  20
TORSDOF 2
ENDMDL
