MODEL 1
REMARK VINA RESULT:      -7.1      0.000      0.000
REMARK  Name = 
REMARK  4 active torsions:
REMARK  status: ('A' for Active; 'I' for Inactive)
REMARK    1  A    between atoms: C_2  and  O_5
REMARK    2  A    between atoms: O_5  and  C_6
REMARK    3  A    between atoms: N_8  and  N_9
REMARK    4  A    between atoms: N_9  and  C_10
REMARK                            x       y       z     vdW  Elec       q    Type
REMARK                         _______ _______ _______ _____ _____    ______ ____
ROOT
ATOM      1  N   UNL     1      14.302  12.435  35.723  0.00  0.00    +0.000 NA
ENDROOT
BRANCH   1   2
ATOM      2  C   UNL     1      14.010  13.261  34.604  0.00  0.00    +0.000 C 
ATOM      3  C   UNL     1      13.351  14.416  34.728  0.00  0.00    +0.000 C 
ATOM      4  C   UNL     1      13.192  15.061  33.390  0.00  0.00    +0.000 C 
ATOM      5  C   UNL     1      13.848  14.125  32.449  0.00  0.00    +0.000 A 
ATOM      6  C   UNL     1      14.017  14.180  31.092  0.00  0.00    +0.000 A 
ATOM      7  C   UNL     1      14.694  13.122  30.473  0.00  0.00    +0.000 A 
ATOM      8  C   UNL     1      15.171  12.070  31.189  0.00  0.00    +0.000 A 
ATOM      9  C   UNL     1      14.981  12.048  32.570  0.00  0.00    +0.000 A 
ATOM     10  C   UNL     1      14.325  13.067  33.186  0.00  0.00    +0.000 A 
ENDBRANCH   1   2
BRANCH   1  13
ATOM     11  C   UNL     1      16.627  11.627  36.043  0.00  0.00    +0.000 C 
ATOM     12  O   UNL     1      16.367  10.640  35.311  0.00  0.00    +0.000 OA
ATOM     13  N   UNL     1      15.585  12.563  36.271  0.00  0.00    +0.000 NA
BRANCH  11  14
ATOM     14  O   UNL     1      17.850  11.859  36.634  0.00  0.00    +0.000 OA
BRANCH  14  16
ATOM     15  C   UNL     1      19.388  11.622  38.402  0.00  0.00    +0.000 C 
ATOM     16  C   UNL     1      18.383  10.903  37.534  0.00  0.00    +0.000 C 
ATOM     17  C   UNL     1      17.206  10.376  38.353  0.00  0.00    +0.000 C 
ATOM     18  C   UNL     1      19.071   9.809  36.765  0.00  0.00    +0.000 C 
ENDBRANCH  14  16
ENDBRANCH  11  14
ENDBRANCH   1  13
TORSDOF 4
ENDMDL
MODEL 2
REMARK VINA RESULT:      -6.8      1.241      2.449
REMARK  Name = 
REMARK  4 active torsions:
REMARK  status: ('A' for Active; 'I' for Inactive)
REMARK    1  A    between atoms: C_2  and  O_5
REMARK    2  A    between atoms: O_5  and  C_6
REMARK    3  A    between atoms: N_8  and  N_9
REMARK    4  A    between atoms: N_9  and  C_10
REMARK                            x       y       z     vdW  Elec       q    Type
REMARK                         _______ _______ _______ _____ _____    ______ ____
ROOT
ATOM      1  N   UNL     1      15.718  11.105  35.002  0.00  0.00    +0.000 NA
ENDROOT
BRANCH   1   2
ATOM      2  C   UNL     1      15.653  11.351  33.602  0.00  0.00    +0.000 C 
ATOM      3  C   UNL     1      16.287  10.578  32.717  0.00  0.00    +0.000 C 
ATOM      4  C   UNL     1      16.038  11.077  31.331  0.00  0.00    +0.000 C 
ATOM      5  C   UNL     1      15.166  12.258  31.516  0.00  0.00    +0.000 A 
ATOM      6  C   UNL     1      14.613  13.122  30.609  0.00  0.00    +0.000 A 
ATOM      7  C   UNL     1      13.816  14.164  31.100  0.00  0.00    +0.000 A 
ATOM      8  C   UNL     1      13.595  14.321  32.433  0.00  0.00    +0.000 A 
ATOM      9  C   UNL     1      14.174  13.421  33.326  0.00  0.00    +0.000 A 
ATOM     10  C   UNL     1      14.950  12.404  32.866  0.00  0.00    +0.000 A 
ENDBRANCH   1   2
BRANCH   1  13
ATOM     11  C   UNL     1      17.097  11.375  37.047  0.00  0.00    +0.000 C 
ATOM     12  O   UNL     1      16.196  10.805  37.710  0.00  0.00    +0.000 OA
ATOM     13  N   UNL     1      16.877  11.543  35.655  0.00  0.00    +0.000 NA
BRANCH  11  14
ATOM     14  O   UNL     1      18.277  11.846  37.580  0.00  0.00    +0.000 OA
BRANCH  14  16
ATOM     15  C   UNL     1      20.570  11.699  38.096  0.00  0.00    +0.000 C 
ATOM     16  C   UNL     1      19.278  10.927  37.983  0.00  0.00    +0.000 C 
ATOM     17  C   UNL     1      18.834  10.370  39.335  0.00  0.00    +0.000 C 
ATOM     18  C   UNL     1      19.422   9.846  36.948  0.00  0.00    +0.000 C 
ENDBRANCH  14  16
ENDBRANCH  11  14
ENDBRANCH   1  13
TORSDOF 4
ENDMDL
MODEL 3
REMARK VINA RESULT:      -6.2      1.844      3.013
REMARK  Name = 
REMARK  4 active torsions:
REMARK  status: ('A' for Active; 'I' for Inactive)
REMARK    1  A    between atoms: C_2  and  O_5
REMARK    2  A    between atoms: O_5  and  C_6
REMARK    3  A    between atoms: N_8  and  N_9
REMARK    4  A    between atoms: N_9  and  C_10
REMARK                            x       y       z     vdW  Elec       q    Type
REMARK                         _______ _______ _______ _____ _____    ______ ____
ROOT
ATOM      1  N   UNL     1      16.236  11.613  36.357  0.00  0.00    +0.000 NA
ENDROOT
BRANCH   1   2
ATOM      2  C   UNL     1      16.005  11.627  34.954  0.00  0.00    +0.000 C 
ATOM      3  C   UNL     1      16.626  10.784  34.125  0.00  0.00    +0.000 C 
ATOM      4  C   UNL     1      16.186  11.033  32.719  0.00  0.00    +0.000 C 
ATOM      5  C   UNL     1      15.216  12.145  32.828  0.00  0.00    +0.000 A 
ATOM      6  C   UNL     1      14.485  12.802  31.874  0.00  0.00    +0.000 A 
ATOM      7  C   UNL     1      13.636  13.832  32.294  0.00  0.00    +0.000 A 
ATOM      8  C   UNL     1      13.534  14.177  33.606  0.00  0.00    +0.000 A 
ATOM      9  C   UNL     1      14.293  13.486  34.549  0.00  0.00    +0.000 A 
ATOM     10  C   UNL     1      15.122  12.483  34.157  0.00  0.00    +0.000 A 
ENDBRANCH   1   2
BRANCH   1  13
ATOM     11  C   UNL     1      17.955  10.313  37.589  0.00  0.00    +0.000 C 
ATOM     12  O   UNL     1      18.631  11.363  37.719  0.00  0.00    +0.000 OA
ATOM     13  N   UNL     1      16.722  10.413  36.894  0.00  0.00    +0.000 NA
BRANCH  11  14
ATOM     14  O   UNL     1      18.330   9.079  38.073  0.00  0.00    +0.000 OA
BRANCH  14  16
ATOM     15  C   UNL     1      19.553   9.632  40.009  0.00  0.00    +0.000 C 
ATOM     16  C   UNL     1      18.370   8.861  39.473  0.00  0.00    +0.000 C 
ATOM     17  C   UNL     1      17.051   9.392  40.032  0.00  0.00    +0.000 C 
ATOM     18  C   UNL     1      18.553   7.395  39.754  0.00  0.00    +0.000 C 
ENDBRANCH  14  16
ENDBRANCH  11  14
ENDBRANCH   1  13
TORSDOF 4
ENDMDL
MODEL 4
REMARK VINA RESULT:      -6.1     20.250     21.820
REMARK  Name = 
REMARK  4 active torsions:
REMARK  status: ('A' for Active; 'I' for Inactive)
REMARK    1  A    between atoms: C_2  and  O_5
REMARK    2  A    between atoms: O_5  and  C_6
REMARK    3  A    between atoms: N_8  and  N_9
REMARK    4  A    between atoms: N_9  and  C_10
REMARK                            x       y       z     vdW  Elec       q    Type
REMARK                         _______ _______ _______ _____ _____    ______ ____
ROOT
ATOM      1  N   UNL     1      27.448  23.451  22.112  0.00  0.00    +0.000 NA
ENDROOT
BRANCH   1   2
ATOM      2  C   UNL     1      27.496  23.207  23.512  0.00  0.00    +0.000 C 
ATOM      3  C   UNL     1      26.392  23.159  24.261  0.00  0.00    +0.000 C 
ATOM      4  C   UNL     1      26.752  22.887  25.685  0.00  0.00    +0.000 C 
ATOM      5  C   UNL     1      28.228  22.781  25.679  0.00  0.00    +0.000 A 
ATOM      6  C   UNL     1      29.121  22.543  26.689  0.00  0.00    +0.000 A 
ATOM      7  C   UNL     1      30.482  22.499  26.364  0.00  0.00    +0.000 A 
ATOM      8  C   UNL     1      30.913  22.688  25.087  0.00  0.00    +0.000 A 
ATOM      9  C   UNL     1      29.975  22.928  24.085  0.00  0.00    +0.000 A 
ATOM     10  C   UNL     1      28.650  22.973  24.384  0.00  0.00    +0.000 A 
ENDBRANCH   1   2
BRANCH   1  13
ATOM     11  C   UNL     1      28.713  25.340  21.115  0.00  0.00    +0.000 C 
ATOM     12  O   UNL     1      29.692  24.572  20.944  0.00  0.00    +0.000 OA
ATOM     13  N   UNL     1      27.549  24.790  21.712  0.00  0.00    +0.000 NA
BRANCH  11  14
ATOM     14  O   UNL     1      28.696  26.671  20.762  0.00  0.00    +0.000 OA
BRANCH  14  16
ATOM     15  C   UNL     1      27.247  27.993  22.066  0.00  0.00    +0.000 C 
ATOM     16  C   UNL     1      28.691  27.663  21.774  0.00  0.00    +0.000 C 
ATOM     17  C   UNL     1      29.384  27.045  22.987  0.00  0.00    +0.000 C 
ATOM     18  C   UNL     1      29.403  28.893  21.285  0.00  0.00    +0.000 C 
ENDBRANCH  14  16
ENDBRANCH  11  14
ENDBRANCH   1  13
TORSDOF 4
ENDMDL
MODEL 5
REMARK VINA RESULT:      -6.0     27.973     30.118
REMARK  Name = 
REMARK  4 active torsions:
REMARK  status: ('A' for Active; 'I' for Inactive)
REMARK    1  A    between atoms: C_2  and  O_5
REMARK    2  A    between atoms: O_5  and  C_6
REMARK    3  A    between atoms: N_8  and  N_9
REMARK    4  A    between atoms: N_9  and  C_10
REMARK                            x       y       z     vdW  Elec       q    Type
REMARK                         _______ _______ _______ _____ _____    ______ ____
ROOT
ATOM      1  N   UNL     1      30.183  20.728  10.574  0.00  0.00    +0.000 NA
ENDROOT
BRANCH   1   2
ATOM      2  C   UNL     1      29.789  21.672  11.562  0.00  0.00    +0.000 C 
ATOM      3  C   UNL     1      30.638  22.126  12.487  0.00  0.00    +0.000 C 
ATOM      4  C   UNL     1      29.946  23.100  13.383  0.00  0.00    +0.000 C 
ATOM      5  C   UNL     1      28.562  23.160  12.863  0.00  0.00    +0.000 A 
ATOM      6  C   UNL     1      27.472  23.879  13.277  0.00  0.00    +0.000 A 
ATOM      7  C   UNL     1      26.275  23.720  12.567  0.00  0.00    +0.000 A 
ATOM      8  C   UNL     1      26.189  22.881  11.500  0.00  0.00    +0.000 A 
ATOM      9  C   UNL     1      27.319  22.166  11.108  0.00  0.00    +0.000 A 
ATOM     10  C   UNL     1      28.488  22.309  11.786  0.00  0.00    +0.000 A 
ENDBRANCH   1   2
BRANCH   1  13
ATOM     11  C   UNL     1      32.513  20.685   9.722  0.00  0.00    +0.000 C 
ATOM     12  O   UNL     1      32.809  19.859  10.620  0.00  0.00    +0.000 OA
ATOM     13  N   UNL     1      31.173  21.148   9.676  0.00  0.00    +0.000 NA
BRANCH  11  14
ATOM     14  O   UNL     1      33.400  21.168   8.784  0.00  0.00    +0.000 OA
BRANCH  14  16
ATOM     15  C   UNL     1      35.511  22.211   8.739  0.00  0.00    +0.000 C 
ATOM     16  C   UNL     1      34.039  22.414   9.003  0.00  0.00    +0.000 C 
ATOM     17  C   UNL     1      33.419  23.397   8.011  0.00  0.00    +0.000 C 
ATOM     18  C   UNL     1      33.835  22.847  10.428  0.00  0.00    +0.000 C 
ENDBRANCH  14  16
ENDBRANCH  11  14
ENDBRANCH   1  13
TORSDOF 4
ENDMDL
MODEL 6
REMARK VINA RESULT:      -6.0      3.246      5.134
REMARK  Name = 
REMARK  4 active torsions:
REMARK  status: ('A' for Active; 'I' for Inactive)
REMARK    1  A    between atoms: C_2  and  O_5
REMARK    2  A    between atoms: O_5  and  C_6
REMARK    3  A    between atoms: N_8  and  N_9
REMARK    4  A    between atoms: N_9  and  C_10
REMARK                            x       y       z     vdW  Elec       q    Type
REMARK                         _______ _______ _______ _____ _____    ______ ____
ROOT
ATOM      1  N   UNL     1      17.023  11.432  37.631  0.00  0.00    +0.000 NA
ENDROOT
BRANCH   1   2
ATOM      2  C   UNL     1      15.772  11.806  37.068  0.00  0.00    +0.000 C 
ATOM      3  C   UNL     1      15.687  12.575  35.979  0.00  0.00    +0.000 C 
ATOM      4  C   UNL     1      14.254  12.800  35.623  0.00  0.00    +0.000 C 
ATOM      5  C   UNL     1      13.496  12.057  36.654  0.00  0.00    +0.000 A 
ATOM      6  C   UNL     1      12.150  11.897  36.846  0.00  0.00    +0.000 A 
ATOM      7  C   UNL     1      11.731  11.120  37.933  0.00  0.00    +0.000 A 
ATOM      8  C   UNL     1      12.626  10.540  38.777  0.00  0.00    +0.000 A 
ATOM      9  C   UNL     1      13.988  10.725  38.551  0.00  0.00    +0.000 A 
ATOM     10  C   UNL     1      14.411  11.476  37.500  0.00  0.00    +0.000 A 
ENDBRANCH   1   2
BRANCH   1  13
ATOM     11  C   UNL     1      18.077   9.778  39.152  0.00  0.00    +0.000 C 
ATOM     12  O   UNL     1      18.934  10.639  39.468  0.00  0.00    +0.000 OA
ATOM     13  N   UNL     1      17.085  10.158  38.212  0.00  0.00    +0.000 NA
BRANCH  11  14
ATOM     14  O   UNL     1      18.038   8.496  39.657  0.00  0.00    +0.000 OA
BRANCH  14  16
ATOM     15  C   UNL     1      17.110   6.800  41.001  0.00  0.00    +0.000 C 
ATOM     16  C   UNL     1      17.467   8.265  40.933  0.00  0.00    +0.000 C 
ATOM     17  C   UNL     1      18.538   8.632  41.958  0.00  0.00    +0.000 C 
ATOM     18  C   UNL     1      16.225   9.097  41.093  0.00  0.00    +0.000 C 
ENDBRANCH  14  16
ENDBRANCH  11  14
ENDBRANCH   1  13
TORSDOF 4
ENDMDL
MODEL 7
REMARK VINA RESULT:      -5.9     28.517     30.159
REMARK  Name = 
REMARK  4 active torsions:
REMARK  status: ('A' for Active; 'I' for Inactive)
REMARK    1  A    between atoms: C_2  and  O_5
REMARK    2  A    between atoms: O_5  and  C_6
REMARK    3  A    between atoms: N_8  and  N_9
REMARK    4  A    between atoms: N_9  and  C_10
REMARK                            x       y       z     vdW  Elec       q    Type
REMARK                         _______ _______ _______ _____ _____    ______ ____
ROOT
ATOM      1  N   UNL     1      35.365  19.062  12.410  0.00  0.00    +0.000 NA
ENDROOT
BRANCH   1   2
ATOM      2  C   UNL     1      36.216  19.030  13.549  0.00  0.00    +0.000 C 
ATOM      3  C   UNL     1      37.127  19.978  13.780  0.00  0.00    +0.000 C 
ATOM      4  C   UNL     1      37.868  19.679  15.042  0.00  0.00    +0.000 C 
ATOM      5  C   UNL     1      37.270  18.417  15.531  0.00  0.00    +0.000 A 
ATOM      6  C   UNL     1      37.539  17.660  16.640  0.00  0.00    +0.000 A 
ATOM      7  C   UNL     1      36.789  16.494  16.835  0.00  0.00    +0.000 A 
ATOM      8  C   UNL     1      35.822  16.118  15.956  0.00  0.00    +0.000 A 
ATOM      9  C   UNL     1      35.575  16.914  14.838  0.00  0.00    +0.000 A 
ATOM     10  C   UNL     1      36.295  18.049  14.635  0.00  0.00    +0.000 A 
ENDBRANCH   1   2
BRANCH   1  13
ATOM     11  C   UNL     1      33.632  20.376  11.215  0.00  0.00    +0.000 C 
ATOM     12  O   UNL     1      33.702  19.566  10.258  0.00  0.00    +0.000 OA
ATOM     13  N   UNL     1      34.475  20.141  12.332  0.00  0.00    +0.000 NA
BRANCH  11  14
ATOM     14  O   UNL     1      32.796  21.471  11.250  0.00  0.00    +0.000 OA
BRANCH  14  16
ATOM     15  C   UNL     1      30.921  22.563  12.165  0.00  0.00    +0.000 C 
ATOM     16  C   UNL     1      31.418  21.289  11.525  0.00  0.00    +0.000 C 
ATOM     17  C   UNL     1      30.739  21.031  10.181  0.00  0.00    +0.000 C 
ATOM     18  C   UNL     1      31.236  20.140  12.478  0.00  0.00    +0.000 C 
ENDBRANCH  14  16
ENDBRANCH  11  14
ENDBRANCH   1  13
TORSDOF 4
ENDMDL
MODEL 8
REMARK VINA RESULT:      -5.9      1.805      6.884
REMARK  Name = 
REMARK  4 active torsions:
REMARK  status: ('A' for Active; 'I' for Inactive)
REMARK    1  A    between atoms: C_2  and  O_5
REMARK    2  A    between atoms: O_5  and  C_6
REMARK    3  A    between atoms: N_8  and  N_9
REMARK    4  A    between atoms: N_9  and  C_10
REMARK                            x       y       z     vdW  Elec       q    Type
REMARK                         _______ _______ _______ _____ _____    ______ ____
ROOT
ATOM      1  N   UNL     1      16.320  11.576  35.847  0.00  0.00    +0.000 NA
ENDROOT
BRANCH   1   2
ATOM      2  C   UNL     1      17.393  11.797  36.753  0.00  0.00    +0.000 C 
ATOM      3  C   UNL     1      17.929  13.006  36.937  0.00  0.00    +0.000 C 
ATOM      4  C   UNL     1      19.032  12.930  37.941  0.00  0.00    +0.000 C 
ATOM      5  C   UNL     1      19.079  11.502  38.329  0.00  0.00    +0.000 A 
ATOM      6  C   UNL     1      19.885  10.833  39.211  0.00  0.00    +0.000 A 
ATOM      7  C   UNL     1      19.684   9.456  39.365  0.00  0.00    +0.000 A 
ATOM      8  C   UNL     1      18.722   8.797  38.666  0.00  0.00    +0.000 A 
ATOM      9  C   UNL     1      17.920   9.511  37.777  0.00  0.00    +0.000 A 
ATOM     10  C   UNL     1      18.103  10.849  37.616  0.00  0.00    +0.000 A 
ENDBRANCH   1   2
BRANCH   1  13
ATOM     11  C   UNL     1      16.194  11.385  33.375  0.00  0.00    +0.000 C 
ATOM     12  O   UNL     1      15.792  10.203  33.504  0.00  0.00    +0.000 OA
ATOM     13  N   UNL     1      16.473  12.113  34.561  0.00  0.00    +0.000 NA
BRANCH  11  14
ATOM     14  O   UNL     1      16.381  12.018  32.166  0.00  0.00    +0.000 OA
BRANCH  14  16
ATOM     15  C   UNL     1      15.772  13.479  30.422  0.00  0.00    +0.000 C 
ATOM     16  C   UNL     1      15.258  12.497  31.447  0.00  0.00    +0.000 C 
ATOM     17  C   UNL     1      14.615  11.278  30.787  0.00  0.00    +0.000 C 
ATOM     18  C   UNL     1      14.312  13.194  32.385  0.00  0.00    +0.000 C 
ENDBRANCH  14  16
ENDBRANCH  11  14
ENDBRANCH   1  13
TORSDOF 4
ENDMDL
MODEL 9
REMARK VINA RESULT:      -5.8      1.798      2.624
REMARK  Name = 
REMARK  4 active torsions:
REMARK  status: ('A' for Active; 'I' for Inactive)
REMARK    1  A    between atoms: C_2  and  O_5
REMARK    2  A    between atoms: O_5  and  C_6
REMARK    3  A    between atoms: N_8  and  N_9
REMARK    4  A    between atoms: N_9  and  C_10
REMARK                            x       y       z     vdW  Elec       q    Type
REMARK                         _______ _______ _______ _____ _____    ______ ____
ROOT
ATOM      1  N   UNL     1      16.588  10.511  35.960  0.00  0.00    +0.000 NA
ENDROOT
BRANCH   1   2
ATOM      2  C   UNL     1      15.822  11.417  35.176  0.00  0.00    +0.000 C 
ATOM      3  C   UNL     1      15.106  12.401  35.727  0.00  0.00    +0.000 C 
ATOM      4  C   UNL     1      14.411  13.186  34.663  0.00  0.00    +0.000 C 
ATOM      5  C   UNL     1      14.812  12.529  33.399  0.00  0.00    +0.000 A 
ATOM      6  C   UNL     1      14.490  12.805  32.097  0.00  0.00    +0.000 A 
ATOM      7  C   UNL     1      15.039  11.988  31.101  0.00  0.00    +0.000 A 
ATOM      8  C   UNL     1      15.865  10.952  31.407  0.00  0.00    +0.000 A 
ATOM      9  C   UNL     1      16.171  10.702  32.744  0.00  0.00    +0.000 A 
ATOM     10  C   UNL     1      15.647  11.486  33.723  0.00  0.00    +0.000 A 
ENDBRANCH   1   2
BRANCH   1  13
ATOM     11  C   UNL     1      18.782  10.130  37.055  0.00  0.00    +0.000 C 
ATOM     12  O   UNL     1      18.378   9.003  37.434  0.00  0.00    +0.000 OA
ATOM     13  N   UNL     1      17.883  10.925  36.297  0.00  0.00    +0.000 NA
BRANCH  11  14
ATOM     14  O   UNL     1      20.032  10.642  37.326  0.00  0.00    +0.000 OA
BRANCH  14  16
ATOM     15  C   UNL     1      19.385  10.704  39.589  0.00  0.00    +0.000 C 
ATOM     16  C   UNL     1      20.252  11.348  38.534  0.00  0.00    +0.000 C 
ATOM     17  C   UNL     1      21.737  11.199  38.858  0.00  0.00    +0.000 C 
ATOM     18  C   UNL     1      19.854  12.788  38.362  0.00  0.00    +0.000 C 
ENDBRANCH  14  16
ENDBRANCH  11  14
ENDBRANCH   1  13
TORSDOF 4
ENDMDL
MODEL 10
REMARK VINA RESULT:      -5.8     21.116     22.882
REMARK  Name = 
REMARK  4 active torsions:
REMARK  status: ('A' for Active; 'I' for Inactive)
REMARK    1  A    between atoms: C_2  and  O_5
REMARK    2  A    between atoms: O_5  and  C_6
REMARK    3  A    between atoms: N_8  and  N_9
REMARK    4  A    between atoms: N_9  and  C_10
REMARK                            x       y       z     vdW  Elec       q    Type
REMARK                         _______ _______ _______ _____ _____    ______ ____
ROOT
ATOM      1  N   UNL     1      16.996  -7.507  27.078  0.00  0.00    +0.000 NA
ENDROOT
BRANCH   1   2
ATOM      2  C   UNL     1      18.152  -6.817  26.619  0.00  0.00    +0.000 C 
ATOM      3  C   UNL     1      18.238  -5.485  26.642  0.00  0.00    +0.000 C 
ATOM      4  C   UNL     1      19.560  -5.048  26.100  0.00  0.00    +0.000 C 
ATOM      5  C   UNL     1      20.250  -6.310  25.750  0.00  0.00    +0.000 A 
ATOM      6  C   UNL     1      21.488  -6.543  25.214  0.00  0.00    +0.000 A 
ATOM      7  C   UNL     1      21.866  -7.873  24.994  0.00  0.00    +0.000 A 
ATOM      8  C   UNL     1      21.036  -8.906  25.299  0.00  0.00    +0.000 A 
ATOM      9  C   UNL     1      19.783  -8.631  25.844  0.00  0.00    +0.000 A 
ATOM     10  C   UNL     1      19.402  -7.345  26.064  0.00  0.00    +0.000 A 
ENDBRANCH   1   2
BRANCH   1  13
ATOM     11  C   UNL     1      15.580  -8.386  25.239  0.00  0.00    +0.000 C 
ATOM     12  O   UNL     1      16.395  -9.328  25.084  0.00  0.00    +0.000 OA
ATOM     13  N   UNL     1      15.864  -7.437  26.255  0.00  0.00    +0.000 NA
BRANCH  11  14
ATOM     14  O   UNL     1      14.435  -8.215  24.492  0.00  0.00    +0.000 OA
BRANCH  14  16
ATOM     15  C   UNL     1      12.738  -8.300  26.124  0.00  0.00    +0.000 C 
ATOM     16  C   UNL     1      13.257  -8.918  24.847  0.00  0.00    +0.000 C 
ATOM     17  C   UNL     1      12.276  -8.730  23.691  0.00  0.00    +0.000 C 
ATOM     18  C   UNL     1      13.581 -10.367  25.082  0.00  0.00    +0.000 C 
ENDBRANCH  14  16
ENDBRANCH  11  14
ENDBRANCH   1  13
TORSDOF 4
ENDMDL
