MODEL 1
REMARK VINA RESULT:      -7.4      0.000      0.000
REMARK  Name = 
REMARK  7 active torsions:
REMARK  status: ('A' for Active; 'I' for Inactive)
REMARK    1  A    between atoms: C_2  and  O_3
REMARK    2  A    between atoms: O_3  and  C_4
REMARK    3  A    between atoms: C_5  and  O_6
REMARK    4  A    between atoms: C_11  and  C_12
REMARK    5  A    between atoms: C_22  and  O_23
REMARK    6  A    between atoms: O_23  and  C_24
REMARK    7  A    between atoms: C_24  and  C_25
REMARK                            x       y       z     vdW  Elec       q    Type
REMARK                         _______ _______ _______ _____ _____    ______ ____
ROOT
ATOM      1  C   UNL     1      38.141   2.750  13.770  0.00  0.00    +0.000 C 
ATOM      2  N   UNL     1      39.639   2.636  13.214  0.00  0.00    +0.000 NA
ATOM      3  C   UNL     1      39.870   3.928  12.594  0.00  0.00    +0.000 C 
ATOM      4  C   UNL     1      39.967   5.025  13.633  0.00  0.00    +0.000 C 
ATOM      5  C   UNL     1      39.367   4.604  14.921  0.00  0.00    +0.000 A 
ATOM      6  C   UNL     1      38.517   3.566  15.065  0.00  0.00    +0.000 A 
ATOM      7  N   UNL     1      38.162   3.447  16.321  0.00  0.00    +0.000 NA
ATOM      8  C   UNL     1      38.777   4.415  17.040  0.00  0.00    +0.000 A 
ATOM      9  C   UNL     1      38.763   4.743  18.363  0.00  0.00    +0.000 A 
ATOM     10  C   UNL     1      39.519   5.813  18.795  0.00  0.00    +0.000 A 
ATOM     11  C   UNL     1      40.290   6.568  17.960  0.00  0.00    +0.000 A 
ATOM     12  C   UNL     1      40.299   6.227  16.613  0.00  0.00    +0.000 A 
ATOM     13  C   UNL     1      39.551   5.170  16.183  0.00  0.00    +0.000 A 
ENDROOT
BRANCH   1  19
ATOM     14  C   UNL     1      36.911   0.756  14.733  0.00  0.00    +0.000 A 
ATOM     15  C   UNL     1      36.854  -0.519  15.306  0.00  0.00    +0.000 A 
ATOM     16  C   UNL     1      38.046  -1.161  15.525  0.00  0.00    +0.000 A 
ATOM     17  C   UNL     1      39.270  -0.625  15.213  0.00  0.00    +0.000 A 
ATOM     18  C   UNL     1      39.286   0.630  14.652  0.00  0.00    +0.000 A 
ATOM     19  C   UNL     1      38.149   1.278  14.427  0.00  0.00    +0.000 A 
BRANCH  15  20
ATOM     20  O   UNL     1      35.674  -1.123  15.644  0.00  0.00    +0.000 OA
ATOM     21  C   UNL     1      35.254  -1.416  16.936  0.00  0.00    +0.000 C 
ENDBRANCH  15  20
BRANCH  14  22
ATOM     22  O   UNL     1      35.715   1.410  14.509  0.00  0.00    +0.000 OA
BRANCH  22  24
ATOM     23  C   UNL     1      34.636   3.503  15.143  0.00  0.00    +0.000 C 
ATOM     24  C   UNL     1      35.050   2.107  15.548  0.00  0.00    +0.000 C 
ENDBRANCH  22  24
ENDBRANCH  14  22
ENDBRANCH   1  19
BRANCH  11  25
ATOM     25  O   UNL     1      41.055   7.637  18.354  0.00  0.00    +0.000 OA
BRANCH  25  26
ATOM     26  C   UNL     1      41.317   7.894  19.700  0.00  0.00    +0.000 C 
BRANCH  26  27
ATOM     27  C   UNL     1      42.590   7.230  20.081  0.00  0.00    +0.000 A 
ATOM     28  C   UNL     1      43.779   7.519  19.420  0.00  0.00    +0.000 A 
ATOM     29  C   UNL     1      44.958   6.908  19.776  0.00  0.00    +0.000 A 
ATOM     30  C   UNL     1      44.992   5.976  20.815  0.00  0.00    +0.000 A 
ATOM     31  C   UNL     1      43.817   5.695  21.463  0.00  0.00    +0.000 A 
ATOM     32  C   UNL     1      42.640   6.306  21.107  0.00  0.00    +0.000 A 
ENDBRANCH  26  27
ENDBRANCH  25  26
ENDBRANCH  11  25
TORSDOF 7
ENDMDL
MODEL 2
REMARK VINA RESULT:      -7.4     24.645     27.193
REMARK  Name = 
REMARK  7 active torsions:
REMARK  status: ('A' for Active; 'I' for Inactive)
REMARK    1  A    between atoms: C_2  and  O_3
REMARK    2  A    between atoms: O_3  and  C_4
REMARK    3  A    between atoms: C_5  and  O_6
REMARK    4  A    between atoms: C_11  and  C_12
REMARK    5  A    between atoms: C_22  and  O_23
REMARK    6  A    between atoms: O_23  and  C_24
REMARK    7  A    between atoms: C_24  and  C_25
REMARK                            x       y       z     vdW  Elec       q    Type
REMARK                         _______ _______ _______ _____ _____    ______ ____
ROOT
ATOM      1  C   UNL     1      27.744  17.071  35.270  0.00  0.00    +0.000 C 
ATOM      2  N   UNL     1      28.767  15.948  34.765  0.00  0.00    +0.000 NA
ATOM      3  C   UNL     1      29.912  16.113  35.640  0.00  0.00    +0.000 C 
ATOM      4  C   UNL     1      29.590  15.678  37.054  0.00  0.00    +0.000 C 
ATOM      5  C   UNL     1      28.126  15.635  37.285  0.00  0.00    +0.000 A 
ATOM      6  C   UNL     1      27.212  16.252  36.507  0.00  0.00    +0.000 A 
ATOM      7  N   UNL     1      26.005  16.027  36.969  0.00  0.00    +0.000 NA
ATOM      8  C   UNL     1      26.100  15.250  38.073  0.00  0.00    +0.000 A 
ATOM      9  C   UNL     1      25.174  14.729  38.927  0.00  0.00    +0.000 A 
ATOM     10  C   UNL     1      25.602  13.955  39.985  0.00  0.00    +0.000 A 
ATOM     11  C   UNL     1      26.916  13.680  40.227  0.00  0.00    +0.000 A 
ATOM     12  C   UNL     1      27.853  14.215  39.352  0.00  0.00    +0.000 A 
ATOM     13  C   UNL     1      27.434  14.981  38.305  0.00  0.00    +0.000 A 
ENDROOT
BRANCH   1  19
ATOM     14  C   UNL     1      25.626  17.616  33.990  0.00  0.00    +0.000 A 
ATOM     15  C   UNL     1      24.599  17.315  33.089  0.00  0.00    +0.000 A 
ATOM     16  C   UNL     1      24.628  16.079  32.496  0.00  0.00    +0.000 A 
ATOM     17  C   UNL     1      25.598  15.139  32.739  0.00  0.00    +0.000 A 
ATOM     18  C   UNL     1      26.591  15.470  33.631  0.00  0.00    +0.000 A 
ATOM     19  C   UNL     1      26.591  16.659  34.221  0.00  0.00    +0.000 A 
BRANCH  15  20
ATOM     20  O   UNL     1      23.598  18.198  32.793  0.00  0.00    +0.000 OA
ATOM     21  C   UNL     1      23.610  19.119  31.752  0.00  0.00    +0.000 C 
ENDBRANCH  15  20
BRANCH  14  22
ATOM     22  O   UNL     1      25.605  18.858  34.592  0.00  0.00    +0.000 OA
BRANCH  22  24
ATOM     23  C   UNL     1      23.934  20.394  35.484  0.00  0.00    +0.000 C 
ATOM     24  C   UNL     1      24.746  19.135  35.684  0.00  0.00    +0.000 C 
ENDBRANCH  22  24
ENDBRANCH  14  22
ENDBRANCH   1  19
BRANCH  11  25
ATOM     25  O   UNL     1      27.378  12.914  41.268  0.00  0.00    +0.000 OA
BRANCH  25  26
ATOM     26  C   UNL     1      26.864  11.642  41.525  0.00  0.00    +0.000 C 
BRANCH  26  27
ATOM     27  C   UNL     1      27.950  10.641  41.367  0.00  0.00    +0.000 A 
ATOM     28  C   UNL     1      27.894   9.411  42.014  0.00  0.00    +0.000 A 
ATOM     29  C   UNL     1      28.896   8.482  41.864  0.00  0.00    +0.000 A 
ATOM     30  C   UNL     1      30.002   8.751  41.055  0.00  0.00    +0.000 A 
ATOM     31  C   UNL     1      30.051   9.965  40.420  0.00  0.00    +0.000 A 
ATOM     32  C   UNL     1      29.049  10.892  40.570  0.00  0.00    +0.000 A 
ENDBRANCH  26  27
ENDBRANCH  25  26
ENDBRANCH  11  25
TORSDOF 7
ENDMDL
MODEL 3
REMARK VINA RESULT:      -7.2     26.097     28.885
REMARK  Name = 
REMARK  7 active torsions:
REMARK  status: ('A' for Active; 'I' for Inactive)
REMARK    1  A    between atoms: C_2  and  O_3
REMARK    2  A    between atoms: O_3  and  C_4
REMARK    3  A    between atoms: C_5  and  O_6
REMARK    4  A    between atoms: C_11  and  C_12
REMARK    5  A    between atoms: C_22  and  O_23
REMARK    6  A    between atoms: O_23  and  C_24
REMARK    7  A    between atoms: C_24  and  C_25
REMARK                            x       y       z     vdW  Elec       q    Type
REMARK                         _______ _______ _______ _____ _____    ______ ____
ROOT
ATOM      1  C   UNL     1      27.884  12.332  41.348  0.00  0.00    +0.000 C 
ATOM      2  N   UNL     1      28.648  13.499  42.135  0.00  0.00    +0.000 NA
ATOM      3  C   UNL     1      29.736  13.854  41.242  0.00  0.00    +0.000 C 
ATOM      4  C   UNL     1      29.221  14.550  40.000  0.00  0.00    +0.000 C 
ATOM      5  C   UNL     1      27.777  14.292  39.796  0.00  0.00    +0.000 A 
ATOM      6  C   UNL     1      27.089  13.289  40.382  0.00  0.00    +0.000 A 
ATOM      7  N   UNL     1      25.835  13.324  40.003  0.00  0.00    +0.000 NA
ATOM      8  C   UNL     1      25.666  14.361  39.150  0.00  0.00    +0.000 A 
ATOM      9  C   UNL     1      24.586  14.844  38.473  0.00  0.00    +0.000 A 
ATOM     10  C   UNL     1      24.745  15.947  37.661  0.00  0.00    +0.000 A 
ATOM     11  C   UNL     1      25.937  16.589  37.497  0.00  0.00    +0.000 A 
ATOM     12  C   UNL     1      27.033  16.091  38.191  0.00  0.00    +0.000 A 
ATOM     13  C   UNL     1      26.880  14.999  38.993  0.00  0.00    +0.000 A 
ENDROOT
BRANCH   1  19
ATOM     14  C   UNL     1      25.974  11.021  42.374  0.00  0.00    +0.000 A 
ATOM     15  C   UNL     1      24.967  10.817  43.324  0.00  0.00    +0.000 A 
ATOM     16  C   UNL     1      24.818  11.775  44.294  0.00  0.00    +0.000 A 
ATOM     17  C   UNL     1      25.595  12.903  44.378  0.00  0.00    +0.000 A 
ATOM     18  C   UNL     1      26.574  13.070  43.427  0.00  0.00    +0.000 A 
ATOM     19  C   UNL     1      26.743  12.160  42.475  0.00  0.00    +0.000 A 
BRANCH  15  20
ATOM     20  O   UNL     1      24.153   9.719  43.310  0.00  0.00    +0.000 OA
ATOM     21  C   UNL     1      23.802   8.955  44.418  0.00  0.00    +0.000 C 
ENDBRANCH  15  20
BRANCH  14  22
ATOM     22  O   UNL     1      26.132  10.061  41.393  0.00  0.00    +0.000 OA
BRANCH  22  24
ATOM     23  C   UNL     1      26.494   7.695  41.859  0.00  0.00    +0.000 C 
ATOM     24  C   UNL     1      27.101   9.035  41.513  0.00  0.00    +0.000 C 
ENDBRANCH  22  24
ENDBRANCH  14  22
ENDBRANCH   1  19
BRANCH  11  25
ATOM     25  O   UNL     1      26.132  17.690  36.700  0.00  0.00    +0.000 OA
BRANCH  25  26
ATOM     26  C   UNL     1      26.937  17.636  35.561  0.00  0.00    +0.000 C 
BRANCH  26  27
ATOM     27  C   UNL     1      26.289  16.762  34.550  0.00  0.00    +0.000 A 
ATOM     28  C   UNL     1      26.599  15.409  34.463  0.00  0.00    +0.000 A 
ATOM     29  C   UNL     1      25.996  14.599  33.531  0.00  0.00    +0.000 A 
ATOM     30  C   UNL     1      25.052  15.117  32.642  0.00  0.00    +0.000 A 
ATOM     31  C   UNL     1      24.750  16.450  32.732  0.00  0.00    +0.000 A 
ATOM     32  C   UNL     1      25.353  17.259  33.664  0.00  0.00    +0.000 A 
ENDBRANCH  26  27
ENDBRANCH  25  26
ENDBRANCH  11  25
TORSDOF 7
ENDMDL
MODEL 4
REMARK VINA RESULT:      -7.1      1.502      2.104
REMARK  Name = 
REMARK  7 active torsions:
REMARK  status: ('A' for Active; 'I' for Inactive)
REMARK    1  A    between atoms: C_2  and  O_3
REMARK    2  A    between atoms: O_3  and  C_4
REMARK    3  A    between atoms: C_5  and  O_6
REMARK    4  A    between atoms: C_11  and  C_12
REMARK    5  A    between atoms: C_22  and  O_23
REMARK    6  A    between atoms: O_23  and  C_24
REMARK    7  A    between atoms: C_24  and  C_25
REMARK                            x       y       z     vdW  Elec       q    Type
REMARK                         _______ _______ _______ _____ _____    ______ ____
ROOT
ATOM      1  C   UNL     1      36.960   2.456  14.260  0.00  0.00    +0.000 C 
ATOM      2  N   UNL     1      37.910   3.043  13.113  0.00  0.00    +0.000 NA
ATOM      3  C   UNL     1      37.231   4.256  12.697  0.00  0.00    +0.000 C 
ATOM      4  C   UNL     1      37.292   5.317  13.775  0.00  0.00    +0.000 C 
ATOM      5  C   UNL     1      37.605   4.725  15.097  0.00  0.00    +0.000 A 
ATOM      6  C   UNL     1      37.478   3.415  15.398  0.00  0.00    +0.000 A 
ATOM      7  N   UNL     1      37.831   3.204  16.642  0.00  0.00    +0.000 NA
ATOM      8  C   UNL     1      38.203   4.382  17.195  0.00  0.00    +0.000 A 
ATOM      9  C   UNL     1      38.650   4.729  18.435  0.00  0.00    +0.000 A 
ATOM     10  C   UNL     1      38.954   6.050  18.691  0.00  0.00    +0.000 A 
ATOM     11  C   UNL     1      38.830   7.039  17.759  0.00  0.00    +0.000 A 
ATOM     12  C   UNL     1      38.374   6.677  16.498  0.00  0.00    +0.000 A 
ATOM     13  C   UNL     1      38.072   5.372  16.242  0.00  0.00    +0.000 A 
ENDROOT
BRANCH   1  19
ATOM     14  C   UNL     1      37.302   0.102  15.132  0.00  0.00    +0.000 A 
ATOM     15  C   UNL     1      38.085  -1.019  15.429  0.00  0.00    +0.000 A 
ATOM     16  C   UNL     1      39.424  -0.941  15.142  0.00  0.00    +0.000 A 
ATOM     17  C   UNL     1      40.023   0.163  14.588  0.00  0.00    +0.000 A 
ATOM     18  C   UNL     1      39.221   1.245  14.310  0.00  0.00    +0.000 A 
ATOM     19  C   UNL     1      37.921   1.200  14.576  0.00  0.00    +0.000 A 
BRANCH  15  20
ATOM     20  O   UNL     1      37.564  -2.156  15.980  0.00  0.00    +0.000 OA
ATOM     21  C   UNL     1      37.871  -2.661  17.239  0.00  0.00    +0.000 C 
ENDBRANCH  15  20
BRANCH  14  22
ATOM     22  O   UNL     1      35.952   0.033  15.417  0.00  0.00    +0.000 OA
BRANCH  22  24
ATOM     23  C   UNL     1      34.555  -0.797  17.235  0.00  0.00    +0.000 C 
ATOM     24  C   UNL     1      35.459   0.299  16.718  0.00  0.00    +0.000 C 
ENDBRANCH  22  24
ENDBRANCH  14  22
ENDBRANCH   1  19
BRANCH  11  25
ATOM     25  O   UNL     1      39.124   8.362  17.978  0.00  0.00    +0.000 OA
BRANCH  25  26
ATOM     26  C   UNL     1      40.337   8.919  17.570  0.00  0.00    +0.000 C 
BRANCH  26  27
ATOM     27  C   UNL     1      41.447   8.248  18.294  0.00  0.00    +0.000 A 
ATOM     28  C   UNL     1      41.598   8.388  19.669  0.00  0.00    +0.000 A 
ATOM     29  C   UNL     1      42.622   7.763  20.339  0.00  0.00    +0.000 A 
ATOM     30  C   UNL     1      43.542   6.967  19.653  0.00  0.00    +0.000 A 
ATOM     31  C   UNL     1      43.387   6.833  18.298  0.00  0.00    +0.000 A 
ATOM     32  C   UNL     1      42.364   7.457  17.629  0.00  0.00    +0.000 A 
ENDBRANCH  26  27
ENDBRANCH  25  26
ENDBRANCH  11  25
TORSDOF 7
ENDMDL
MODEL 5
REMARK VINA RESULT:      -7.1      2.839      5.115
REMARK  Name = 
REMARK  7 active torsions:
REMARK  status: ('A' for Active; 'I' for Inactive)
REMARK    1  A    between atoms: C_2  and  O_3
REMARK    2  A    between atoms: O_3  and  C_4
REMARK    3  A    between atoms: C_5  and  O_6
REMARK    4  A    between atoms: C_11  and  C_12
REMARK    5  A    between atoms: C_22  and  O_23
REMARK    6  A    between atoms: O_23  and  C_24
REMARK    7  A    between atoms: C_24  and  C_25
REMARK                            x       y       z     vdW  Elec       q    Type
REMARK                         _______ _______ _______ _____ _____    ______ ____
ROOT
ATOM      1  C   UNL     1      36.085   3.897  14.166  0.00  0.00    +0.000 C 
ATOM      2  N   UNL     1      34.992   3.653  15.311  0.00  0.00    +0.000 NA
ATOM      3  C   UNL     1      35.525   2.525  16.054  0.00  0.00    +0.000 C 
ATOM      4  C   UNL     1      36.763   2.917  16.833  0.00  0.00    +0.000 C 
ATOM      5  C   UNL     1      37.362   4.165  16.302  0.00  0.00    +0.000 A 
ATOM      6  C   UNL     1      37.099   4.680  15.083  0.00  0.00    +0.000 A 
ATOM      7  N   UNL     1      37.781   5.786  14.908  0.00  0.00    +0.000 NA
ATOM      8  C   UNL     1      38.515   6.026  16.019  0.00  0.00    +0.000 A 
ATOM      9  C   UNL     1      39.383   7.019  16.365  0.00  0.00    +0.000 A 
ATOM     10  C   UNL     1      39.985   6.977  17.605  0.00  0.00    +0.000 A 
ATOM     11  C   UNL     1      39.757   5.986  18.514  0.00  0.00    +0.000 A 
ATOM     12  C   UNL     1      38.872   4.978  18.153  0.00  0.00    +0.000 A 
ATOM     13  C   UNL     1      38.275   5.016  16.927  0.00  0.00    +0.000 A 
ENDROOT
BRANCH   1  19
ATOM     14  C   UNL     1      35.667   5.504  12.253  0.00  0.00    +0.000 A 
ATOM     15  C   UNL     1      35.036   6.603  11.660  0.00  0.00    +0.000 A 
ATOM     16  C   UNL     1      34.109   7.275  12.415  0.00  0.00    +0.000 A 
ATOM     17  C   UNL     1      33.775   6.929  13.700  0.00  0.00    +0.000 A 
ATOM     18  C   UNL     1      34.417   5.844  14.250  0.00  0.00    +0.000 A 
ATOM     19  C   UNL     1      35.319   5.172  13.545  0.00  0.00    +0.000 A 
BRANCH  15  20
ATOM     20  O   UNL     1      35.312   7.011  10.385  0.00  0.00    +0.000 OA
ATOM     21  C   UNL     1      34.372   7.391   9.433  0.00  0.00    +0.000 C 
ENDBRANCH  15  20
BRANCH  14  22
ATOM     22  O   UNL     1      36.603   4.821  11.501  0.00  0.00    +0.000 OA
BRANCH  22  24
ATOM     23  C   UNL     1      38.963   4.267  11.763  0.00  0.00    +0.000 C 
ATOM     24  C   UNL     1      37.931   5.297  11.366  0.00  0.00    +0.000 C 
ENDBRANCH  22  24
ENDBRANCH  14  22
ENDBRANCH   1  19
BRANCH  11  25
ATOM     25  O   UNL     1      40.337   5.913  19.756  0.00  0.00    +0.000 OA
BRANCH  25  26
ATOM     26  C   UNL     1      41.021   6.996  20.309  0.00  0.00    +0.000 C 
BRANCH  26  27
ATOM     27  C   UNL     1      42.477   6.705  20.303  0.00  0.00    +0.000 A 
ATOM     28  C   UNL     1      43.086   6.051  21.368  0.00  0.00    +0.000 A 
ATOM     29  C   UNL     1      44.433   5.778  21.360  0.00  0.00    +0.000 A 
ATOM     30  C   UNL     1      45.229   6.151  20.275  0.00  0.00    +0.000 A 
ATOM     31  C   UNL     1      44.624   6.795  19.228  0.00  0.00    +0.000 A 
ATOM     32  C   UNL     1      43.278   7.067  19.237  0.00  0.00    +0.000 A 
ENDBRANCH  26  27
ENDBRANCH  25  26
ENDBRANCH  11  25
TORSDOF 7
ENDMDL
MODEL 6
REMARK VINA RESULT:      -6.8     28.734     31.323
REMARK  Name = 
REMARK  7 active torsions:
REMARK  status: ('A' for Active; 'I' for Inactive)
REMARK    1  A    between atoms: C_2  and  O_3
REMARK    2  A    between atoms: O_3  and  C_4
REMARK    3  A    between atoms: C_5  and  O_6
REMARK    4  A    between atoms: C_11  and  C_12
REMARK    5  A    between atoms: C_22  and  O_23
REMARK    6  A    between atoms: O_23  and  C_24
REMARK    7  A    between atoms: C_24  and  C_25
REMARK                            x       y       z     vdW  Elec       q    Type
REMARK                         _______ _______ _______ _____ _____    ______ ____
ROOT
ATOM      1  C   UNL     1      21.894  15.812  43.030  0.00  0.00    +0.000 C 
ATOM      2  N   UNL     1      20.624  16.525  42.365  0.00  0.00    +0.000 NA
ATOM      3  C   UNL     1      21.025  17.916  42.273  0.00  0.00    +0.000 C 
ATOM      4  C   UNL     1      22.112  18.106  41.237  0.00  0.00    +0.000 C 
ATOM      5  C   UNL     1      22.790  16.826  40.924  0.00  0.00    +0.000 A 
ATOM      6  C   UNL     1      22.736  15.724  41.701  0.00  0.00    +0.000 A 
ATOM      7  N   UNL     1      23.436  14.757  41.157  0.00  0.00    +0.000 NA
ATOM      8  C   UNL     1      23.971  15.207  39.998  0.00  0.00    +0.000 A 
ATOM      9  C   UNL     1      24.765  14.628  39.054  0.00  0.00    +0.000 A 
ATOM     10  C   UNL     1      25.149  15.371  37.957  0.00  0.00    +0.000 A 
ATOM     11  C   UNL     1      24.773  16.668  37.764  0.00  0.00    +0.000 A 
ATOM     12  C   UNL     1      23.963  17.250  38.731  0.00  0.00    +0.000 A 
ATOM     13  C   UNL     1      23.582  16.518  39.817  0.00  0.00    +0.000 A 
ENDROOT
BRANCH   1  19
ATOM     14  C   UNL     1      21.716  13.442  43.909  0.00  0.00    +0.000 A 
ATOM     15  C   UNL     1      21.188  12.147  43.910  0.00  0.00    +0.000 A 
ATOM     16  C   UNL     1      20.229  11.861  42.973  0.00  0.00    +0.000 A 
ATOM     17  C   UNL     1      19.769  12.767  42.050  0.00  0.00    +0.000 A 
ATOM     18  C   UNL     1      20.312  14.030  42.079  0.00  0.00    +0.000 A 
ATOM     19  C   UNL     1      21.242  14.338  42.975  0.00  0.00    +0.000 A 
BRANCH  15  20
ATOM     20  O   UNL     1      21.592  11.187  44.797  0.00  0.00    +0.000 OA
ATOM     21  C   UNL     1      22.110   9.941  44.463  0.00  0.00    +0.000 C 
ENDBRANCH  15  20
BRANCH  14  22
ATOM     22  O   UNL     1      22.683  13.740  44.849  0.00  0.00    +0.000 OA
BRANCH  22  24
ATOM     23  C   UNL     1      24.989  14.419  44.442  0.00  0.00    +0.000 C 
ATOM     24  C   UNL     1      24.018  13.291  44.702  0.00  0.00    +0.000 C 
ENDBRANCH  22  24
ENDBRANCH  14  22
ENDBRANCH   1  19
BRANCH  11  25
ATOM     25  O   UNL     1      25.134  17.437  36.686  0.00  0.00    +0.000 OA
BRANCH  25  26
ATOM     26  C   UNL     1      26.266  17.144  35.924  0.00  0.00    +0.000 C 
BRANCH  26  27
ATOM     27  C   UNL     1      25.853  16.394  34.711  0.00  0.00    +0.000 A 
ATOM     28  C   UNL     1      25.091  16.997  33.716  0.00  0.00    +0.000 A 
ATOM     29  C   UNL     1      24.713  16.304  32.591  0.00  0.00    +0.000 A 
ATOM     30  C   UNL     1      25.086  14.969  32.417  0.00  0.00    +0.000 A 
ATOM     31  C   UNL     1      25.838  14.381  33.400  0.00  0.00    +0.000 A 
ATOM     32  C   UNL     1      26.216  15.074  34.524  0.00  0.00    +0.000 A 
ENDBRANCH  26  27
ENDBRANCH  25  26
ENDBRANCH  11  25
TORSDOF 7
ENDMDL
MODEL 7
REMARK VINA RESULT:      -6.8      2.158      8.311
REMARK  Name = 
REMARK  7 active torsions:
REMARK  status: ('A' for Active; 'I' for Inactive)
REMARK    1  A    between atoms: C_2  and  O_3
REMARK    2  A    between atoms: O_3  and  C_4
REMARK    3  A    between atoms: C_5  and  O_6
REMARK    4  A    between atoms: C_11  and  C_12
REMARK    5  A    between atoms: C_22  and  O_23
REMARK    6  A    between atoms: O_23  and  C_24
REMARK    7  A    between atoms: C_24  and  C_25
REMARK                            x       y       z     vdW  Elec       q    Type
REMARK                         _______ _______ _______ _____ _____    ______ ____
ROOT
ATOM      1  C   UNL     1      39.818   6.054  16.635  0.00  0.00    +0.000 C 
ATOM      2  N   UNL     1      39.788   6.556  15.115  0.00  0.00    +0.000 NA
ATOM      3  C   UNL     1      40.684   5.637  14.437  0.00  0.00    +0.000 C 
ATOM      4  C   UNL     1      40.088   4.248  14.356  0.00  0.00    +0.000 C 
ATOM      5  C   UNL     1      39.002   4.068  15.349  0.00  0.00    +0.000 A 
ATOM      6  C   UNL     1      38.812   4.859  16.426  0.00  0.00    +0.000 A 
ATOM      7  N   UNL     1      37.773   4.445  17.109  0.00  0.00    +0.000 NA
ATOM      8  C   UNL     1      37.250   3.360  16.491  0.00  0.00    +0.000 A 
ATOM      9  C   UNL     1      36.187   2.553  16.768  0.00  0.00    +0.000 A 
ATOM     10  C   UNL     1      35.907   1.502  15.920  0.00  0.00    +0.000 A 
ATOM     11  C   UNL     1      36.644   1.224  14.806  0.00  0.00    +0.000 A 
ATOM     12  C   UNL     1      37.725   2.052  14.531  0.00  0.00    +0.000 A 
ATOM     13  C   UNL     1      38.006   3.091  15.368  0.00  0.00    +0.000 A 
ENDROOT
BRANCH   1  19
ATOM     14  C   UNL     1      38.729   7.378  18.501  0.00  0.00    +0.000 A 
ATOM     15  C   UNL     1      37.824   8.321  19.000  0.00  0.00    +0.000 A 
ATOM     16  C   UNL     1      37.018   8.957  18.091  0.00  0.00    +0.000 A 
ATOM     17  C   UNL     1      37.056   8.720  16.740  0.00  0.00    +0.000 A 
ATOM     18  C   UNL     1      37.958   7.786  16.287  0.00  0.00    +0.000 A 
ATOM     19  C   UNL     1      38.752   7.153  17.142  0.00  0.00    +0.000 A 
BRANCH  15  20
ATOM     20  O   UNL     1      37.726   8.615  20.332  0.00  0.00    +0.000 OA
ATOM     21  C   UNL     1      38.231   9.753  20.950  0.00  0.00    +0.000 C 
ENDBRANCH  15  20
BRANCH  14  22
ATOM     22  O   UNL     1      39.545   6.731  19.409  0.00  0.00    +0.000 OA
BRANCH  22  24
ATOM     23  C   UNL     1      41.707   6.256  20.431  0.00  0.00    +0.000 C 
ATOM     24  C   UNL     1      40.790   7.280  19.804  0.00  0.00    +0.000 C 
ENDBRANCH  22  24
ENDBRANCH  14  22
ENDBRANCH   1  19
BRANCH  11  25
ATOM     25  O   UNL     1      36.394   0.189  13.939  0.00  0.00    +0.000 OA
BRANCH  25  26
ATOM     26  C   UNL     1      37.427  -0.572  13.391  0.00  0.00    +0.000 C 
BRANCH  26  27
ATOM     27  C   UNL     1      37.911  -1.538  14.410  0.00  0.00    +0.000 A 
ATOM     28  C   UNL     1      39.223  -1.502  14.869  0.00  0.00    +0.000 A 
ATOM     29  C   UNL     1      39.670  -2.392  15.816  0.00  0.00    +0.000 A 
ATOM     30  C   UNL     1      38.815  -3.362  16.343  0.00  0.00    +0.000 A 
ATOM     31  C   UNL     1      37.523  -3.392  15.886  0.00  0.00    +0.000 A 
ATOM     32  C   UNL     1      37.077  -2.502  14.941  0.00  0.00    +0.000 A 
ENDBRANCH  26  27
ENDBRANCH  25  26
ENDBRANCH  11  25
TORSDOF 7
ENDMDL
MODEL 8
REMARK VINA RESULT:      -6.8      5.786      9.375
REMARK  Name = 
REMARK  7 active torsions:
REMARK  status: ('A' for Active; 'I' for Inactive)
REMARK    1  A    between atoms: C_2  and  O_3
REMARK    2  A    between atoms: O_3  and  C_4
REMARK    3  A    between atoms: C_5  and  O_6
REMARK    4  A    between atoms: C_11  and  C_12
REMARK    5  A    between atoms: C_22  and  O_23
REMARK    6  A    between atoms: O_23  and  C_24
REMARK    7  A    between atoms: C_24  and  C_25
REMARK                            x       y       z     vdW  Elec       q    Type
REMARK                         _______ _______ _______ _____ _____    ______ ____
ROOT
ATOM      1  C   UNL     1      44.355  -0.550  13.325  0.00  0.00    +0.000 C 
ATOM      2  N   UNL     1      44.074   0.981  13.700  0.00  0.00    +0.000 NA
ATOM      3  C   UNL     1      43.286   1.465  12.581  0.00  0.00    +0.000 C 
ATOM      4  C   UNL     1      41.903   0.849  12.577  0.00  0.00    +0.000 C 
ATOM      5  C   UNL     1      41.859  -0.383  13.400  0.00  0.00    +0.000 A 
ATOM      6  C   UNL     1      42.946  -1.085  13.785  0.00  0.00    +0.000 A 
ATOM      7  N   UNL     1      42.581  -2.121  14.501  0.00  0.00    +0.000 NA
ATOM      8  C   UNL     1      41.232  -2.125  14.603  0.00  0.00    +0.000 A 
ATOM      9  C   UNL     1      40.348  -2.957  15.223  0.00  0.00    +0.000 A 
ATOM     10  C   UNL     1      38.999  -2.681  15.140  0.00  0.00    +0.000 A 
ATOM     11  C   UNL     1      38.496  -1.608  14.465  0.00  0.00    +0.000 A 
ATOM     12  C   UNL     1      39.404  -0.765  13.836  0.00  0.00    +0.000 A 
ATOM     13  C   UNL     1      40.738  -1.036  13.915  0.00  0.00    +0.000 A 
ENDROOT
BRANCH   1  19
ATOM     14  C   UNL     1      46.050  -1.909  14.629  0.00  0.00    +0.000 A 
ATOM     15  C   UNL     1      46.779  -2.224  15.781  0.00  0.00    +0.000 A 
ATOM     16  C   UNL     1      46.554  -1.454  16.894  0.00  0.00    +0.000 A 
ATOM     17  C   UNL     1      45.665  -0.409  16.932  0.00  0.00    +0.000 A 
ATOM     18  C   UNL     1      44.967  -0.130  15.781  0.00  0.00    +0.000 A 
ATOM     19  C   UNL     1      45.162  -0.857  14.687  0.00  0.00    +0.000 A 
BRANCH  15  20
ATOM     20  O   UNL     1      47.684  -3.248  15.824  0.00  0.00    +0.000 OA
ATOM     21  C   UNL     1      47.470  -4.495  16.399  0.00  0.00    +0.000 C 
ENDBRANCH  15  20
BRANCH  14  22
ATOM     22  O   UNL     1      46.269  -2.679  13.503  0.00  0.00    +0.000 OA
BRANCH  22  24
ATOM     23  C   UNL     1      44.823  -3.930  11.990  0.00  0.00    +0.000 C 
ATOM     24  C   UNL     1      45.580  -3.900  13.298  0.00  0.00    +0.000 C 
ENDBRANCH  22  24
ENDBRANCH  14  22
ENDBRANCH   1  19
BRANCH  11  25
ATOM     25  O   UNL     1      37.162  -1.302  14.363  0.00  0.00    +0.000 OA
BRANCH  25  26
ATOM     26  C   UNL     1      36.199  -1.956  15.133  0.00  0.00    +0.000 C 
BRANCH  26  27
ATOM     27  C   UNL     1      36.016  -1.218  16.409  0.00  0.00    +0.000 A 
ATOM     28  C   UNL     1      36.429  -1.760  17.620  0.00  0.00    +0.000 A 
ATOM     29  C   UNL     1      36.264  -1.075  18.800  0.00  0.00    +0.000 A 
ATOM     30  C   UNL     1      35.673   0.190  18.813  0.00  0.00    +0.000 A 
ATOM     31  C   UNL     1      35.267   0.719  17.616  0.00  0.00    +0.000 A 
ATOM     32  C   UNL     1      35.433   0.035  16.437  0.00  0.00    +0.000 A 
ENDBRANCH  26  27
ENDBRANCH  25  26
ENDBRANCH  11  25
TORSDOF 7
ENDMDL
MODEL 9
REMARK VINA RESULT:      -6.7      1.861      2.888
REMARK  Name = 
REMARK  7 active torsions:
REMARK  status: ('A' for Active; 'I' for Inactive)
REMARK    1  A    between atoms: C_2  and  O_3
REMARK    2  A    between atoms: O_3  and  C_4
REMARK    3  A    between atoms: C_5  and  O_6
REMARK    4  A    between atoms: C_11  and  C_12
REMARK    5  A    between atoms: C_22  and  O_23
REMARK    6  A    between atoms: O_23  and  C_24
REMARK    7  A    between atoms: C_24  and  C_25
REMARK                            x       y       z     vdW  Elec       q    Type
REMARK                         _______ _______ _______ _____ _____    ______ ____
ROOT
ATOM      1  C   UNL     1      38.320   3.182  13.821  0.00  0.00    +0.000 C 
ATOM      2  N   UNL     1      39.814   3.066  13.257  0.00  0.00    +0.000 NA
ATOM      3  C   UNL     1      40.072   4.383  12.705  0.00  0.00    +0.000 C 
ATOM      4  C   UNL     1      40.193   5.422  13.799  0.00  0.00    +0.000 C 
ATOM      5  C   UNL     1      39.586   4.947  15.065  0.00  0.00    +0.000 A 
ATOM      6  C   UNL     1      38.714   3.921  15.156  0.00  0.00    +0.000 A 
ATOM      7  N   UNL     1      38.358   3.744  16.405  0.00  0.00    +0.000 NA
ATOM      8  C   UNL     1      38.994   4.660  17.173  0.00  0.00    +0.000 A 
ATOM      9  C   UNL     1      38.988   4.919  18.511  0.00  0.00    +0.000 A 
ATOM     10  C   UNL     1      39.767   5.948  18.996  0.00  0.00    +0.000 A 
ATOM     11  C   UNL     1      40.552   6.730  18.200  0.00  0.00    +0.000 A 
ATOM     12  C   UNL     1      40.553   6.459  16.838  0.00  0.00    +0.000 A 
ATOM     13  C   UNL     1      39.783   5.442  16.355  0.00  0.00    +0.000 A 
ENDROOT
BRANCH   1  19
ATOM     14  C   UNL     1      37.053   1.188  14.737  0.00  0.00    +0.000 A 
ATOM     15  C   UNL     1      36.970  -0.113  15.246  0.00  0.00    +0.000 A 
ATOM     16  C   UNL     1      38.144  -0.811  15.374  0.00  0.00    +0.000 A 
ATOM     17  C   UNL     1      39.374  -0.306  15.034  0.00  0.00    +0.000 A 
ATOM     18  C   UNL     1      39.416   0.976  14.537  0.00  0.00    +0.000 A 
ATOM     19  C   UNL     1      38.297   1.677  14.401  0.00  0.00    +0.000 A 
BRANCH  15  20
ATOM     20  O   UNL     1      35.784  -0.688  15.607  0.00  0.00    +0.000 OA
ATOM     21  C   UNL     1      35.380  -0.967  16.907  0.00  0.00    +0.000 C 
ENDBRANCH  15  20
BRANCH  14  22
ATOM     22  O   UNL     1      35.877   1.899  14.604  0.00  0.00    +0.000 OA
BRANCH  22  24
ATOM     23  C   UNL     1      34.082   3.381  15.328  0.00  0.00    +0.000 C 
ATOM     24  C   UNL     1      35.259   2.518  15.718  0.00  0.00    +0.000 C 
ENDBRANCH  22  24
ENDBRANCH  14  22
ENDBRANCH   1  19
BRANCH  11  25
ATOM     25  O   UNL     1      41.341   7.760  18.648  0.00  0.00    +0.000 OA
BRANCH  25  26
ATOM     26  C   UNL     1      41.191   9.060  18.164  0.00  0.00    +0.000 C 
BRANCH  26  27
ATOM     27  C   UNL     1      40.130   9.748  18.943  0.00  0.00    +0.000 A 
ATOM     28  C   UNL     1      40.059   9.627  20.326  0.00  0.00    +0.000 A 
ATOM     29  C   UNL     1      39.080  10.268  21.047  0.00  0.00    +0.000 A 
ATOM     30  C   UNL     1      38.126  11.060  20.406  0.00  0.00    +0.000 A 
ATOM     31  C   UNL     1      38.201  11.176  19.043  0.00  0.00    +0.000 A 
ATOM     32  C   UNL     1      39.179  10.536  18.323  0.00  0.00    +0.000 A 
ENDBRANCH  26  27
ENDBRANCH  25  26
ENDBRANCH  11  25
TORSDOF 7
ENDMDL
MODEL 10
REMARK VINA RESULT:      -6.5      3.099      3.658
REMARK  Name = 
REMARK  7 active torsions:
REMARK  status: ('A' for Active; 'I' for Inactive)
REMARK    1  A    between atoms: C_2  and  O_3
REMARK    2  A    between atoms: O_3  and  C_4
REMARK    3  A    between atoms: C_5  and  O_6
REMARK    4  A    between atoms: C_11  and  C_12
REMARK    5  A    between atoms: C_22  and  O_23
REMARK    6  A    between atoms: O_23  and  C_24
REMARK    7  A    between atoms: C_24  and  C_25
REMARK                            x       y       z     vdW  Elec       q    Type
REMARK                         _______ _______ _______ _____ _____    ______ ____
ROOT
ATOM      1  C   UNL     1      36.873   1.193  14.192  0.00  0.00    +0.000 C 
ATOM      2  N   UNL     1      37.824   1.530  12.948  0.00  0.00    +0.000 NA
ATOM      3  C   UNL     1      37.089   2.553  12.227  0.00  0.00    +0.000 C 
ATOM      4  C   UNL     1      37.057   3.853  13.001  0.00  0.00    +0.000 C 
ATOM      5  C   UNL     1      37.362   3.636  14.435  0.00  0.00    +0.000 A 
ATOM      6  C   UNL     1      37.300   2.439  15.056  0.00  0.00    +0.000 A 
ATOM      7  N   UNL     1      37.626   2.573  16.319  0.00  0.00    +0.000 NA
ATOM      8  C   UNL     1      37.913   3.873  16.560  0.00  0.00    +0.000 A 
ATOM      9  C   UNL     1      38.301   4.550  17.677  0.00  0.00    +0.000 A 
ATOM     10  C   UNL     1      38.521   5.909  17.594  0.00  0.00    +0.000 A 
ATOM     11  C   UNL     1      38.370   6.620  16.440  0.00  0.00    +0.000 A 
ATOM     12  C   UNL     1      37.975   5.923  15.305  0.00  0.00    +0.000 A 
ATOM     13  C   UNL     1      37.755   4.580  15.385  0.00  0.00    +0.000 A 
ENDROOT
BRANCH   1  19
ATOM     14  C   UNL     1      37.388  -0.641  15.862  0.00  0.00    +0.000 A 
ATOM     15  C   UNL     1      38.227  -1.589  16.457  0.00  0.00    +0.000 A 
ATOM     16  C   UNL     1      39.504  -1.689  15.968  0.00  0.00    +0.000 A 
ATOM     17  C   UNL     1      39.991  -0.921  14.940  0.00  0.00    +0.000 A 
ATOM     18  C   UNL     1      39.137  -0.000  14.380  0.00  0.00    +0.000 A 
ATOM     19  C   UNL     1      37.894   0.121  14.832  0.00  0.00    +0.000 A 
BRANCH  15  20
ATOM     20  O   UNL     1      37.818  -2.394  17.484  0.00  0.00    +0.000 OA
ATOM     21  C   UNL     1      38.026  -2.151  18.837  0.00  0.00    +0.000 C 
ENDBRANCH  15  20
BRANCH  14  22
ATOM     22  O   UNL     1      36.100  -0.533  16.348  0.00  0.00    +0.000 OA
BRANCH  22  24
ATOM     23  C   UNL     1      34.142  -1.631  17.301  0.00  0.00    +0.000 C 
ATOM     24  C   UNL     1      35.158  -1.578  16.184  0.00  0.00    +0.000 C 
ENDBRANCH  22  24
ENDBRANCH  14  22
ENDBRANCH   1  19
BRANCH  11  25
ATOM     25  O   UNL     1      38.582   7.971  16.319  0.00  0.00    +0.000 OA
BRANCH  25  26
ATOM     26  C   UNL     1      37.657   8.902  16.794  0.00  0.00    +0.000 C 
BRANCH  26  27
ATOM     27  C   UNL     1      37.977   9.225  18.208  0.00  0.00    +0.000 A 
ATOM     28  C   UNL     1      39.026  10.079  18.532  0.00  0.00    +0.000 A 
ATOM     29  C   UNL     1      39.319  10.381  19.840  0.00  0.00    +0.000 A 
ATOM     30  C   UNL     1      38.567   9.836  20.883  0.00  0.00    +0.000 A 
ATOM     31  C   UNL     1      37.534   8.996  20.557  0.00  0.00    +0.000 A 
ATOM     32  C   UNL     1      37.242   8.695  19.250  0.00  0.00    +0.000 A 
ENDBRANCH  26  27
ENDBRANCH  25  26
ENDBRANCH  11  25
TORSDOF 7
ENDMDL
