MODEL 1
REMARK VINA RESULT:      -7.4      0.000      0.000
REMARK  Name = 
REMARK  1 active torsions:
REMARK  status: ('A' for Active; 'I' for Inactive)
REMARK    1  A    between atoms: C_7  and  C_9
REMARK                            x       y       z     vdW  Elec       q    Type
REMARK                         _______ _______ _______ _____ _____    ______ ____
ROOT
ATOM      1  C   UNL     1      16.006  11.334  36.028  0.00  0.00    +0.000 A 
ATOM      2  C   UNL     1      15.158  12.308  36.507  0.00  0.00    +0.000 A 
ATOM      3  C   UNL     1      14.412  13.106  35.651  0.00  0.00    +0.000 A 
ATOM      4  C   UNL     1      14.495  12.951  34.288  0.00  0.00    +0.000 A 
ATOM      5  N   UNL     1      13.881  13.594  33.269  0.00  0.00    +0.000 NA
ATOM      6  C   UNL     1      14.313  13.056  32.102  0.00  0.00    +0.000 A 
ATOM      7  C   UNL     1      13.843  13.524  30.786  0.00  0.00    +0.000 C 
ATOM      8  C   UNL     1      15.217  12.055  32.414  0.00  0.00    +0.000 A 
ATOM      9  C   UNL     1      15.931  11.208  31.427  0.00  0.00    +0.000 C 
ATOM     10  C   UNL     1      15.339  11.981  33.790  0.00  0.00    +0.000 A 
ATOM     11  C   UNL     1      16.079  11.189  34.657  0.00  0.00    +0.000 A 
ENDROOT
BRANCH   1  18
ATOM     12  C   UNL     1      19.305   7.527  42.072  0.00  0.00    +0.000 C 
ATOM     13  C   UNL     1      18.678   8.252  40.910  0.00  0.00    +0.000 A 
ATOM     14  C   UNL     1      18.980   8.128  39.583  0.00  0.00    +0.000 A 
ATOM     15  N   UNL     1      18.325   8.842  38.733  0.00  0.00    +0.000 NA
ATOM     16  C   UNL     1      17.385   9.672  39.152  0.00  0.00    +0.000 A 
ATOM     17  N   UNL     1      16.587  10.516  38.337  0.00  0.00    +0.000 NA
ATOM     18  C   UNL     1      16.795  10.488  36.937  0.00  0.00    +0.000 C 
ATOM     19  O   UNL     1      17.666   9.736  36.414  0.00  0.00    +0.000 OA
ATOM     20  S   UNL     1      17.436   9.423  40.839  0.00  0.00    +0.000 S 
ENDBRANCH   1  18
TORSDOF 1
ENDMDL
MODEL 2
REMARK VINA RESULT:      -7.2      2.786      8.078
REMARK  Name = 
REMARK  1 active torsions:
REMARK  status: ('A' for Active; 'I' for Inactive)
REMARK    1  A    between atoms: C_7  and  C_9
REMARK                            x       y       z     vdW  Elec       q    Type
REMARK                         _______ _______ _______ _____ _____    ______ ____
ROOT
ATOM      1  C   UNL     1      18.209  10.017  37.203  0.00  0.00    +0.000 A 
ATOM      2  C   UNL     1      19.556  10.050  37.494  0.00  0.00    +0.000 A 
ATOM      3  C   UNL     1      20.021   9.913  38.794  0.00  0.00    +0.000 A 
ATOM      4  C   UNL     1      19.149   9.739  39.842  0.00  0.00    +0.000 A 
ATOM      5  N   UNL     1      19.355   9.586  41.170  0.00  0.00    +0.000 NA
ATOM      6  C   UNL     1      18.149   9.449  41.776  0.00  0.00    +0.000 A 
ATOM      7  C   UNL     1      18.006   9.262  43.231  0.00  0.00    +0.000 C 
ATOM      8  C   UNL     1      17.178   9.520  40.793  0.00  0.00    +0.000 A 
ATOM      9  C   UNL     1      15.716   9.417  41.025  0.00  0.00    +0.000 C 
ATOM     10  C   UNL     1      17.797   9.704  39.570  0.00  0.00    +0.000 A 
ATOM     11  C   UNL     1      17.345   9.842  38.265  0.00  0.00    +0.000 A 
ENDROOT
BRANCH   1  18
ATOM     12  C   UNL     1      14.564  11.913  30.492  0.00  0.00    +0.000 C 
ATOM     13  C   UNL     1      15.266  11.545  31.773  0.00  0.00    +0.000 A 
ATOM     14  C   UNL     1      16.272  10.636  31.947  0.00  0.00    +0.000 A 
ATOM     15  N   UNL     1      16.746  10.461  33.132  0.00  0.00    +0.000 NA
ATOM     16  C   UNL     1      16.259  11.154  34.148  0.00  0.00    +0.000 A 
ATOM     17  N   UNL     1      16.680  11.067  35.501  0.00  0.00    +0.000 NA
ATOM     18  C   UNL     1      17.719  10.162  35.823  0.00  0.00    +0.000 C 
ATOM     19  O   UNL     1      18.266   9.443  34.940  0.00  0.00    +0.000 OA
ATOM     20  S   UNL     1      15.068  12.100  33.376  0.00  0.00    +0.000 S 
ENDBRANCH   1  18
TORSDOF 1
ENDMDL
MODEL 3
REMARK VINA RESULT:      -7.0     22.093     24.828
REMARK  Name = 
REMARK  1 active torsions:
REMARK  status: ('A' for Active; 'I' for Inactive)
REMARK    1  A    between atoms: C_7  and  C_9
REMARK                            x       y       z     vdW  Elec       q    Type
REMARK                         _______ _______ _______ _____ _____    ______ ____
ROOT
ATOM      1  C   UNL     1      28.508  24.719  22.303  0.00  0.00    +0.000 A 
ATOM      2  C   UNL     1      27.156  24.452  22.304  0.00  0.00    +0.000 A 
ATOM      3  C   UNL     1      26.547  23.794  23.363  0.00  0.00    +0.000 A 
ATOM      4  C   UNL     1      27.275  23.383  24.454  0.00  0.00    +0.000 A 
ATOM      5  N   UNL     1      26.916  22.737  25.586  0.00  0.00    +0.000 NA
ATOM      6  C   UNL     1      28.023  22.567  26.351  0.00  0.00    +0.000 A 
ATOM      7  C   UNL     1      27.991  21.894  27.662  0.00  0.00    +0.000 C 
ATOM      8  C   UNL     1      29.090  23.124  25.668  0.00  0.00    +0.000 A 
ATOM      9  C   UNL     1      30.493  23.156  26.151  0.00  0.00    +0.000 C 
ATOM     10  C   UNL     1      28.630  23.641  24.470  0.00  0.00    +0.000 A 
ATOM     11  C   UNL     1      29.227  24.301  23.405  0.00  0.00    +0.000 A 
ENDROOT
BRANCH   1  18
ATOM     12  C   UNL     1      31.258  29.806  16.968  0.00  0.00    +0.000 C 
ATOM     13  C   UNL     1      30.735  28.827  17.986  0.00  0.00    +0.000 A 
ATOM     14  C   UNL     1      30.940  27.476  18.032  0.00  0.00    +0.000 A 
ATOM     15  N   UNL     1      30.403  26.804  18.992  0.00  0.00    +0.000 NA
ATOM     16  C   UNL     1      29.672  27.423  19.903  0.00  0.00    +0.000 A 
ATOM     17  N   UNL     1      29.022  26.817  21.011  0.00  0.00    +0.000 NA
ATOM     18  C   UNL     1      29.152  25.418  21.180  0.00  0.00    +0.000 C 
ATOM     19  O   UNL     1      29.825  24.714  20.375  0.00  0.00    +0.000 OA
ATOM     20  S   UNL     1      29.754  29.040  19.368  0.00  0.00    +0.000 S 
ENDBRANCH   1  18
TORSDOF 1
ENDMDL
MODEL 4
REMARK VINA RESULT:      -6.9     19.005     20.606
REMARK  Name = 
REMARK  1 active torsions:
REMARK  status: ('A' for Active; 'I' for Inactive)
REMARK    1  A    between atoms: C_7  and  C_9
REMARK                            x       y       z     vdW  Elec       q    Type
REMARK                         _______ _______ _______ _____ _____    ______ ____
ROOT
ATOM      1  C   UNL     1      33.651   1.649  34.090  0.00  0.00    +0.000 A 
ATOM      2  C   UNL     1      33.494   2.575  33.082  0.00  0.00    +0.000 A 
ATOM      3  C   UNL     1      33.516   3.939  33.339  0.00  0.00    +0.000 A 
ATOM      4  C   UNL     1      33.696   4.415  34.615  0.00  0.00    +0.000 A 
ATOM      5  N   UNL     1      33.753   5.673  35.108  0.00  0.00    +0.000 NA
ATOM      6  C   UNL     1      33.948   5.599  36.448  0.00  0.00    +0.000 A 
ATOM      7  C   UNL     1      34.058   6.793  37.305  0.00  0.00    +0.000 C 
ATOM      8  C   UNL     1      34.012   4.258  36.785  0.00  0.00    +0.000 A 
ATOM      9  C   UNL     1      34.217   3.729  38.157  0.00  0.00    +0.000 C 
ATOM     10  C   UNL     1      33.854   3.503  35.637  0.00  0.00    +0.000 A 
ATOM     11  C   UNL     1      33.830   2.142  35.367  0.00  0.00    +0.000 A 
ENDROOT
BRANCH   1  18
ATOM     12  C   UNL     1      32.537  -6.138  33.947  0.00  0.00    +0.000 C 
ATOM     13  C   UNL     1      32.754  -4.648  33.968  0.00  0.00    +0.000 A 
ATOM     14  C   UNL     1      33.506  -3.898  33.108  0.00  0.00    +0.000 A 
ATOM     15  N   UNL     1      33.568  -2.625  33.294  0.00  0.00    +0.000 NA
ATOM     16  C   UNL     1      32.914  -2.071  34.300  0.00  0.00    +0.000 A 
ATOM     17  N   UNL     1      32.889  -0.690  34.627  0.00  0.00    +0.000 NA
ATOM     18  C   UNL     1      33.628   0.204  33.815  0.00  0.00    +0.000 C 
ATOM     19  O   UNL     1      34.296  -0.203  32.823  0.00  0.00    +0.000 OA
ATOM     20  S   UNL     1      32.173  -3.431  35.016  0.00  0.00    +0.000 S 
ENDBRANCH   1  18
TORSDOF 1
ENDMDL
MODEL 5
REMARK VINA RESULT:      -6.7     19.785     21.424
REMARK  Name = 
REMARK  1 active torsions:
REMARK  status: ('A' for Active; 'I' for Inactive)
REMARK    1  A    between atoms: C_7  and  C_9
REMARK                            x       y       z     vdW  Elec       q    Type
REMARK                         _______ _______ _______ _____ _____    ______ ____
ROOT
ATOM      1  C   UNL     1      33.235  -0.551  35.180  0.00  0.00    +0.000 A 
ATOM      2  C   UNL     1      33.511  -0.256  36.498  0.00  0.00    +0.000 A 
ATOM      3  C   UNL     1      33.840   1.031  36.901  0.00  0.00    +0.000 A 
ATOM      4  C   UNL     1      33.902   2.061  35.994  0.00  0.00    +0.000 A 
ATOM      5  N   UNL     1      34.195   3.373  36.139  0.00  0.00    +0.000 NA
ATOM      6  C   UNL     1      34.116   3.966  34.922  0.00  0.00    +0.000 A 
ATOM      7  C   UNL     1      34.377   5.402  34.717  0.00  0.00    +0.000 C 
ATOM      8  C   UNL     1      33.766   2.990  34.005  0.00  0.00    +0.000 A 
ATOM      9  C   UNL     1      33.573   3.212  32.551  0.00  0.00    +0.000 C 
ATOM     10  C   UNL     1      33.629   1.785  34.671  0.00  0.00    +0.000 A 
ATOM     11  C   UNL     1      33.301   0.494  34.281  0.00  0.00    +0.000 A 
ENDROOT
BRANCH   1  18
ATOM     12  C   UNL     1      32.607  -7.642  31.830  0.00  0.00    +0.000 C 
ATOM     13  C   UNL     1      32.721  -6.286  32.476  0.00  0.00    +0.000 A 
ATOM     14  C   UNL     1      31.966  -5.776  33.493  0.00  0.00    +0.000 A 
ATOM     15  N   UNL     1      32.220  -4.584  33.912  0.00  0.00    +0.000 NA
ATOM     16  C   UNL     1      33.195  -3.883  33.359  0.00  0.00    +0.000 A 
ATOM     17  N   UNL     1      33.587  -2.566  33.713  0.00  0.00    +0.000 NA
ATOM     18  C   UNL     1      32.886  -1.915  34.756  0.00  0.00    +0.000 C 
ATOM     19  O   UNL     1      31.933  -2.480  35.364  0.00  0.00    +0.000 OA
ATOM     20  S   UNL     1      33.777  -4.975  32.185  0.00  0.00    +0.000 S 
ENDBRANCH   1  18
TORSDOF 1
ENDMDL
MODEL 6
REMARK VINA RESULT:      -6.7     18.495     19.784
REMARK  Name = 
REMARK  1 active torsions:
REMARK  status: ('A' for Active; 'I' for Inactive)
REMARK    1  A    between atoms: C_7  and  C_9
REMARK                            x       y       z     vdW  Elec       q    Type
REMARK                         _______ _______ _______ _____ _____    ______ ____
ROOT
ATOM      1  C   UNL     1      33.758   4.143  35.187  0.00  0.00    +0.000 A 
ATOM      2  C   UNL     1      33.644   4.239  33.817  0.00  0.00    +0.000 A 
ATOM      3  C   UNL     1      33.580   3.111  33.012  0.00  0.00    +0.000 A 
ATOM      4  C   UNL     1      33.629   1.850  33.557  0.00  0.00    +0.000 A 
ATOM      5  N   UNL     1      33.586   0.622  32.993  0.00  0.00    +0.000 NA
ATOM      6  C   UNL     1      33.670  -0.305  33.979  0.00  0.00    +0.000 A 
ATOM      7  C   UNL     1      33.652  -1.755  33.714  0.00  0.00    +0.000 C 
ATOM      8  C   UNL     1      33.767   0.374  35.181  0.00  0.00    +0.000 A 
ATOM      9  C   UNL     1      33.880  -0.262  36.517  0.00  0.00    +0.000 C 
ATOM     10  C   UNL     1      33.743   1.734  34.926  0.00  0.00    +0.000 A 
ATOM     11  C   UNL     1      33.805   2.870  35.720  0.00  0.00    +0.000 A 
ENDROOT
BRANCH   1  18
ATOM     12  C   UNL     1      34.590  11.303  38.339  0.00  0.00    +0.000 C 
ATOM     13  C   UNL     1      34.428   9.930  37.743  0.00  0.00    +0.000 A 
ATOM     14  C   UNL     1      34.036   8.782  38.373  0.00  0.00    +0.000 A 
ATOM     15  N   UNL     1      33.959   7.697  37.684  0.00  0.00    +0.000 NA
ATOM     16  C   UNL     1      34.255   7.709  36.396  0.00  0.00    +0.000 A 
ATOM     17  N   UNL     1      34.215   6.596  35.515  0.00  0.00    +0.000 NA
ATOM     18  C   UNL     1      33.824   5.341  36.038  0.00  0.00    +0.000 C 
ATOM     19  O   UNL     1      33.516   5.199  37.255  0.00  0.00    +0.000 OA
ATOM     20  S   UNL     1      34.664   9.347  36.154  0.00  0.00    +0.000 S 
ENDBRANCH   1  18
TORSDOF 1
ENDMDL
MODEL 7
REMARK VINA RESULT:      -6.6     19.224     20.203
REMARK  Name = 
REMARK  1 active torsions:
REMARK  status: ('A' for Active; 'I' for Inactive)
REMARK    1  A    between atoms: C_7  and  C_9
REMARK                            x       y       z     vdW  Elec       q    Type
REMARK                         _______ _______ _______ _____ _____    ______ ____
ROOT
ATOM      1  C   UNL     1      30.548  22.692  26.635  0.00  0.00    +0.000 A 
ATOM      2  C   UNL     1      31.526  23.000  25.714  0.00  0.00    +0.000 A 
ATOM      3  C   UNL     1      31.209  23.364  24.413  0.00  0.00    +0.000 A 
ATOM      4  C   UNL     1      29.902  23.430  23.996  0.00  0.00    +0.000 A 
ATOM      5  N   UNL     1      29.352  23.753  22.803  0.00  0.00    +0.000 NA
ATOM      6  C   UNL     1      28.003  23.663  22.917  0.00  0.00    +0.000 A 
ATOM      7  C   UNL     1      27.089  23.949  21.796  0.00  0.00    +0.000 C 
ATOM      8  C   UNL     1      27.719  23.275  24.214  0.00  0.00    +0.000 A 
ATOM      9  C   UNL     1      26.358  23.059  24.764  0.00  0.00    +0.000 C 
ATOM     10  C   UNL     1      28.909  23.125  24.903  0.00  0.00    +0.000 A 
ATOM     11  C   UNL     1      29.239  22.763  26.202  0.00  0.00    +0.000 A 
ENDROOT
BRANCH   1  18
ATOM     12  C   UNL     1      31.077  21.614  34.411  0.00  0.00    +0.000 C 
ATOM     13  C   UNL     1      30.982  21.815  32.922  0.00  0.00    +0.000 A 
ATOM     14  C   UNL     1      31.771  21.270  31.949  0.00  0.00    +0.000 A 
ATOM     15  N   UNL     1      31.529  21.567  30.719  0.00  0.00    +0.000 NA
ATOM     16  C   UNL     1      30.533  22.384  30.421  0.00  0.00    +0.000 A 
ATOM     17  N   UNL     1      30.150  22.799  29.119  0.00  0.00    +0.000 NA
ATOM     18  C   UNL     1      30.886  22.307  28.014  0.00  0.00    +0.000 C 
ATOM     19  O   UNL     1      31.861  21.519  28.169  0.00  0.00    +0.000 OA
ATOM     20  S   UNL     1      29.913  22.746  31.968  0.00  0.00    +0.000 S 
ENDBRANCH   1  18
TORSDOF 1
ENDMDL
MODEL 8
REMARK VINA RESULT:      -6.6     22.187     24.984
REMARK  Name = 
REMARK  1 active torsions:
REMARK  status: ('A' for Active; 'I' for Inactive)
REMARK    1  A    between atoms: C_7  and  C_9
REMARK                            x       y       z     vdW  Elec       q    Type
REMARK                         _______ _______ _______ _____ _____    ______ ____
ROOT
ATOM      1  C   UNL     1      28.565  25.049  22.309  0.00  0.00    +0.000 A 
ATOM      2  C   UNL     1      28.869  23.773  22.731  0.00  0.00    +0.000 A 
ATOM      3  C   UNL     1      28.267  23.215  23.849  0.00  0.00    +0.000 A 
ATOM      4  C   UNL     1      27.340  23.919  24.580  0.00  0.00    +0.000 A 
ATOM      5  N   UNL     1      26.631  23.598  25.685  0.00  0.00    +0.000 NA
ATOM      6  C   UNL     1      25.846  24.655  26.011  0.00  0.00    +0.000 A 
ATOM      7  C   UNL     1      24.938  24.646  27.172  0.00  0.00    +0.000 C 
ATOM      8  C   UNL     1      26.082  25.652  25.080  0.00  0.00    +0.000 A 
ATOM      9  C   UNL     1      25.428  26.984  25.067  0.00  0.00    +0.000 C 
ATOM     10  C   UNL     1      27.023  25.198  24.173  0.00  0.00    +0.000 A 
ATOM     11  C   UNL     1      27.632  25.745  23.052  0.00  0.00    +0.000 A 
ENDROOT
BRANCH   1  18
ATOM     12  C   UNL     1      31.447  29.636  16.603  0.00  0.00    +0.000 C 
ATOM     13  C   UNL     1      30.898  28.752  17.692  0.00  0.00    +0.000 A 
ATOM     14  C   UNL     1      30.989  27.392  17.794  0.00  0.00    +0.000 A 
ATOM     15  N   UNL     1      30.449  26.813  18.810  0.00  0.00    +0.000 NA
ATOM     16  C   UNL     1      29.824  27.533  19.726  0.00  0.00    +0.000 A 
ATOM     17  N   UNL     1      29.186  27.035  20.892  0.00  0.00    +0.000 NA
ATOM     18  C   UNL     1      29.204  25.639  21.123  0.00  0.00    +0.000 C 
ATOM     19  O   UNL     1      29.770  24.844  20.320  0.00  0.00    +0.000 OA
ATOM     20  S   UNL     1      30.015  29.111  19.109  0.00  0.00    +0.000 S 
ENDBRANCH   1  18
TORSDOF 1
ENDMDL
MODEL 9
REMARK VINA RESULT:      -6.3      3.316      4.368
REMARK  Name = 
REMARK  1 active torsions:
REMARK  status: ('A' for Active; 'I' for Inactive)
REMARK    1  A    between atoms: C_7  and  C_9
REMARK                            x       y       z     vdW  Elec       q    Type
REMARK                         _______ _______ _______ _____ _____    ______ ____
ROOT
ATOM      1  C   UNL     1      17.680  10.176  38.560  0.00  0.00    +0.000 A 
ATOM      2  C   UNL     1      18.219  10.989  37.586  0.00  0.00    +0.000 A 
ATOM      3  C   UNL     1      17.424  11.831  36.821  0.00  0.00    +0.000 A 
ATOM      4  C   UNL     1      16.063  11.882  37.008  0.00  0.00    +0.000 A 
ATOM      5  N   UNL     1      15.096  12.605  36.400  0.00  0.00    +0.000 NA
ATOM      6  C   UNL     1      13.904  12.282  36.961  0.00  0.00    +0.000 A 
ATOM      7  C   UNL     1      12.631  12.889  36.532  0.00  0.00    +0.000 C 
ATOM      8  C   UNL     1      14.148  11.334  37.939  0.00  0.00    +0.000 A 
ATOM      9  C   UNL     1      13.114  10.707  38.799  0.00  0.00    +0.000 C 
ATOM     10  C   UNL     1      15.506  11.074  37.977  0.00  0.00    +0.000 A 
ATOM     11  C   UNL     1      16.312  10.237  38.737  0.00  0.00    +0.000 A 
ENDROOT
BRANCH   1  18
ATOM     12  C   UNL     1      23.449   6.175  42.111  0.00  0.00    +0.000 C 
ATOM     13  C   UNL     1      22.339   6.937  41.436  0.00  0.00    +0.000 A 
ATOM     14  C   UNL     1      20.993   6.805  41.628  0.00  0.00    +0.000 A 
ATOM     15  N   UNL     1      20.197   7.555  40.947  0.00  0.00    +0.000 NA
ATOM     16  C   UNL     1      20.687   8.429  40.086  0.00  0.00    +0.000 A 
ATOM     17  N   UNL     1      19.936   9.317  39.272  0.00  0.00    +0.000 NA
ATOM     18  C   UNL     1      18.525   9.285  39.370  0.00  0.00    +0.000 C 
ATOM     19  O   UNL     1      17.935   8.493  40.159  0.00  0.00    +0.000 OA
ATOM     20  S   UNL     1      22.365   8.169  40.253  0.00  0.00    +0.000 S 
ENDBRANCH   1  18
TORSDOF 1
ENDMDL
MODEL 10
REMARK VINA RESULT:      -6.3     18.415     20.368
REMARK  Name = 
REMARK  1 active torsions:
REMARK  status: ('A' for Active; 'I' for Inactive)
REMARK    1  A    between atoms: C_7  and  C_9
REMARK                            x       y       z     vdW  Elec       q    Type
REMARK                         _______ _______ _______ _____ _____    ______ ____
ROOT
ATOM      1  C   UNL     1      34.002   3.844  34.644  0.00  0.00    +0.000 A 
ATOM      2  C   UNL     1      33.003   4.733  34.309  0.00  0.00    +0.000 A 
ATOM      3  C   UNL     1      33.085   6.077  34.647  0.00  0.00    +0.000 A 
ATOM      4  C   UNL     1      34.170   6.570  35.331  0.00  0.00    +0.000 A 
ATOM      5  N   UNL     1      34.472   7.814  35.764  0.00  0.00    +0.000 NA
ATOM      6  C   UNL     1      35.674   7.768  36.392  0.00  0.00    +0.000 A 
ATOM      7  C   UNL     1      36.307   8.957  36.989  0.00  0.00    +0.000 C 
ATOM      8  C   UNL     1      36.120   6.459  36.341  0.00  0.00    +0.000 A 
ATOM      9  C   UNL     1      37.398   5.967  36.912  0.00  0.00    +0.000 C 
ATOM     10  C   UNL     1      35.178   5.695  35.675  0.00  0.00    +0.000 A 
ATOM     11  C   UNL     1      35.085   4.353  35.331  0.00  0.00    +0.000 A 
ENDROOT
BRANCH   1  18
ATOM     12  C   UNL     1      33.372  -3.993  34.355  0.00  0.00    +0.000 C 
ATOM     13  C   UNL     1      33.493  -2.493  34.403  0.00  0.00    +0.000 A 
ATOM     14  C   UNL     1      33.653  -1.631  33.355  0.00  0.00    +0.000 A 
ATOM     15  N   UNL     1      33.737  -0.369  33.602  0.00  0.00    +0.000 NA
ATOM     16  C   UNL     1      33.670   0.066  34.849  0.00  0.00    +0.000 A 
ATOM     17  N   UNL     1      33.748   1.419  35.270  0.00  0.00    +0.000 NA
ATOM     18  C   UNL     1      33.914   2.420  34.284  0.00  0.00    +0.000 C 
ATOM     19  O   UNL     1      33.992   2.132  33.056  0.00  0.00    +0.000 OA
ATOM     20  S   UNL     1      33.476  -1.393  35.710  0.00  0.00    +0.000 S 
ENDBRANCH   1  18
TORSDOF 1
ENDMDL
