MODEL 1
REMARK VINA RESULT:      -7.2      0.000      0.000
REMARK  Name = 
REMARK  4 active torsions:
REMARK  status: ('A' for Active; 'I' for Inactive)
REMARK    1  A    between atoms: C_5  and  N_6
REMARK    2  A    between atoms: C_7  and  C_9
REMARK    3  A    between atoms: C_11  and  C_12
REMARK    4  A    between atoms: C_19  and  N_20
REMARK                            x       y       z     vdW  Elec       q    Type
REMARK                         _______ _______ _______ _____ _____    ______ ____
ROOT
ATOM      1  N   UNL     1      27.114  23.712  25.766  0.00  0.00    +0.000 NA
ATOM      2  C   UNL     1      27.430  24.858  25.060  0.00  0.00    +0.000 C 
ATOM      3  O   UNL     1      28.188  25.667  25.598  0.00  0.00    +0.000 OA
ENDROOT
BRANCH   1   8
ATOM      4  C   UNL     1      29.103  22.422  30.936  0.00  0.00    +0.000 C 
ATOM      5  C   UNL     1      28.562  22.760  29.594  0.00  0.00    +0.000 A 
ATOM      6  C   UNL     1      29.425  22.871  28.528  0.00  0.00    +0.000 A 
ATOM      7  C   UNL     1      28.941  23.184  27.274  0.00  0.00    +0.000 A 
ATOM      8  C   UNL     1      27.594  23.390  27.067  0.00  0.00    +0.000 A 
ATOM      9  C   UNL     1      26.760  23.271  28.154  0.00  0.00    +0.000 A 
ATOM     10  C   UNL     1      27.186  22.960  29.433  0.00  0.00    +0.000 A 
BRANCH  10  11
ATOM     11  N   UNL     1      26.298  22.845  30.528  0.00  0.00    +0.000 N 
ATOM     12  O   UNL     1      25.977  23.873  31.149  0.00  0.00    +0.000 OA
ATOM     13  O   UNL     1      25.808  21.609  30.884  0.00  0.00    +0.000 OA
ENDBRANCH  10  11
ENDBRANCH   1   8
BRANCH   2  14
ATOM     14  C   UNL     1      26.827  25.096  23.619  0.00  0.00    +0.000 C 
ATOM     15  C   UNL     1      26.778  23.483  23.001  0.00  0.00    +0.000 C 
ATOM     16  C   UNL     1      28.035  24.568  22.500  0.00  0.00    +0.000 C 
BRANCH  16  17
ATOM     17  C   UNL     1      29.249  24.071  23.377  0.00  0.00    +0.000 A 
ATOM     18  C   UNL     1      29.423  22.834  23.813  0.00  0.00    +0.000 A 
ATOM     19  C   UNL     1      30.516  22.504  24.570  0.00  0.00    +0.000 A 
ATOM     20  C   UNL     1      31.436  23.452  24.879  0.00  0.00    +0.000 A 
ATOM     21  C   UNL     1      31.295  24.747  24.447  0.00  0.00    +0.000 A 
ATOM     22  C   UNL     1      30.157  25.051  23.669  0.00  0.00    +0.000 A 
ENDBRANCH  16  17
ENDBRANCH   2  14
TORSDOF 4
ENDMDL
MODEL 2
REMARK VINA RESULT:      -6.8      1.706      3.281
REMARK  Name = 
REMARK  4 active torsions:
REMARK  status: ('A' for Active; 'I' for Inactive)
REMARK    1  A    between atoms: C_5  and  N_6
REMARK    2  A    between atoms: C_7  and  C_9
REMARK    3  A    between atoms: C_11  and  C_12
REMARK    4  A    between atoms: C_19  and  N_20
REMARK                            x       y       z     vdW  Elec       q    Type
REMARK                         _______ _______ _______ _____ _____    ______ ____
ROOT
ATOM      1  N   UNL     1      29.256  22.818  24.255  0.00  0.00    +0.000 NA
ATOM      2  C   UNL     1      29.161  23.967  23.492  0.00  0.00    +0.000 C 
ATOM      3  O   UNL     1      29.362  25.044  24.058  0.00  0.00    +0.000 OA
ENDROOT
BRANCH   1   8
ATOM      4  C   UNL     1      30.580  22.646  29.784  0.00  0.00    +0.000 C 
ATOM      5  C   UNL     1      30.212  22.692  28.345  0.00  0.00    +0.000 A 
ATOM      6  C   UNL     1      31.203  22.617  27.394  0.00  0.00    +0.000 A 
ATOM      7  C   UNL     1      30.881  22.658  26.052  0.00  0.00    +0.000 A 
ATOM      8  C   UNL     1      29.569  22.776  25.643  0.00  0.00    +0.000 A 
ATOM      9  C   UNL     1      28.604  22.849  26.621  0.00  0.00    +0.000 A 
ATOM     10  C   UNL     1      28.866  22.813  27.979  0.00  0.00    +0.000 A 
BRANCH  10  11
ATOM     11  N   UNL     1      27.846  22.890  28.956  0.00  0.00    +0.000 N 
ATOM     12  O   UNL     1      27.309  21.839  29.345  0.00  0.00    +0.000 OA
ATOM     13  O   UNL     1      27.470  24.116  29.454  0.00  0.00    +0.000 OA
ENDBRANCH  10  11
ENDBRANCH   1   8
BRANCH   2  14
ATOM     14  C   UNL     1      28.805  23.875  21.956  0.00  0.00    +0.000 C 
ATOM     15  C   UNL     1      28.162  25.451  21.661  0.00  0.00    +0.000 C 
ATOM     16  C   UNL     1      27.095  24.097  21.844  0.00  0.00    +0.000 C 
BRANCH  16  17
ATOM     17  C   UNL     1      26.587  24.294  23.326  0.00  0.00    +0.000 A 
ATOM     18  C   UNL     1      26.589  25.438  23.991  0.00  0.00    +0.000 A 
ATOM     19  C   UNL     1      26.123  25.503  25.277  0.00  0.00    +0.000 A 
ATOM     20  C   UNL     1      25.651  24.384  25.883  0.00  0.00    +0.000 A 
ATOM     21  C   UNL     1      25.631  23.177  25.230  0.00  0.00    +0.000 A 
ATOM     22  C   UNL     1      26.119  23.148  23.906  0.00  0.00    +0.000 A 
ENDBRANCH  16  17
ENDBRANCH   2  14
TORSDOF 4
ENDMDL
MODEL 3
REMARK VINA RESULT:      -6.6      2.222      6.141
REMARK  Name = 
REMARK  4 active torsions:
REMARK  status: ('A' for Active; 'I' for Inactive)
REMARK    1  A    between atoms: C_5  and  N_6
REMARK    2  A    between atoms: C_7  and  C_9
REMARK    3  A    between atoms: C_11  and  C_12
REMARK    4  A    between atoms: C_19  and  N_20
REMARK                            x       y       z     vdW  Elec       q    Type
REMARK                         _______ _______ _______ _____ _____    ______ ____
ROOT
ATOM      1  N   UNL     1      28.207  22.208  27.725  0.00  0.00    +0.000 NA
ATOM      2  C   UNL     1      28.577  22.991  28.802  0.00  0.00    +0.000 C 
ATOM      3  O   UNL     1      29.097  24.083  28.561  0.00  0.00    +0.000 OA
ENDROOT
BRANCH   1   8
ATOM      4  C   UNL     1      28.963  23.595  22.260  0.00  0.00    +0.000 C 
ATOM      5  C   UNL     1      28.743  23.239  23.686  0.00  0.00    +0.000 A 
ATOM      6  C   UNL     1      29.802  22.782  24.437  0.00  0.00    +0.000 A 
ATOM      7  C   UNL     1      29.618  22.446  25.763  0.00  0.00    +0.000 A 
ATOM      8  C   UNL     1      28.378  22.560  26.355  0.00  0.00    +0.000 A 
ATOM      9  C   UNL     1      27.343  23.020  25.576  0.00  0.00    +0.000 A 
ATOM     10  C   UNL     1      27.466  23.372  24.243  0.00  0.00    +0.000 A 
BRANCH  10  11
ATOM     11  N   UNL     1      26.377  23.841  23.473  0.00  0.00    +0.000 N 
ATOM     12  O   UNL     1      26.051  25.037  23.564  0.00  0.00    +0.000 OA
ATOM     13  O   UNL     1      25.703  22.974  22.644  0.00  0.00    +0.000 OA
ENDBRANCH  10  11
ENDBRANCH   1   8
BRANCH   2  14
ATOM     14  C   UNL     1      28.332  22.481  30.277  0.00  0.00    +0.000 C 
ATOM     15  C   UNL     1      26.760  21.778  30.137  0.00  0.00    +0.000 C 
ATOM     16  C   UNL     1      26.952  23.343  30.860  0.00  0.00    +0.000 C 
BRANCH  16  17
ATOM     17  C   UNL     1      26.505  24.292  29.681  0.00  0.00    +0.000 A 
ATOM     18  C   UNL     1      25.699  23.953  28.687  0.00  0.00    +0.000 A 
ATOM     19  C   UNL     1      25.371  24.856  27.710  0.00  0.00    +0.000 A 
ATOM     20  C   UNL     1      25.874  26.115  27.757  0.00  0.00    +0.000 A 
ATOM     21  C   UNL     1      26.713  26.509  28.769  0.00  0.00    +0.000 A 
ATOM     22  C   UNL     1      27.030  25.553  29.758  0.00  0.00    +0.000 A 
ENDBRANCH  16  17
ENDBRANCH   2  14
TORSDOF 4
ENDMDL
MODEL 4
REMARK VINA RESULT:      -6.6      1.310      3.009
REMARK  Name = 
REMARK  4 active torsions:
REMARK  status: ('A' for Active; 'I' for Inactive)
REMARK    1  A    between atoms: C_5  and  N_6
REMARK    2  A    between atoms: C_7  and  C_9
REMARK    3  A    between atoms: C_11  and  C_12
REMARK    4  A    between atoms: C_19  and  N_20
REMARK                            x       y       z     vdW  Elec       q    Type
REMARK                         _______ _______ _______ _____ _____    ______ ____
ROOT
ATOM      1  N   UNL     1      28.391  22.446  25.917  0.00  0.00    +0.000 NA
ATOM      2  C   UNL     1      28.895  23.327  24.979  0.00  0.00    +0.000 C 
ATOM      3  O   UNL     1      29.539  24.293  25.394  0.00  0.00    +0.000 OA
ENDROOT
BRANCH   1   8
ATOM      4  C   UNL     1      29.117  22.918  31.538  0.00  0.00    +0.000 C 
ATOM      5  C   UNL     1      28.905  22.793  30.073  0.00  0.00    +0.000 A 
ATOM      6  C   UNL     1      29.995  22.779  29.233  0.00  0.00    +0.000 A 
ATOM      7  C   UNL     1      29.817  22.664  27.869  0.00  0.00    +0.000 A 
ATOM      8  C   UNL     1      28.553  22.563  27.326  0.00  0.00    +0.000 A 
ATOM      9  C   UNL     1      27.487  22.580  28.195  0.00  0.00    +0.000 A 
ATOM     10  C   UNL     1      27.603  22.693  29.569  0.00  0.00    +0.000 A 
BRANCH  10  11
ATOM     11  N   UNL     1      26.482  22.707  30.432  0.00  0.00    +0.000 N 
ATOM     12  O   UNL     1      26.002  21.624  30.807  0.00  0.00    +0.000 OA
ATOM     13  O   UNL     1      25.946  23.908  30.835  0.00  0.00    +0.000 OA
ENDBRANCH  10  11
ENDBRANCH   1   8
BRANCH   2  14
ATOM     14  C   UNL     1      28.642  23.082  23.439  0.00  0.00    +0.000 C 
ATOM     15  C   UNL     1      28.745  24.691  22.817  0.00  0.00    +0.000 C 
ATOM     16  C   UNL     1      27.197  23.945  23.047  0.00  0.00    +0.000 C 
BRANCH  16  17
ATOM     17  C   UNL     1      26.717  24.620  24.390  0.00  0.00    +0.000 A 
ATOM     18  C   UNL     1      27.145  25.781  24.860  0.00  0.00    +0.000 A 
ATOM     19  C   UNL     1      26.663  26.281  26.041  0.00  0.00    +0.000 A 
ATOM     20  C   UNL     1      25.734  25.583  26.742  0.00  0.00    +0.000 A 
ATOM     21  C   UNL     1      25.263  24.375  26.291  0.00  0.00    +0.000 A 
ATOM     22  C   UNL     1      25.782  23.891  25.071  0.00  0.00    +0.000 A 
ENDBRANCH  16  17
ENDBRANCH   2  14
TORSDOF 4
ENDMDL
MODEL 5
REMARK VINA RESULT:      -6.5      2.081      3.006
REMARK  Name = 
REMARK  4 active torsions:
REMARK  status: ('A' for Active; 'I' for Inactive)
REMARK    1  A    between atoms: C_5  and  N_6
REMARK    2  A    between atoms: C_7  and  C_9
REMARK    3  A    between atoms: C_11  and  C_12
REMARK    4  A    between atoms: C_19  and  N_20
REMARK                            x       y       z     vdW  Elec       q    Type
REMARK                         _______ _______ _______ _____ _____    ______ ____
ROOT
ATOM      1  N   UNL     1      25.531  24.807  25.822  0.00  0.00    +0.000 NA
ATOM      2  C   UNL     1      26.613  25.197  25.056  0.00  0.00    +0.000 C 
ATOM      3  O   UNL     1      27.507  25.834  25.617  0.00  0.00    +0.000 OA
ENDROOT
BRANCH   1   8
ATOM      4  C   UNL     1      24.817  25.963  31.345  0.00  0.00    +0.000 C 
ATOM      5  C   UNL     1      25.017  25.643  29.908  0.00  0.00    +0.000 A 
ATOM      6  C   UNL     1      24.421  26.434  28.952  0.00  0.00    +0.000 A 
ATOM      7  C   UNL     1      24.595  26.153  27.612  0.00  0.00    +0.000 A 
ATOM      8  C   UNL     1      25.363  25.081  27.209  0.00  0.00    +0.000 A 
ATOM      9  C   UNL     1      25.944  24.312  28.190  0.00  0.00    +0.000 A 
ATOM     10  C   UNL     1      25.806  24.545  29.547  0.00  0.00    +0.000 A 
BRANCH  10  11
ATOM     11  N   UNL     1      26.419  23.731  30.528  0.00  0.00    +0.000 N 
ATOM     12  O   UNL     1      25.894  22.643  30.817  0.00  0.00    +0.000 OA
ATOM     13  O   UNL     1      27.576  24.155  31.141  0.00  0.00    +0.000 OA
ENDBRANCH  10  11
ENDBRANCH   1   8
BRANCH   2  14
ATOM     14  C   UNL     1      26.677  24.828  23.521  0.00  0.00    +0.000 C 
ATOM     15  C   UNL     1      26.027  23.226  23.531  0.00  0.00    +0.000 C 
ATOM     16  C   UNL     1      27.739  23.469  23.398  0.00  0.00    +0.000 C 
BRANCH  16  17
ATOM     17  C   UNL     1      28.216  23.159  24.869  0.00  0.00    +0.000 A 
ATOM     18  C   UNL     1      27.576  22.391  25.737  0.00  0.00    +0.000 A 
ATOM     19  C   UNL     1      28.078  22.184  26.995  0.00  0.00    +0.000 A 
ATOM     20  C   UNL     1      29.247  22.768  27.362  0.00  0.00    +0.000 A 
ATOM     21  C   UNL     1      29.943  23.571  26.493  0.00  0.00    +0.000 A 
ATOM     22  C   UNL     1      29.396  23.763  25.206  0.00  0.00    +0.000 A 
ENDBRANCH  16  17
ENDBRANCH   2  14
TORSDOF 4
ENDMDL
MODEL 6
REMARK VINA RESULT:      -6.5     22.610     25.297
REMARK  Name = 
REMARK  4 active torsions:
REMARK  status: ('A' for Active; 'I' for Inactive)
REMARK    1  A    between atoms: C_5  and  N_6
REMARK    2  A    between atoms: C_7  and  C_9
REMARK    3  A    between atoms: C_11  and  C_12
REMARK    4  A    between atoms: C_19  and  N_20
REMARK                            x       y       z     vdW  Elec       q    Type
REMARK                         _______ _______ _______ _____ _____    ______ ____
ROOT
ATOM      1  N   UNL     1      33.846   0.408  33.933  0.00  0.00    +0.000 NA
ATOM      2  C   UNL     1      32.916  -0.537  34.325  0.00  0.00    +0.000 C 
ATOM      3  O   UNL     1      31.935  -0.141  34.958  0.00  0.00    +0.000 OA
ENDROOT
BRANCH   1   8
ATOM      4  C   UNL     1      33.492   5.995  34.937  0.00  0.00    +0.000 C 
ATOM      5  C   UNL     1      33.593   4.532  34.696  0.00  0.00    +0.000 A 
ATOM      6  C   UNL     1      33.231   4.025  33.469  0.00  0.00    +0.000 A 
ATOM      7  C   UNL     1      33.318   2.669  33.226  0.00  0.00    +0.000 A 
ATOM      8  C   UNL     1      33.764   1.803  34.202  0.00  0.00    +0.000 A 
ATOM      9  C   UNL     1      34.117   2.344  35.417  0.00  0.00    +0.000 A 
ATOM     10  C   UNL     1      34.052   3.693  35.718  0.00  0.00    +0.000 A 
BRANCH  10  11
ATOM     11  N   UNL     1      34.424   4.213  36.980  0.00  0.00    +0.000 N 
ATOM     12  O   UNL     1      33.579   4.237  37.890  0.00  0.00    +0.000 OA
ATOM     13  O   UNL     1      35.703   4.681  37.175  0.00  0.00    +0.000 OA
ENDBRANCH  10  11
ENDBRANCH   1   8
BRANCH   2  14
ATOM     14  C   UNL     1      33.126  -2.060  33.961  0.00  0.00    +0.000 C 
ATOM     15  C   UNL     1      32.173  -2.834  35.177  0.00  0.00    +0.000 C 
ATOM     16  C   UNL     1      33.900  -2.778  35.330  0.00  0.00    +0.000 C 
BRANCH  16  17
ATOM     17  C   UNL     1      34.086  -1.615  36.381  0.00  0.00    +0.000 A 
ATOM     18  C   UNL     1      33.148  -1.165  37.199  0.00  0.00    +0.000 A 
ATOM     19  C   UNL     1      33.413  -0.148  38.078  0.00  0.00    +0.000 A 
ATOM     20  C   UNL     1      34.651   0.408  38.117  0.00  0.00    +0.000 A 
ATOM     21  C   UNL     1      35.652  -0.029  37.286  0.00  0.00    +0.000 A 
ATOM     22  C   UNL     1      35.343  -1.078  36.393  0.00  0.00    +0.000 A 
ENDBRANCH  16  17
ENDBRANCH   2  14
TORSDOF 4
ENDMDL
MODEL 7
REMARK VINA RESULT:      -6.4     20.275     23.082
REMARK  Name = 
REMARK  4 active torsions:
REMARK  status: ('A' for Active; 'I' for Inactive)
REMARK    1  A    between atoms: C_5  and  N_6
REMARK    2  A    between atoms: C_7  and  C_9
REMARK    3  A    between atoms: C_11  and  C_12
REMARK    4  A    between atoms: C_19  and  N_20
REMARK                            x       y       z     vdW  Elec       q    Type
REMARK                         _______ _______ _______ _____ _____    ______ ____
ROOT
ATOM      1  N   UNL     1      33.646   5.440  35.632  0.00  0.00    +0.000 NA
ATOM      2  C   UNL     1      34.596   6.413  35.388  0.00  0.00    +0.000 C 
ATOM      3  O   UNL     1      35.537   6.117  34.649  0.00  0.00    +0.000 OA
ENDROOT
BRANCH   1   8
ATOM      4  C   UNL     1      33.718   0.195  33.432  0.00  0.00    +0.000 C 
ATOM      5  C   UNL     1      33.701   1.556  34.028  0.00  0.00    +0.000 A 
ATOM      6  C   UNL     1      33.583   2.651  33.203  0.00  0.00    +0.000 A 
ATOM      7  C   UNL     1      33.566   3.923  33.738  0.00  0.00    +0.000 A 
ATOM      8  C   UNL     1      33.665   4.119  35.099  0.00  0.00    +0.000 A 
ATOM      9  C   UNL     1      33.782   3.003  35.894  0.00  0.00    +0.000 A 
ATOM     10  C   UNL     1      33.805   1.705  35.416  0.00  0.00    +0.000 A 
BRANCH  10  11
ATOM     11  N   UNL     1      33.925   0.580  36.265  0.00  0.00    +0.000 N 
ATOM     12  O   UNL     1      35.054   0.253  36.669  0.00  0.00    +0.000 OA
ATOM     13  O   UNL     1      32.801  -0.128  36.624  0.00  0.00    +0.000 OA
ENDBRANCH  10  11
ENDBRANCH   1   8
BRANCH   2  14
ATOM     14  C   UNL     1      34.457   7.844  36.043  0.00  0.00    +0.000 C 
ATOM     15  C   UNL     1      36.086   8.414  35.964  0.00  0.00    +0.000 C 
ATOM     16  C   UNL     1      35.445   7.820  37.461  0.00  0.00    +0.000 C 
BRANCH  16  17
ATOM     17  C   UNL     1      36.077   6.376  37.524  0.00  0.00    +0.000 A 
ATOM     18  C   UNL     1      37.197   6.002  36.926  0.00  0.00    +0.000 A 
ATOM     19  C   UNL     1      37.662   4.719  37.045  0.00  0.00    +0.000 A 
ATOM     20  C   UNL     1      36.972   3.815  37.785  0.00  0.00    +0.000 A 
ATOM     21  C   UNL     1      35.806   4.160  38.423  0.00  0.00    +0.000 A 
ATOM     22  C   UNL     1      35.357   5.490  38.278  0.00  0.00    +0.000 A 
ENDBRANCH  16  17
ENDBRANCH   2  14
TORSDOF 4
ENDMDL
MODEL 8
REMARK VINA RESULT:      -6.3      2.177      2.577
REMARK  Name = 
REMARK  4 active torsions:
REMARK  status: ('A' for Active; 'I' for Inactive)
REMARK    1  A    between atoms: C_5  and  N_6
REMARK    2  A    between atoms: C_7  and  C_9
REMARK    3  A    between atoms: C_11  and  C_12
REMARK    4  A    between atoms: C_19  and  N_20
REMARK                            x       y       z     vdW  Elec       q    Type
REMARK                         _______ _______ _______ _____ _____    ______ ____
ROOT
ATOM      1  N   UNL     1      27.592  23.007  26.989  0.00  0.00    +0.000 NA
ATOM      2  C   UNL     1      27.162  24.243  26.545  0.00  0.00    +0.000 C 
ATOM      3  O   UNL     1      27.910  25.205  26.727  0.00  0.00    +0.000 OA
ENDROOT
BRANCH   1   8
ATOM      4  C   UNL     1      32.575  21.974  29.530  0.00  0.00    +0.000 C 
ATOM      5  C   UNL     1      31.264  22.250  28.886  0.00  0.00    +0.000 A 
ATOM      6  C   UNL     1      31.123  22.049  27.532  0.00  0.00    +0.000 A 
ATOM      7  C   UNL     1      29.913  22.300  26.917  0.00  0.00    +0.000 A 
ATOM      8  C   UNL     1      28.831  22.753  27.642  0.00  0.00    +0.000 A 
ATOM      9  C   UNL     1      29.008  22.942  28.993  0.00  0.00    +0.000 A 
ATOM     10  C   UNL     1      30.195  22.708  29.664  0.00  0.00    +0.000 A 
BRANCH  10  11
ATOM     11  N   UNL     1      30.339  22.914  31.056  0.00  0.00    +0.000 N 
ATOM     12  O   UNL     1      30.677  24.039  31.464  0.00  0.00    +0.000 OA
ATOM     13  O   UNL     1      30.105  21.875  31.928  0.00  0.00    +0.000 OA
ENDBRANCH  10  11
ENDBRANCH   1   8
BRANCH   2  14
ATOM     14  C   UNL     1      25.759  24.389  25.833  0.00  0.00    +0.000 C 
ATOM     15  C   UNL     1      25.710  22.947  24.881  0.00  0.00    +0.000 C 
ATOM     16  C   UNL     1      26.086  24.468  24.138  0.00  0.00    +0.000 C 
BRANCH  16  17
ATOM     17  C   UNL     1      27.655  24.370  23.995  0.00  0.00    +0.000 A 
ATOM     18  C   UNL     1      28.344  23.247  23.865  0.00  0.00    +0.000 A 
ATOM     19  C   UNL     1      29.708  23.271  23.746  0.00  0.00    +0.000 A 
ATOM     20  C   UNL     1      30.368  24.456  23.760  0.00  0.00    +0.000 A 
ATOM     21  C   UNL     1      29.693  25.644  23.893  0.00  0.00    +0.000 A 
ATOM     22  C   UNL     1      28.288  25.582  24.013  0.00  0.00    +0.000 A 
ENDBRANCH  16  17
ENDBRANCH   2  14
TORSDOF 4
ENDMDL
MODEL 9
REMARK VINA RESULT:      -6.3      2.206      5.817
REMARK  Name = 
REMARK  4 active torsions:
REMARK  status: ('A' for Active; 'I' for Inactive)
REMARK    1  A    between atoms: C_5  and  N_6
REMARK    2  A    between atoms: C_7  and  C_9
REMARK    3  A    between atoms: C_11  and  C_12
REMARK    4  A    between atoms: C_19  and  N_20
REMARK                            x       y       z     vdW  Elec       q    Type
REMARK                         _______ _______ _______ _____ _____    ______ ____
ROOT
ATOM      1  N   UNL     1      28.328  22.122  27.715  0.00  0.00    +0.000 NA
ATOM      2  C   UNL     1      28.064  22.976  28.769  0.00  0.00    +0.000 C 
ATOM      3  O   UNL     1      27.904  24.170  28.508  0.00  0.00    +0.000 OA
ENDROOT
BRANCH   1   8
ATOM      4  C   UNL     1      28.819  23.653  22.258  0.00  0.00    +0.000 C 
ATOM      5  C   UNL     1      28.668  23.258  23.684  0.00  0.00    +0.000 A 
ATOM      6  C   UNL     1      29.770  22.817  24.380  0.00  0.00    +0.000 A 
ATOM      7  C   UNL     1      29.650  22.446  25.704  0.00  0.00    +0.000 A 
ATOM      8  C   UNL     1      28.432  22.509  26.349  0.00  0.00    +0.000 A 
ATOM      9  C   UNL     1      27.353  22.954  25.622  0.00  0.00    +0.000 A 
ATOM     10  C   UNL     1      27.412  23.339  24.294  0.00  0.00    +0.000 A 
BRANCH  10  11
ATOM     11  N   UNL     1      26.279  23.792  23.579  0.00  0.00    +0.000 N 
ATOM     12  O   UNL     1      25.917  24.973  23.716  0.00  0.00    +0.000 OA
ATOM     13  O   UNL     1      25.601  22.925  22.752  0.00  0.00    +0.000 OA
ENDBRANCH  10  11
ENDBRANCH   1   8
BRANCH   2  14
ATOM     14  C   UNL     1      27.974  22.416  30.244  0.00  0.00    +0.000 C 
ATOM     15  C   UNL     1      28.304  23.839  31.167  0.00  0.00    +0.000 C 
ATOM     16  C   UNL     1      29.540  22.644  30.939  0.00  0.00    +0.000 C 
BRANCH  16  17
ATOM     17  C   UNL     1      30.421  23.313  29.813  0.00  0.00    +0.000 A 
ATOM     18  C   UNL     1      30.455  24.606  29.533  0.00  0.00    +0.000 A 
ATOM     19  C   UNL     1      31.258  25.086  28.533  0.00  0.00    +0.000 A 
ATOM     20  C   UNL     1      32.031  24.232  27.816  0.00  0.00    +0.000 A 
ATOM     21  C   UNL     1      32.026  22.883  28.073  0.00  0.00    +0.000 A 
ATOM     22  C   UNL     1      31.187  22.424  29.111  0.00  0.00    +0.000 A 
ENDBRANCH  16  17
ENDBRANCH   2  14
TORSDOF 4
ENDMDL
MODEL 10
REMARK VINA RESULT:      -6.2     22.671     25.486
REMARK  Name = 
REMARK  4 active torsions:
REMARK  status: ('A' for Active; 'I' for Inactive)
REMARK    1  A    between atoms: C_5  and  N_6
REMARK    2  A    between atoms: C_7  and  C_9
REMARK    3  A    between atoms: C_11  and  C_12
REMARK    4  A    between atoms: C_19  and  N_20
REMARK                            x       y       z     vdW  Elec       q    Type
REMARK                         _______ _______ _______ _____ _____    ______ ____
ROOT
ATOM      1  N   UNL     1      34.063   1.041  37.633  0.00  0.00    +0.000 NA
ATOM      2  C   UNL     1      34.888  -0.065  37.712  0.00  0.00    +0.000 C 
ATOM      3  O   UNL     1      35.970  -0.012  37.122  0.00  0.00    +0.000 OA
ENDROOT
BRANCH   1   8
ATOM      4  C   UNL     1      35.305   5.850  34.861  0.00  0.00    +0.000 C 
ATOM      5  C   UNL     1      34.966   4.588  35.569  0.00  0.00    +0.000 A 
ATOM      6  C   UNL     1      35.580   4.302  36.767  0.00  0.00    +0.000 A 
ATOM      7  C   UNL     1      35.277   3.135  37.438  0.00  0.00    +0.000 A 
ATOM      8  C   UNL     1      34.362   2.240  36.925  0.00  0.00    +0.000 A 
ATOM      9  C   UNL     1      33.768   2.559  35.727  0.00  0.00    +0.000 A 
ATOM     10  C   UNL     1      34.030   3.712  35.008  0.00  0.00    +0.000 A 
BRANCH  10  11
ATOM     11  N   UNL     1      33.398   4.005  33.777  0.00  0.00    +0.000 N 
ATOM     12  O   UNL     1      33.699   3.335  32.775  0.00  0.00    +0.000 OA
ATOM     13  O   UNL     1      32.470   5.019  33.711  0.00  0.00    +0.000 OA
ENDBRANCH  10  11
ENDBRANCH   1   8
BRANCH   2  14
ATOM     14  C   UNL     1      34.437  -1.338  38.533  0.00  0.00    +0.000 C 
ATOM     15  C   UNL     1      35.298  -2.593  37.715  0.00  0.00    +0.000 C 
ATOM     16  C   UNL     1      33.606  -2.361  37.414  0.00  0.00    +0.000 C 
BRANCH  16  17
ATOM     17  C   UNL     1      33.633  -1.602  36.031  0.00  0.00    +0.000 A 
ATOM     18  C   UNL     1      34.646  -1.596  35.179  0.00  0.00    +0.000 A 
ATOM     19  C   UNL     1      34.567  -0.903  34.000  0.00  0.00    +0.000 A 
ATOM     20  C   UNL     1      33.439  -0.213  33.695  0.00  0.00    +0.000 A 
ATOM     21  C   UNL     1      32.365  -0.193  34.549  0.00  0.00    +0.000 A 
ATOM     22  C   UNL     1      32.482  -0.917  35.755  0.00  0.00    +0.000 A 
ENDBRANCH  16  17
ENDBRANCH   2  14
TORSDOF 4
ENDMDL
