MODEL 1
REMARK VINA RESULT:      -5.4      0.000      0.000
REMARK  Name = 
REMARK  5 active torsions:
REMARK  status: ('A' for Active; 'I' for Inactive)
REMARK    1  A    between atoms: C_2  and  O_3
REMARK    2  A    between atoms: O_3  and  C_4
REMARK    3  A    between atoms: C_4  and  C_6
REMARK    4  A    between atoms: C_7  and  S_8
REMARK    5  A    between atoms: N_11  and  C_12
REMARK                            x       y       z     vdW  Elec       q    Type
REMARK                         _______ _______ _______ _____ _____    ______ ____
ROOT
ATOM      1  C   UNL     1      33.977   3.789  35.280  0.00  0.00    +0.000 A 
ATOM      2  C   UNL     1      34.102   3.307  36.569  0.00  0.00    +0.000 A 
ATOM      3  N   UNL     1      33.920   1.976  36.525  0.00  0.00    +0.000 NA
ATOM      4  N   UNL     1      33.686   1.563  35.291  0.00  0.00    +0.000 N 
ATOM      5  C   UNL     1      33.718   2.665  34.522  0.00  0.00    +0.000 A 
ATOM      6  N   UNL     1      33.512   2.648  33.115  0.00  0.00    +0.000 NA
ENDROOT
BRANCH   4   7
ATOM      7  C   UNL     1      33.444   0.206  34.860  0.00  0.00    +0.000 A 
ATOM      8  C   UNL     1      32.443  -0.565  35.416  0.00  0.00    +0.000 A 
ATOM      9  C   UNL     1      32.197  -1.860  35.021  0.00  0.00    +0.000 A 
ATOM     10  C   UNL     1      32.954  -2.451  34.032  0.00  0.00    +0.000 A 
ATOM     11  C   UNL     1      33.955  -1.692  33.468  0.00  0.00    +0.000 A 
ATOM     12  C   UNL     1      34.200  -0.389  33.871  0.00  0.00    +0.000 A 
ENDBRANCH   4   7
BRANCH   1  13
ATOM     13  C   UNL     1      34.089   5.169  34.805  0.00  0.00    +0.000 C 
ATOM     14  O   UNL     1      33.076   5.880  34.704  0.00  0.00    +0.000 OA
BRANCH  13  15
ATOM     15  O   UNL     1      35.308   5.683  34.471  0.00  0.00    +0.000 OA
BRANCH  15  17
ATOM     16  C   UNL     1      37.194   5.491  35.877  0.00  0.00    +0.000 C 
ATOM     17  C   UNL     1      36.129   6.444  35.327  0.00  0.00    +0.000 C 
ENDBRANCH  15  17
ENDBRANCH  13  15
ENDBRANCH   1  13
BRANCH   2  18
ATOM     18  S   UNL     1      34.445   4.338  37.996  0.00  0.00    +0.000 S 
ATOM     19  C   UNL     1      35.847   3.651  38.896  0.00  0.00    +0.000 C 
ENDBRANCH   2  18
TORSDOF 5
ENDMDL
MODEL 2
REMARK VINA RESULT:      -5.3     20.510     23.034
REMARK  Name = 
REMARK  5 active torsions:
REMARK  status: ('A' for Active; 'I' for Inactive)
REMARK    1  A    between atoms: C_2  and  O_3
REMARK    2  A    between atoms: O_3  and  C_4
REMARK    3  A    between atoms: C_4  and  C_6
REMARK    4  A    between atoms: C_7  and  S_8
REMARK    5  A    between atoms: N_11  and  C_12
REMARK                            x       y       z     vdW  Elec       q    Type
REMARK                         _______ _______ _______ _____ _____    ______ ____
ROOT
ATOM      1  C   UNL     1      27.854  22.813  29.674  0.00  0.00    +0.000 A 
ATOM      2  C   UNL     1      29.157  22.712  30.124  0.00  0.00    +0.000 A 
ATOM      3  N   UNL     1      29.968  22.893  29.067  0.00  0.00    +0.000 NA
ATOM      4  N   UNL     1      29.275  23.106  27.960  0.00  0.00    +0.000 N 
ATOM      5  C   UNL     1      27.981  23.058  28.322  0.00  0.00    +0.000 A 
ATOM      6  N   UNL     1      26.903  23.241  27.412  0.00  0.00    +0.000 NA
ENDROOT
BRANCH   4   7
ATOM      7  C   UNL     1      29.802  23.340  26.637  0.00  0.00    +0.000 A 
ATOM      8  C   UNL     1      30.063  24.614  26.174  0.00  0.00    +0.000 A 
ATOM      9  C   UNL     1      30.565  24.859  24.916  0.00  0.00    +0.000 A 
ATOM     10  C   UNL     1      30.835  23.820  24.051  0.00  0.00    +0.000 A 
ATOM     11  C   UNL     1      30.581  22.543  24.501  0.00  0.00    +0.000 A 
ATOM     12  C   UNL     1      30.074  22.303  25.768  0.00  0.00    +0.000 A 
ENDBRANCH   4   7
BRANCH   1  13
ATOM     13  C   UNL     1      26.612  22.691  30.438  0.00  0.00    +0.000 C 
ATOM     14  O   UNL     1      25.983  21.620  30.443  0.00  0.00    +0.000 OA
BRANCH  13  15
ATOM     15  O   UNL     1      26.136  23.754  31.149  0.00  0.00    +0.000 OA
BRANCH  15  17
ATOM     16  C   UNL     1      25.178  25.417  29.775  0.00  0.00    +0.000 C 
ATOM     17  C   UNL     1      26.288  25.106  30.784  0.00  0.00    +0.000 C 
ENDBRANCH  15  17
ENDBRANCH  13  15
ENDBRANCH   1  13
BRANCH   2  18
ATOM     18  S   UNL     1      29.607  22.392  31.831  0.00  0.00    +0.000 S 
ATOM     19  C   UNL     1      31.198  21.546  31.872  0.00  0.00    +0.000 C 
ENDBRANCH   2  18
TORSDOF 5
ENDMDL
MODEL 3
REMARK VINA RESULT:      -5.1     15.465     17.031
REMARK  Name = 
REMARK  5 active torsions:
REMARK  status: ('A' for Active; 'I' for Inactive)
REMARK    1  A    between atoms: C_2  and  O_3
REMARK    2  A    between atoms: O_3  and  C_4
REMARK    3  A    between atoms: C_4  and  C_6
REMARK    4  A    between atoms: C_7  and  S_8
REMARK    5  A    between atoms: N_11  and  C_12
REMARK                            x       y       z     vdW  Elec       q    Type
REMARK                         _______ _______ _______ _____ _____    ______ ____
ROOT
ATOM      1  C   UNL     1      18.838   9.586  39.119  0.00  0.00    +0.000 A 
ATOM      2  C   UNL     1      18.402  10.295  38.016  0.00  0.00    +0.000 A 
ATOM      3  N   UNL     1      19.484  10.630  37.293  0.00  0.00    +0.000 NA
ATOM      4  N   UNL     1      20.595  10.184  37.855  0.00  0.00    +0.000 N 
ATOM      5  C   UNL     1      20.210   9.544  38.973  0.00  0.00    +0.000 A 
ATOM      6  N   UNL     1      21.117   8.915  39.870  0.00  0.00    +0.000 NA
ENDROOT
BRANCH   4   7
ATOM      7  C   UNL     1      21.943  10.352  37.367  0.00  0.00    +0.000 A 
ATOM      8  C   UNL     1      22.739  11.403  37.778  0.00  0.00    +0.000 A 
ATOM      9  C   UNL     1      24.026  11.582  37.324  0.00  0.00    +0.000 A 
ATOM     10  C   UNL     1      24.585  10.699  36.425  0.00  0.00    +0.000 A 
ATOM     11  C   UNL     1      23.802   9.645  36.008  0.00  0.00    +0.000 A 
ATOM     12  C   UNL     1      22.507   9.471  36.467  0.00  0.00    +0.000 A 
ENDBRANCH   4   7
BRANCH   1  13
ATOM     13  C   UNL     1      18.047   9.005  40.204  0.00  0.00    +0.000 C 
ATOM     14  O   UNL     1      17.758   9.684  41.202  0.00  0.00    +0.000 OA
BRANCH  13  15
ATOM     15  O   UNL     1      17.620   7.711  40.125  0.00  0.00    +0.000 OA
BRANCH  15  17
ATOM     16  C   UNL     1      19.045   5.832  40.222  0.00  0.00    +0.000 C 
ATOM     17  C   UNL     1      18.020   6.672  40.989  0.00  0.00    +0.000 C 
ENDBRANCH  15  17
ENDBRANCH  13  15
ENDBRANCH   1  13
BRANCH   2  18
ATOM     18  S   UNL     1      16.679  10.663  37.678  0.00  0.00    +0.000 S 
ATOM     19  C   UNL     1      16.552  11.459  36.066  0.00  0.00    +0.000 C 
ENDBRANCH   2  18
TORSDOF 5
ENDMDL
MODEL 4
REMARK VINA RESULT:      -5.1     24.149     26.615
REMARK  Name = 
REMARK  5 active torsions:
REMARK  status: ('A' for Active; 'I' for Inactive)
REMARK    1  A    between atoms: C_2  and  O_3
REMARK    2  A    between atoms: O_3  and  C_4
REMARK    3  A    between atoms: C_4  and  C_6
REMARK    4  A    between atoms: C_7  and  S_8
REMARK    5  A    between atoms: N_11  and  C_12
REMARK                            x       y       z     vdW  Elec       q    Type
REMARK                         _______ _______ _______ _____ _____    ______ ____
ROOT
ATOM      1  C   UNL     1      27.498  24.519  23.689  0.00  0.00    +0.000 A 
ATOM      2  C   UNL     1      27.795  25.867  23.739  0.00  0.00    +0.000 A 
ATOM      3  N   UNL     1      26.822  26.473  24.441  0.00  0.00    +0.000 NA
ATOM      4  N   UNL     1      25.912  25.604  24.850  0.00  0.00    +0.000 N 
ATOM      5  C   UNL     1      26.317  24.406  24.395  0.00  0.00    +0.000 A 
ATOM      6  N   UNL     1      25.605  23.197  24.625  0.00  0.00    +0.000 NA
ENDROOT
BRANCH   4   7
ATOM      7  C   UNL     1      24.728  25.888  25.626  0.00  0.00    +0.000 A 
ATOM      8  C   UNL     1      24.690  25.690  26.991  0.00  0.00    +0.000 A 
ATOM      9  C   UNL     1      23.571  25.953  27.749  0.00  0.00    +0.000 A 
ATOM     10  C   UNL     1      22.421  26.436  27.163  0.00  0.00    +0.000 A 
ATOM     11  C   UNL     1      22.447  26.640  25.801  0.00  0.00    +0.000 A 
ATOM     12  C   UNL     1      23.575  26.372  25.043  0.00  0.00    +0.000 A 
ENDBRANCH   4   7
BRANCH   1  13
ATOM     13  C   UNL     1      28.248  23.441  23.043  0.00  0.00    +0.000 C 
ATOM     14  O   UNL     1      28.092  23.208  21.833  0.00  0.00    +0.000 OA
BRANCH  13  15
ATOM     15  O   UNL     1      29.123  22.684  23.766  0.00  0.00    +0.000 OA
BRANCH  15  17
ATOM     16  C   UNL     1      31.312  23.062  24.565  0.00  0.00    +0.000 C 
ATOM     17  C   UNL     1      29.821  23.122  24.909  0.00  0.00    +0.000 C 
ENDBRANCH  15  17
ENDBRANCH  13  15
ENDBRANCH   1  13
BRANCH   2  18
ATOM     18  S   UNL     1      29.242  26.604  22.976  0.00  0.00    +0.000 S 
ATOM     19  C   UNL     1      29.023  26.616  21.187  0.00  0.00    +0.000 C 
ENDBRANCH   2  18
TORSDOF 5
ENDMDL
MODEL 5
REMARK VINA RESULT:      -5.1     20.319     22.595
REMARK  Name = 
REMARK  5 active torsions:
REMARK  status: ('A' for Active; 'I' for Inactive)
REMARK    1  A    between atoms: C_2  and  O_3
REMARK    2  A    between atoms: O_3  and  C_4
REMARK    3  A    between atoms: C_4  and  C_6
REMARK    4  A    between atoms: C_7  and  S_8
REMARK    5  A    between atoms: N_11  and  C_12
REMARK                            x       y       z     vdW  Elec       q    Type
REMARK                         _______ _______ _______ _____ _____    ______ ____
ROOT
ATOM      1  C   UNL     1      16.727 -10.458  28.461  0.00  0.00    +0.000 A 
ATOM      2  C   UNL     1      15.994 -10.345  27.295  0.00  0.00    +0.000 A 
ATOM      3  N   UNL     1      16.483  -9.298  26.607  0.00  0.00    +0.000 NA
ATOM      4  N   UNL     1      17.486  -8.725  27.252  0.00  0.00    +0.000 N 
ATOM      5  C   UNL     1      17.642  -9.428  28.387  0.00  0.00    +0.000 A 
ATOM      6  N   UNL     1      18.629  -9.129  29.367  0.00  0.00    +0.000 NA
ENDROOT
BRANCH   4   7
ATOM      7  C   UNL     1      18.253  -7.580  26.822  0.00  0.00    +0.000 A 
ATOM      8  C   UNL     1      17.880  -6.292  27.150  0.00  0.00    +0.000 A 
ATOM      9  C   UNL     1      18.597  -5.187  26.749  0.00  0.00    +0.000 A 
ATOM     10  C   UNL     1      19.740  -5.325  25.991  0.00  0.00    +0.000 A 
ATOM     11  C   UNL     1      20.123  -6.606  25.658  0.00  0.00    +0.000 A 
ATOM     12  C   UNL     1      19.397  -7.714  26.063  0.00  0.00    +0.000 A 
ENDBRANCH   4   7
BRANCH   1  13
ATOM     13  C   UNL     1      16.583 -11.436  29.540  0.00  0.00    +0.000 C 
ATOM     14  O   UNL     1      17.111 -12.556  29.443  0.00  0.00    +0.000 OA
BRANCH  13  15
ATOM     15  O   UNL     1      15.866 -11.125  30.659  0.00  0.00    +0.000 OA
BRANCH  15  17
ATOM     16  C   UNL     1      15.249 -10.238  32.757  0.00  0.00    +0.000 C 
ATOM     17  C   UNL     1      16.420 -10.693  31.880  0.00  0.00    +0.000 C 
ENDBRANCH  15  17
ENDBRANCH  13  15
ENDBRANCH   1  13
BRANCH   2  18
ATOM     18  S   UNL     1      14.644 -11.438  26.849  0.00  0.00    +0.000 S 
ATOM     19  C   UNL     1      13.911 -10.870  25.304  0.00  0.00    +0.000 C 
ENDBRANCH   2  18
TORSDOF 5
ENDMDL
MODEL 6
REMARK VINA RESULT:      -5.1     20.504     22.085
REMARK  Name = 
REMARK  5 active torsions:
REMARK  status: ('A' for Active; 'I' for Inactive)
REMARK    1  A    between atoms: C_2  and  O_3
REMARK    2  A    between atoms: O_3  and  C_4
REMARK    3  A    between atoms: C_4  and  C_6
REMARK    4  A    between atoms: C_7  and  S_8
REMARK    5  A    between atoms: N_11  and  C_12
REMARK                            x       y       z     vdW  Elec       q    Type
REMARK                         _______ _______ _______ _____ _____    ______ ____
ROOT
ATOM      1  C   UNL     1      23.061   2.435  16.781  0.00  0.00    +0.000 A 
ATOM      2  C   UNL     1      23.089   3.004  15.522  0.00  0.00    +0.000 A 
ATOM      3  N   UNL     1      24.069   3.925  15.513  0.00  0.00    +0.000 NA
ATOM      4  N   UNL     1      24.679   3.989  16.685  0.00  0.00    +0.000 N 
ATOM      5  C   UNL     1      24.069   3.081  17.467  0.00  0.00    +0.000 A 
ATOM      6  N   UNL     1      24.435   2.837  18.820  0.00  0.00    +0.000 NA
ENDROOT
BRANCH   4   7
ATOM      7  C   UNL     1      25.774   4.857  17.048  0.00  0.00    +0.000 A 
ATOM      8  C   UNL     1      27.070   4.390  17.143  0.00  0.00    +0.000 A 
ATOM      9  C   UNL     1      28.128   5.201  17.488  0.00  0.00    +0.000 A 
ATOM     10  C   UNL     1      27.932   6.539  17.755  0.00  0.00    +0.000 A 
ATOM     11  C   UNL     1      26.644   7.018  17.662  0.00  0.00    +0.000 A 
ATOM     12  C   UNL     1      25.583   6.197  17.316  0.00  0.00    +0.000 A 
ENDBRANCH   4   7
BRANCH   1  13
ATOM     13  C   UNL     1      22.176   1.387  17.290  0.00  0.00    +0.000 C 
ATOM     14  O   UNL     1      22.410   0.193  17.039  0.00  0.00    +0.000 OA
BRANCH  13  15
ATOM     15  O   UNL     1      21.087   1.714  18.045  0.00  0.00    +0.000 OA
BRANCH  15  17
ATOM     16  C   UNL     1      18.983   1.596  16.982  0.00  0.00    +0.000 C 
ATOM     17  C   UNL     1      20.020   2.528  17.616  0.00  0.00    +0.000 C 
ENDBRANCH  15  17
ENDBRANCH  13  15
ENDBRANCH   1  13
BRANCH   2  18
ATOM     18  S   UNL     1      21.981   2.545  14.189  0.00  0.00    +0.000 S 
ATOM     19  C   UNL     1      22.058   3.801  12.899  0.00  0.00    +0.000 C 
ENDBRANCH   2  18
TORSDOF 5
ENDMDL
MODEL 7
REMARK VINA RESULT:      -5.0     20.785     22.723
REMARK  Name = 
REMARK  5 active torsions:
REMARK  status: ('A' for Active; 'I' for Inactive)
REMARK    1  A    between atoms: C_2  and  O_3
REMARK    2  A    between atoms: O_3  and  C_4
REMARK    3  A    between atoms: C_4  and  C_6
REMARK    4  A    between atoms: C_7  and  S_8
REMARK    5  A    between atoms: N_11  and  C_12
REMARK                            x       y       z     vdW  Elec       q    Type
REMARK                         _______ _______ _______ _____ _____    ______ ____
ROOT
ATOM      1  C   UNL     1      27.669  22.867  29.652  0.00  0.00    +0.000 A 
ATOM      2  C   UNL     1      27.836  23.204  28.322  0.00  0.00    +0.000 A 
ATOM      3  N   UNL     1      29.156  23.224  28.069  0.00  0.00    +0.000 NA
ATOM      4  N   UNL     1      29.857  22.920  29.149  0.00  0.00    +0.000 N 
ATOM      5  C   UNL     1      28.956  22.700  30.122  0.00  0.00    +0.000 A 
ATOM      6  N   UNL     1      29.309  22.343  31.453  0.00  0.00    +0.000 NA
ENDROOT
BRANCH   4   7
ATOM      7  C   UNL     1      31.295  22.843  29.257  0.00  0.00    +0.000 A 
ATOM      8  C   UNL     1      31.954  21.631  29.314  0.00  0.00    +0.000 A 
ATOM      9  C   UNL     1      33.324  21.536  29.419  0.00  0.00    +0.000 A 
ATOM     10  C   UNL     1      34.107  22.668  29.470  0.00  0.00    +0.000 A 
ATOM     11  C   UNL     1      33.462  23.884  29.412  0.00  0.00    +0.000 A 
ATOM     12  C   UNL     1      32.083  23.974  29.309  0.00  0.00    +0.000 A 
ENDBRANCH   4   7
BRANCH   1  13
ATOM     13  C   UNL     1      26.426  22.714  30.407  0.00  0.00    +0.000 C 
ATOM     14  O   UNL     1      26.021  21.584  30.726  0.00  0.00    +0.000 OA
BRANCH  13  15
ATOM     15  O   UNL     1      25.701  23.814  30.766  0.00  0.00    +0.000 OA
BRANCH  15  17
ATOM     16  C   UNL     1      25.043  26.041  31.189  0.00  0.00    +0.000 C 
ATOM     17  C   UNL     1      26.234  25.099  30.984  0.00  0.00    +0.000 C 
ENDBRANCH  15  17
ENDBRANCH  13  15
ENDBRANCH   1  13
BRANCH   2  18
ATOM     18  S   UNL     1      26.481  23.543  27.196  0.00  0.00    +0.000 S 
ATOM     19  C   UNL     1      26.868  22.843  25.581  0.00  0.00    +0.000 C 
ENDBRANCH   2  18
TORSDOF 5
ENDMDL
MODEL 8
REMARK VINA RESULT:      -5.0     20.522     22.988
REMARK  Name = 
REMARK  5 active torsions:
REMARK  status: ('A' for Active; 'I' for Inactive)
REMARK    1  A    between atoms: C_2  and  O_3
REMARK    2  A    between atoms: O_3  and  C_4
REMARK    3  A    between atoms: C_4  and  C_6
REMARK    4  A    between atoms: C_7  and  S_8
REMARK    5  A    between atoms: N_11  and  C_12
REMARK                            x       y       z     vdW  Elec       q    Type
REMARK                         _______ _______ _______ _____ _____    ______ ____
ROOT
ATOM      1  C   UNL     1      16.247 -10.386  27.715  0.00  0.00    +0.000 A 
ATOM      2  C   UNL     1      17.078 -10.327  28.818  0.00  0.00    +0.000 A 
ATOM      3  N   UNL     1      17.919  -9.294  28.640  0.00  0.00    +0.000 NA
ATOM      4  N   UNL     1      17.688  -8.678  27.492  0.00  0.00    +0.000 N 
ATOM      5  C   UNL     1      16.667  -9.339  26.920  0.00  0.00    +0.000 A 
ATOM      6  N   UNL     1      16.110  -8.985  25.660  0.00  0.00    +0.000 NA
ENDROOT
BRANCH   4   7
ATOM      7  C   UNL     1      18.390  -7.532  26.965  0.00  0.00    +0.000 A 
ATOM      8  C   UNL     1      17.972  -6.242  27.224  0.00  0.00    +0.000 A 
ATOM      9  C   UNL     1      18.627  -5.136  26.731  0.00  0.00    +0.000 A 
ATOM     10  C   UNL     1      19.750  -5.275  25.944  0.00  0.00    +0.000 A 
ATOM     11  C   UNL     1      20.179  -6.557  25.680  0.00  0.00    +0.000 A 
ATOM     12  C   UNL     1      19.515  -7.667  26.178  0.00  0.00    +0.000 A 
ENDBRANCH   4   7
BRANCH   1  13
ATOM     13  C   UNL     1      15.166 -11.330  27.435  0.00  0.00    +0.000 C 
ATOM     14  O   UNL     1      15.369 -12.317  26.708  0.00  0.00    +0.000 OA
BRANCH  13  15
ATOM     15  O   UNL     1      13.925 -11.134  27.970  0.00  0.00    +0.000 OA
BRANCH  15  17
ATOM     16  C   UNL     1      12.672  -9.560  26.736  0.00  0.00    +0.000 C 
ATOM     17  C   UNL     1      12.734 -11.009  27.228  0.00  0.00    +0.000 C 
ENDBRANCH  15  17
ENDBRANCH  13  15
ENDBRANCH   1  13
BRANCH   2  18
ATOM     18  S   UNL     1      16.988 -11.465  30.202  0.00  0.00    +0.000 S 
ATOM     19  C   UNL     1      15.541 -11.067  31.200  0.00  0.00    +0.000 C 
ENDBRANCH   2  18
TORSDOF 5
ENDMDL
MODEL 9
REMARK VINA RESULT:      -5.0      3.172      6.352
REMARK  Name = 
REMARK  5 active torsions:
REMARK  status: ('A' for Active; 'I' for Inactive)
REMARK    1  A    between atoms: C_2  and  O_3
REMARK    2  A    between atoms: O_3  and  C_4
REMARK    3  A    between atoms: C_4  and  C_6
REMARK    4  A    between atoms: C_7  and  S_8
REMARK    5  A    between atoms: N_11  and  C_12
REMARK                            x       y       z     vdW  Elec       q    Type
REMARK                         _______ _______ _______ _____ _____    ______ ____
ROOT
ATOM      1  C   UNL     1      33.891   1.358  36.370  0.00  0.00    +0.000 A 
ATOM      2  C   UNL     1      33.532   1.514  35.045  0.00  0.00    +0.000 A 
ATOM      3  N   UNL     1      33.804   2.784  34.696  0.00  0.00    +0.000 NA
ATOM      4  N   UNL     1      34.317   3.461  35.710  0.00  0.00    +0.000 N 
ATOM      5  C   UNL     1      34.374   2.598  36.738  0.00  0.00    +0.000 A 
ATOM      6  N   UNL     1      34.871   2.940  38.026  0.00  0.00    +0.000 NA
ENDROOT
BRANCH   4   7
ATOM      7  C   UNL     1      34.729   4.845  35.709  0.00  0.00    +0.000 A 
ATOM      8  C   UNL     1      33.836   5.869  35.954  0.00  0.00    +0.000 A 
ATOM      9  C   UNL     1      34.209   7.194  35.957  0.00  0.00    +0.000 A 
ATOM     10  C   UNL     1      35.516   7.559  35.713  0.00  0.00    +0.000 A 
ATOM     11  C   UNL     1      36.417   6.547  35.469  0.00  0.00    +0.000 A 
ATOM     12  C   UNL     1      36.036   5.214  35.465  0.00  0.00    +0.000 A 
ENDBRANCH   4   7
BRANCH   1  13
ATOM     13  C   UNL     1      33.791   0.163  37.209  0.00  0.00    +0.000 C 
ATOM     14  O   UNL     1      32.699  -0.169  37.698  0.00  0.00    +0.000 OA
BRANCH  13  15
ATOM     15  O   UNL     1      34.899  -0.594  37.460  0.00  0.00    +0.000 OA
BRANCH  15  17
ATOM     16  C   UNL     1      36.534  -2.258  37.107  0.00  0.00    +0.000 C 
ATOM     17  C   UNL     1      35.789  -1.076  36.481  0.00  0.00    +0.000 C 
ENDBRANCH  15  17
ENDBRANCH  13  15
ENDBRANCH   1  13
BRANCH   2  18
ATOM     18  S   UNL     1      32.831   0.208  34.035  0.00  0.00    +0.000 S 
ATOM     19  C   UNL     1      34.158  -0.617  33.135  0.00  0.00    +0.000 C 
ENDBRANCH   2  18
TORSDOF 5
ENDMDL
MODEL 10
REMARK VINA RESULT:      -5.0     22.314     24.336
REMARK  Name = 
REMARK  5 active torsions:
REMARK  status: ('A' for Active; 'I' for Inactive)
REMARK    1  A    between atoms: C_2  and  O_3
REMARK    2  A    between atoms: O_3  and  C_4
REMARK    3  A    between atoms: C_4  and  C_6
REMARK    4  A    between atoms: C_7  and  S_8
REMARK    5  A    between atoms: N_11  and  C_12
REMARK                            x       y       z     vdW  Elec       q    Type
REMARK                         _______ _______ _______ _____ _____    ______ ____
ROOT
ATOM      1  C   UNL     1      20.414  21.971  37.981  0.00  0.00    +0.000 A 
ATOM      2  C   UNL     1      20.746  23.100  37.257  0.00  0.00    +0.000 A 
ATOM      3  N   UNL     1      20.017  23.089  36.127  0.00  0.00    +0.000 NA
ATOM      4  N   UNL     1      19.233  22.025  36.072  0.00  0.00    +0.000 N 
ATOM      5  C   UNL     1      19.469  21.335  37.201  0.00  0.00    +0.000 A 
ATOM      6  N   UNL     1      18.817  20.114  37.527  0.00  0.00    +0.000 NA
ENDROOT
BRANCH   4   7
ATOM      7  C   UNL     1      18.314  21.678  35.014  0.00  0.00    +0.000 A 
ATOM      8  C   UNL     1      18.665  20.804  34.005  0.00  0.00    +0.000 A 
ATOM      9  C   UNL     1      17.804  20.461  32.987  0.00  0.00    +0.000 A 
ATOM     10  C   UNL     1      16.530  20.986  32.934  0.00  0.00    +0.000 A 
ATOM     11  C   UNL     1      16.167  21.859  33.936  0.00  0.00    +0.000 A 
ATOM     12  C   UNL     1      17.039  22.201  34.958  0.00  0.00    +0.000 A 
ENDBRANCH   4   7
BRANCH   1  13
ATOM     13  C   UNL     1      20.932  21.531  39.277  0.00  0.00    +0.000 C 
ATOM     14  O   UNL     1      20.333  21.828  40.324  0.00  0.00    +0.000 OA
BRANCH  13  15
ATOM     15  O   UNL     1      22.077  20.792  39.344  0.00  0.00    +0.000 OA
BRANCH  15  17
ATOM     16  C   UNL     1      22.408  18.862  38.026  0.00  0.00    +0.000 C 
ATOM     17  C   UNL     1      22.807  20.326  38.232  0.00  0.00    +0.000 C 
ENDBRANCH  15  17
ENDBRANCH  13  15
ENDBRANCH   1  13
BRANCH   2  18
ATOM     18  S   UNL     1      21.948  24.319  37.795  0.00  0.00    +0.000 S 
ATOM     19  C   UNL     1      23.466  24.108  36.847  0.00  0.00    +0.000 C 
ENDBRANCH   2  18
TORSDOF 5
ENDMDL
