MODEL 1
REMARK VINA RESULT:      -7.6      0.000      0.000
REMARK  Name = 
REMARK  8 active torsions:
REMARK  status: ('A' for Active; 'I' for Inactive)
REMARK    1  A    between atoms: C_2  and  C_3
REMARK    2  A    between atoms: C_3  and  C_4
REMARK    3  A    between atoms: C_4  and  N_5
REMARK    4  A    between atoms: C_6  and  C_8
REMARK    5  A    between atoms: C_8  and  N_18
REMARK    6  A    between atoms: C_9  and  C_10
REMARK    7  A    between atoms: C_13  and  O_14
REMARK    8  A    between atoms: C_19  and  C_21
REMARK                            x       y       z     vdW  Elec       q    Type
REMARK                         _______ _______ _______ _____ _____    ______ ____
ROOT
ATOM      1  C   UNL     1      38.737   2.420  14.821  0.00  0.00    +0.000 C 
ATOM      2  C   UNL     1      39.689   2.119  13.924  0.00  0.00    +0.000 C 
ENDROOT
BRANCH   2   3
ATOM      3  C   UNL     1      39.969   0.714  13.640  0.00  0.00    +0.000 A 
ATOM      4  C   UNL     1      40.552  -0.124  14.577  0.00  0.00    +0.000 A 
ATOM      5  C   UNL     1      40.823  -1.428  14.249  0.00  0.00    +0.000 A 
ATOM      6  C   UNL     1      40.540  -1.974  12.998  0.00  0.00    +0.000 A 
ATOM      7  C   UNL     1      39.958  -1.098  12.095  0.00  0.00    +0.000 A 
ATOM      8  C   UNL     1      39.676   0.216  12.400  0.00  0.00    +0.000 A 
BRANCH   6   9
ATOM      9  O   UNL     1      40.799  -3.271  12.638  0.00  0.00    +0.000 OA
ATOM     10  C   UNL     1      41.705  -3.588  11.581  0.00  0.00    +0.000 C 
ENDBRANCH   6   9
ENDBRANCH   2   3
BRANCH   1  12
ATOM     11  N   UNL     1      38.605   4.409  16.391  0.00  0.00    +0.000 NA
ATOM     12  C   UNL     1      38.462   3.798  15.097  0.00  0.00    +0.000 C 
ATOM     13  O   UNL     1      38.067   4.553  14.173  0.00  0.00    +0.000 OA
BRANCH  11  14
ATOM     14  C   UNL     1      38.284   5.834  16.578  0.00  0.00    +0.000 C 
BRANCH  14  15
ATOM     15  C   UNL     1      39.381   6.336  17.524  0.00  0.00    +0.000 C 
BRANCH  15  17
ATOM     16  C   UNL     1      40.117   6.444  19.846  0.00  0.00    +0.000 C 
ATOM     17  C   UNL     1      39.355   5.604  18.834  0.00  0.00    +0.000 C 
ENDBRANCH  15  17
ENDBRANCH  14  15
ENDBRANCH  11  14
ENDBRANCH   1  12
BRANCH   1  18
ATOM     18  N   UNL     1      38.085   1.301  15.419  0.00  0.00    +0.000 NA
ATOM     19  C   UNL     1      36.718   1.014  15.079  0.00  0.00    +0.000 C 
ATOM     20  O   UNL     1      36.175   1.794  14.255  0.00  0.00    +0.000 OA
BRANCH  19  21
ATOM     21  C   UNL     1      36.023  -0.124  15.676  0.00  0.00    +0.000 A 
ATOM     22  C   UNL     1      35.134   0.092  16.709  0.00  0.00    +0.000 A 
ATOM     23  C   UNL     1      34.456  -0.941  17.313  0.00  0.00    +0.000 A 
ATOM     24  C   UNL     1      34.662  -2.219  16.888  0.00  0.00    +0.000 A 
ATOM     25  C   UNL     1      35.542  -2.465  15.863  0.00  0.00    +0.000 A 
ATOM     26  C   UNL     1      35.748  -3.761  15.422  0.00  0.00    +0.000 A 
ATOM     27  C   UNL     1      36.613  -3.995  14.400  0.00  0.00    +0.000 A 
ATOM     28  C   UNL     1      37.290  -2.967  13.793  0.00  0.00    +0.000 A 
ATOM     29  C   UNL     1      37.087  -1.675  14.229  0.00  0.00    +0.000 A 
ATOM     30  C   UNL     1      36.228  -1.414  15.249  0.00  0.00    +0.000 A 
ENDBRANCH  19  21
ENDBRANCH   1  18
TORSDOF 8
ENDMDL
MODEL 2
REMARK VINA RESULT:      -7.5      3.054      5.472
REMARK  Name = 
REMARK  8 active torsions:
REMARK  status: ('A' for Active; 'I' for Inactive)
REMARK    1  A    between atoms: C_2  and  C_3
REMARK    2  A    between atoms: C_3  and  C_4
REMARK    3  A    between atoms: C_4  and  N_5
REMARK    4  A    between atoms: C_6  and  C_8
REMARK    5  A    between atoms: C_8  and  N_18
REMARK    6  A    between atoms: C_9  and  C_10
REMARK    7  A    between atoms: C_13  and  O_14
REMARK    8  A    between atoms: C_19  and  C_21
REMARK                            x       y       z     vdW  Elec       q    Type
REMARK                         _______ _______ _______ _____ _____    ______ ____
ROOT
ATOM      1  C   UNL     1      35.583   2.108  16.082  0.00  0.00    +0.000 C 
ATOM      2  C   UNL     1      34.866   1.316  16.892  0.00  0.00    +0.000 C 
ENDROOT
BRANCH   2   3
ATOM      3  C   UNL     1      35.521   0.168  17.515  0.00  0.00    +0.000 A 
ATOM      4  C   UNL     1      36.432   0.314  18.550  0.00  0.00    +0.000 A 
ATOM      5  C   UNL     1      37.043  -0.794  19.080  0.00  0.00    +0.000 A 
ATOM      6  C   UNL     1      36.796  -2.090  18.628  0.00  0.00    +0.000 A 
ATOM      7  C   UNL     1      35.878  -2.185  17.594  0.00  0.00    +0.000 A 
ATOM      8  C   UNL     1      35.251  -1.088  17.044  0.00  0.00    +0.000 A 
BRANCH   6   9
ATOM      9  O   UNL     1      37.390  -3.217  19.134  0.00  0.00    +0.000 OA
ATOM     10  C   UNL     1      38.805  -3.308  19.299  0.00  0.00    +0.000 C 
ENDBRANCH   6   9
ENDBRANCH   2   3
BRANCH   1  12
ATOM     11  N   UNL     1      35.624   4.249  14.720  0.00  0.00    +0.000 NA
ATOM     12  C   UNL     1      34.939   3.234  15.474  0.00  0.00    +0.000 C 
ATOM     13  O   UNL     1      33.695   3.378  15.586  0.00  0.00    +0.000 OA
BRANCH  11  14
ATOM     14  C   UNL     1      34.875   5.378  14.143  0.00  0.00    +0.000 C 
BRANCH  14  15
ATOM     15  C   UNL     1      35.602   5.666  12.825  0.00  0.00    +0.000 C 
BRANCH  15  17
ATOM     16  C   UNL     1      37.051   4.358  11.365  0.00  0.00    +0.000 C 
ATOM     17  C   UNL     1      36.921   4.954  12.757  0.00  0.00    +0.000 C 
ENDBRANCH  15  17
ENDBRANCH  14  15
ENDBRANCH  11  14
ENDBRANCH   1  12
BRANCH   1  18
ATOM     18  N   UNL     1      36.948   1.731  15.909  0.00  0.00    +0.000 NA
ATOM     19  C   UNL     1      37.376   1.182  14.651  0.00  0.00    +0.000 C 
ATOM     20  O   UNL     1      36.490   1.065  13.765  0.00  0.00    +0.000 OA
BRANCH  19  21
ATOM     21  C   UNL     1      38.767   0.786  14.444  0.00  0.00    +0.000 A 
ATOM     22  C   UNL     1      39.656   1.694  13.908  0.00  0.00    +0.000 A 
ATOM     23  C   UNL     1      40.975   1.374  13.684  0.00  0.00    +0.000 A 
ATOM     24  C   UNL     1      41.426   0.127  13.997  0.00  0.00    +0.000 A 
ATOM     25  C   UNL     1      40.564  -0.799  14.531  0.00  0.00    +0.000 A 
ATOM     26  C   UNL     1      41.020  -2.064  14.858  0.00  0.00    +0.000 A 
ATOM     27  C   UNL     1      40.162  -2.970  15.396  0.00  0.00    +0.000 A 
ATOM     28  C   UNL     1      38.845  -2.655  15.623  0.00  0.00    +0.000 A 
ATOM     29  C   UNL     1      38.388  -1.396  15.297  0.00  0.00    +0.000 A 
ATOM     30  C   UNL     1      39.225  -0.471  14.759  0.00  0.00    +0.000 A 
ENDBRANCH  19  21
ENDBRANCH   1  18
TORSDOF 8
ENDMDL
MODEL 3
REMARK VINA RESULT:      -7.1      2.900      5.471
REMARK  Name = 
REMARK  8 active torsions:
REMARK  status: ('A' for Active; 'I' for Inactive)
REMARK    1  A    between atoms: C_2  and  C_3
REMARK    2  A    between atoms: C_3  and  C_4
REMARK    3  A    between atoms: C_4  and  N_5
REMARK    4  A    between atoms: C_6  and  C_8
REMARK    5  A    between atoms: C_8  and  N_18
REMARK    6  A    between atoms: C_9  and  C_10
REMARK    7  A    between atoms: C_13  and  O_14
REMARK    8  A    between atoms: C_19  and  C_21
REMARK                            x       y       z     vdW  Elec       q    Type
REMARK                         _______ _______ _______ _____ _____    ______ ____
ROOT
ATOM      1  C   UNL     1      36.461   3.270  14.541  0.00  0.00    +0.000 C 
ATOM      2  C   UNL     1      35.415   3.039  15.349  0.00  0.00    +0.000 C 
ENDROOT
BRANCH   2   3
ATOM      3  C   UNL     1      35.539   2.018  16.386  0.00  0.00    +0.000 A 
ATOM      4  C   UNL     1      36.370   2.180  17.483  0.00  0.00    +0.000 A 
ATOM      5  C   UNL     1      36.474   1.178  18.413  0.00  0.00    +0.000 A 
ATOM      6  C   UNL     1      35.776  -0.026  18.318  0.00  0.00    +0.000 A 
ATOM      7  C   UNL     1      34.958  -0.141  17.205  0.00  0.00    +0.000 A 
ATOM      8  C   UNL     1      34.836   0.851  16.257  0.00  0.00    +0.000 A 
BRANCH   6   9
ATOM      9  O   UNL     1      35.858  -1.047  19.228  0.00  0.00    +0.000 OA
ATOM     10  C   UNL     1      37.095  -1.704  19.506  0.00  0.00    +0.000 C 
ENDBRANCH   6   9
ENDBRANCH   2   3
BRANCH   1  12
ATOM     11  N   UNL     1      35.256   5.217  13.448  0.00  0.00    +0.000 NA
ATOM     12  C   UNL     1      36.338   4.274  13.527  0.00  0.00    +0.000 C 
ATOM     13  O   UNL     1      37.214   4.366  12.630  0.00  0.00    +0.000 OA
BRANCH  11  14
ATOM     14  C   UNL     1      35.210   6.206  12.357  0.00  0.00    +0.000 C 
BRANCH  14  15
ATOM     15  C   UNL     1      34.259   7.287  12.880  0.00  0.00    +0.000 C 
BRANCH  15  17
ATOM     16  C   UNL     1      33.611   8.236  15.030  0.00  0.00    +0.000 C 
ATOM     17  C   UNL     1      33.729   6.943  14.241  0.00  0.00    +0.000 C 
ENDBRANCH  15  17
ENDBRANCH  14  15
ENDBRANCH  11  14
ENDBRANCH   1  12
BRANCH   1  18
ATOM     18  N   UNL     1      37.614   2.468  14.788  0.00  0.00    +0.000 NA
ATOM     19  C   UNL     1      37.863   1.315  13.966  0.00  0.00    +0.000 C 
ATOM     20  O   UNL     1      37.020   1.086  13.060  0.00  0.00    +0.000 OA
BRANCH  19  21
ATOM     21  C   UNL     1      39.035   0.473  14.195  0.00  0.00    +0.000 A 
ATOM     22  C   UNL     1      40.271   0.899  13.755  0.00  0.00    +0.000 A 
ATOM     23  C   UNL     1      41.406   0.145  13.936  0.00  0.00    +0.000 A 
ATOM     24  C   UNL     1      41.319  -1.059  14.568  0.00  0.00    +0.000 A 
ATOM     25  C   UNL     1      40.102  -1.510  15.016  0.00  0.00    +0.000 A 
ATOM     26  C   UNL     1      40.010  -2.728  15.666  0.00  0.00    +0.000 A 
ATOM     27  C   UNL     1      38.804  -3.162  16.116  0.00  0.00    +0.000 A 
ATOM     28  C   UNL     1      37.668  -2.412  15.938  0.00  0.00    +0.000 A 
ATOM     29  C   UNL     1      37.755  -1.198  15.291  0.00  0.00    +0.000 A 
ATOM     30  C   UNL     1      38.950  -0.742  14.832  0.00  0.00    +0.000 A 
ENDBRANCH  19  21
ENDBRANCH   1  18
TORSDOF 8
ENDMDL
MODEL 4
REMARK VINA RESULT:      -7.0      3.058      6.082
REMARK  Name = 
REMARK  8 active torsions:
REMARK  status: ('A' for Active; 'I' for Inactive)
REMARK    1  A    between atoms: C_2  and  C_3
REMARK    2  A    between atoms: C_3  and  C_4
REMARK    3  A    between atoms: C_4  and  N_5
REMARK    4  A    between atoms: C_6  and  C_8
REMARK    5  A    between atoms: C_8  and  N_18
REMARK    6  A    between atoms: C_9  and  C_10
REMARK    7  A    between atoms: C_13  and  O_14
REMARK    8  A    between atoms: C_19  and  C_21
REMARK                            x       y       z     vdW  Elec       q    Type
REMARK                         _______ _______ _______ _____ _____    ______ ____
ROOT
ATOM      1  C   UNL     1      36.392   0.042  16.600  0.00  0.00    +0.000 C 
ATOM      2  C   UNL     1      35.906  -0.969  17.336  0.00  0.00    +0.000 C 
ENDROOT
BRANCH   2   3
ATOM      3  C   UNL     1      36.809  -2.046  17.736  0.00  0.00    +0.000 A 
ATOM      4  C   UNL     1      36.968  -3.193  16.975  0.00  0.00    +0.000 A 
ATOM      5  C   UNL     1      37.805  -4.188  17.411  0.00  0.00    +0.000 A 
ATOM      6  C   UNL     1      38.523  -4.112  18.604  0.00  0.00    +0.000 A 
ATOM      7  C   UNL     1      38.332  -2.947  19.329  0.00  0.00    +0.000 A 
ATOM      8  C   UNL     1      37.497  -1.933  18.913  0.00  0.00    +0.000 A 
BRANCH   6   9
ATOM      9  O   UNL     1      39.366  -5.089  19.068  0.00  0.00    +0.000 OA
ATOM     10  C   UNL     1      39.082  -5.816  20.263  0.00  0.00    +0.000 C 
ENDBRANCH   6   9
ENDBRANCH   2   3
BRANCH   1  12
ATOM     11  N   UNL     1      35.710   1.946  15.067  0.00  0.00    +0.000 NA
ATOM     12  C   UNL     1      35.506   1.098  16.211  0.00  0.00    +0.000 C 
ATOM     13  O   UNL     1      34.474   1.329  16.890  0.00  0.00    +0.000 OA
BRANCH  11  14
ATOM     14  C   UNL     1      34.747   3.016  14.755  0.00  0.00    +0.000 C 
BRANCH  14  15
ATOM     15  C   UNL     1      35.604   4.286  14.731  0.00  0.00    +0.000 C 
BRANCH  15  17
ATOM     16  C   UNL     1      35.379   5.820  12.849  0.00  0.00    +0.000 C 
ATOM     17  C   UNL     1      36.107   4.583  13.349  0.00  0.00    +0.000 C 
ENDBRANCH  15  17
ENDBRANCH  14  15
ENDBRANCH  11  14
ENDBRANCH   1  12
BRANCH   1  18
ATOM     18  N   UNL     1      37.778  -0.049  16.275  0.00  0.00    +0.000 NA
ATOM     19  C   UNL     1      38.172  -0.575  14.997  0.00  0.00    +0.000 C 
ATOM     20  O   UNL     1      37.239  -0.933  14.232  0.00  0.00    +0.000 OA
BRANCH  19  21
ATOM     21  C   UNL     1      39.584  -0.682  14.636  0.00  0.00    +0.000 A 
ATOM     22  C   UNL     1      40.264  -1.852  14.903  0.00  0.00    +0.000 A 
ATOM     23  C   UNL     1      41.595  -2.007  14.591  0.00  0.00    +0.000 A 
ATOM     24  C   UNL     1      42.270  -0.981  14.002  0.00  0.00    +0.000 A 
ATOM     25  C   UNL     1      41.620   0.197  13.725  0.00  0.00    +0.000 A 
ATOM     26  C   UNL     1      42.300   1.239  13.119  0.00  0.00    +0.000 A 
ATOM     27  C   UNL     1      41.647   2.397  12.839  0.00  0.00    +0.000 A 
ATOM     28  C   UNL     1      40.318   2.554  13.146  0.00  0.00    +0.000 A 
ATOM     29  C   UNL     1      39.637   1.519  13.750  0.00  0.00    +0.000 A 
ATOM     30  C   UNL     1      40.268   0.351  14.041  0.00  0.00    +0.000 A 
ENDBRANCH  19  21
ENDBRANCH   1  18
TORSDOF 8
ENDMDL
MODEL 5
REMARK VINA RESULT:      -7.0      3.133      5.966
REMARK  Name = 
REMARK  8 active torsions:
REMARK  status: ('A' for Active; 'I' for Inactive)
REMARK    1  A    between atoms: C_2  and  C_3
REMARK    2  A    between atoms: C_3  and  C_4
REMARK    3  A    between atoms: C_4  and  N_5
REMARK    4  A    between atoms: C_6  and  C_8
REMARK    5  A    between atoms: C_8  and  N_18
REMARK    6  A    between atoms: C_9  and  C_10
REMARK    7  A    between atoms: C_13  and  O_14
REMARK    8  A    between atoms: C_19  and  C_21
REMARK                            x       y       z     vdW  Elec       q    Type
REMARK                         _______ _______ _______ _____ _____    ______ ____
ROOT
ATOM      1  C   UNL     1      35.718   1.909  16.244  0.00  0.00    +0.000 C 
ATOM      2  C   UNL     1      35.054   1.130  17.111  0.00  0.00    +0.000 C 
ENDROOT
BRANCH   2   3
ATOM      3  C   UNL     1      35.757   0.009  17.731  0.00  0.00    +0.000 A 
ATOM      4  C   UNL     1      36.455   0.145  18.920  0.00  0.00    +0.000 A 
ATOM      5  C   UNL     1      37.124  -0.932  19.444  0.00  0.00    +0.000 A 
ATOM      6  C   UNL     1      37.144  -2.186  18.836  0.00  0.00    +0.000 A 
ATOM      7  C   UNL     1      36.432  -2.273  17.650  0.00  0.00    +0.000 A 
ATOM      8  C   UNL     1      35.753  -1.207  17.103  0.00  0.00    +0.000 A 
BRANCH   6   9
ATOM      9  O   UNL     1      37.803  -3.281  19.332  0.00  0.00    +0.000 OA
ATOM     10  C   UNL     1      38.733  -4.018  18.538  0.00  0.00    +0.000 C 
ENDBRANCH   6   9
ENDBRANCH   2   3
BRANCH   1  12
ATOM     11  N   UNL     1      35.659   4.010  14.823  0.00  0.00    +0.000 NA
ATOM     12  C   UNL     1      35.028   3.009  15.640  0.00  0.00    +0.000 C 
ATOM     13  O   UNL     1      33.790   3.141  15.813  0.00  0.00    +0.000 OA
BRANCH  11  14
ATOM     14  C   UNL     1      34.866   5.113  14.255  0.00  0.00    +0.000 C 
BRANCH  14  15
ATOM     15  C   UNL     1      35.669   5.549  13.024  0.00  0.00    +0.000 C 
BRANCH  15  17
ATOM     16  C   UNL     1      33.687   6.969  13.014  0.00  0.00    +0.000 C 
ATOM     17  C   UNL     1      34.953   6.617  12.250  0.00  0.00    +0.000 C 
ENDBRANCH  15  17
ENDBRANCH  14  15
ENDBRANCH  11  14
ENDBRANCH   1  12
BRANCH   1  18
ATOM     18  N   UNL     1      37.078   1.545  16.011  0.00  0.00    +0.000 NA
ATOM     19  C   UNL     1      37.419   0.804  14.828  0.00  0.00    +0.000 C 
ATOM     20  O   UNL     1      36.467   0.517  14.058  0.00  0.00    +0.000 OA
BRANCH  19  21
ATOM     21  C   UNL     1      38.803   0.416  14.563  0.00  0.00    +0.000 A 
ATOM     22  C   UNL     1      39.239  -0.836  14.944  0.00  0.00    +0.000 A 
ATOM     23  C   UNL     1      40.532  -1.252  14.726  0.00  0.00    +0.000 A 
ATOM     24  C   UNL     1      41.415  -0.412  14.118  0.00  0.00    +0.000 A 
ATOM     25  C   UNL     1      41.010   0.841  13.729  0.00  0.00    +0.000 A 
ATOM     26  C   UNL     1      41.901   1.695  13.103  0.00  0.00    +0.000 A 
ATOM     27  C   UNL     1      41.489   2.930  12.712  0.00  0.00    +0.000 A 
ATOM     28  C   UNL     1      40.199   3.349  12.926  0.00  0.00    +0.000 A 
ATOM     29  C   UNL     1      39.309   2.501  13.549  0.00  0.00    +0.000 A 
ATOM     30  C   UNL     1      39.696   1.262  13.950  0.00  0.00    +0.000 A 
ENDBRANCH  19  21
ENDBRANCH   1  18
TORSDOF 8
ENDMDL
MODEL 6
REMARK VINA RESULT:      -6.9      2.756      6.394
REMARK  Name = 
REMARK  8 active torsions:
REMARK  status: ('A' for Active; 'I' for Inactive)
REMARK    1  A    between atoms: C_2  and  C_3
REMARK    2  A    between atoms: C_3  and  C_4
REMARK    3  A    between atoms: C_4  and  N_5
REMARK    4  A    between atoms: C_6  and  C_8
REMARK    5  A    between atoms: C_8  and  N_18
REMARK    6  A    between atoms: C_9  and  C_10
REMARK    7  A    between atoms: C_13  and  O_14
REMARK    8  A    between atoms: C_19  and  C_21
REMARK                            x       y       z     vdW  Elec       q    Type
REMARK                         _______ _______ _______ _____ _____    ______ ____
ROOT
ATOM      1  C   UNL     1      39.856  -1.243  13.537  0.00  0.00    +0.000 C 
ATOM      2  C   UNL     1      39.267  -0.303  12.784  0.00  0.00    +0.000 C 
ENDROOT
BRANCH   2   3
ATOM      3  C   UNL     1      38.355   0.643  13.424  0.00  0.00    +0.000 A 
ATOM      4  C   UNL     1      37.001   0.673  13.131  0.00  0.00    +0.000 A 
ATOM      5  C   UNL     1      36.193   1.601  13.737  0.00  0.00    +0.000 A 
ATOM      6  C   UNL     1      36.666   2.539  14.654  0.00  0.00    +0.000 A 
ATOM      7  C   UNL     1      38.025   2.469  14.916  0.00  0.00    +0.000 A 
ATOM      8  C   UNL     1      38.857   1.547  14.320  0.00  0.00    +0.000 A 
BRANCH   6   9
ATOM      9  O   UNL     1      35.887   3.480  15.277  0.00  0.00    +0.000 OA
ATOM     10  C   UNL     1      34.463   3.386  15.285  0.00  0.00    +0.000 C 
ENDBRANCH   6   9
ENDBRANCH   2   3
BRANCH   1  12
ATOM     11  N   UNL     1      42.149  -2.286  13.226  0.00  0.00    +0.000 NA
ATOM     12  C   UNL     1      40.751  -2.167  12.908  0.00  0.00    +0.000 C 
ATOM     13  O   UNL     1      40.324  -2.941  12.014  0.00  0.00    +0.000 OA
BRANCH  11  14
ATOM     14  C   UNL     1      42.993  -3.260  12.513  0.00  0.00    +0.000 C 
BRANCH  14  15
ATOM     15  C   UNL     1      44.377  -3.079  13.145  0.00  0.00    +0.000 C 
BRANCH  15  17
ATOM     16  C   UNL     1      45.291  -2.172  15.216  0.00  0.00    +0.000 C 
ATOM     17  C   UNL     1      44.434  -1.849  14.003  0.00  0.00    +0.000 C 
ENDBRANCH  15  17
ENDBRANCH  14  15
ENDBRANCH  11  14
ENDBRANCH   1  12
BRANCH   1  18
ATOM     18  N   UNL     1      39.517  -1.219  14.922  0.00  0.00    +0.000 NA
ATOM     19  C   UNL     1      38.626  -2.216  15.450  0.00  0.00    +0.000 C 
ATOM     20  O   UNL     1      38.192  -3.064  14.628  0.00  0.00    +0.000 OA
BRANCH  19  21
ATOM     21  C   UNL     1      38.259  -2.217  16.864  0.00  0.00    +0.000 A 
ATOM     22  C   UNL     1      38.940  -3.038  17.739  0.00  0.00    +0.000 A 
ATOM     23  C   UNL     1      38.632  -3.085  19.079  0.00  0.00    +0.000 A 
ATOM     24  C   UNL     1      37.629  -2.304  19.566  0.00  0.00    +0.000 A 
ATOM     25  C   UNL     1      36.933  -1.477  18.719  0.00  0.00    +0.000 A 
ATOM     26  C   UNL     1      35.918  -0.675  19.211  0.00  0.00    +0.000 A 
ATOM     27  C   UNL     1      35.241   0.147  18.368  0.00  0.00    +0.000 A 
ATOM     28  C   UNL     1      35.545   0.199  17.030  0.00  0.00    +0.000 A 
ATOM     29  C   UNL     1      36.555  -0.598  16.536  0.00  0.00    +0.000 A 
ATOM     30  C   UNL     1      37.247  -1.430  17.358  0.00  0.00    +0.000 A 
ENDBRANCH  19  21
ENDBRANCH   1  18
TORSDOF 8
ENDMDL
MODEL 7
REMARK VINA RESULT:      -6.9      3.218      5.617
REMARK  Name = 
REMARK  8 active torsions:
REMARK  status: ('A' for Active; 'I' for Inactive)
REMARK    1  A    between atoms: C_2  and  C_3
REMARK    2  A    between atoms: C_3  and  C_4
REMARK    3  A    between atoms: C_4  and  N_5
REMARK    4  A    between atoms: C_6  and  C_8
REMARK    5  A    between atoms: C_8  and  N_18
REMARK    6  A    between atoms: C_9  and  C_10
REMARK    7  A    between atoms: C_13  and  O_14
REMARK    8  A    between atoms: C_19  and  C_21
REMARK                            x       y       z     vdW  Elec       q    Type
REMARK                         _______ _______ _______ _____ _____    ______ ____
ROOT
ATOM      1  C   UNL     1      38.976  -1.804  16.141  0.00  0.00    +0.000 C 
ATOM      2  C   UNL     1      39.783  -2.755  15.649  0.00  0.00    +0.000 C 
ENDROOT
BRANCH   2   3
ATOM      3  C   UNL     1      40.570  -2.462  14.453  0.00  0.00    +0.000 A 
ATOM      4  C   UNL     1      40.112  -2.759  13.179  0.00  0.00    +0.000 A 
ATOM      5  C   UNL     1      40.903  -2.491  12.091  0.00  0.00    +0.000 A 
ATOM      6  C   UNL     1      42.172  -1.923  12.194  0.00  0.00    +0.000 A 
ATOM      7  C   UNL     1      42.586  -1.643  13.486  0.00  0.00    +0.000 A 
ATOM      8  C   UNL     1      41.811  -1.903  14.595  0.00  0.00    +0.000 A 
BRANCH   6   9
ATOM      9  O   UNL     1      42.988  -1.645  11.128  0.00  0.00    +0.000 OA
ATOM     10  C   UNL     1      42.506  -1.688   9.785  0.00  0.00    +0.000 C 
ENDBRANCH   6   9
ENDBRANCH   2   3
BRANCH   1  12
ATOM     11  N   UNL     1      37.777  -1.103  18.265  0.00  0.00    +0.000 NA
ATOM     12  C   UNL     1      38.207  -2.093  17.314  0.00  0.00    +0.000 C 
ATOM     13  O   UNL     1      37.868  -3.277  17.563  0.00  0.00    +0.000 OA
BRANCH  11  14
ATOM     14  C   UNL     1      37.000  -1.501  19.450  0.00  0.00    +0.000 C 
BRANCH  14  15
ATOM     15  C   UNL     1      35.726  -0.652  19.357  0.00  0.00    +0.000 C 
BRANCH  15  17
ATOM     16  C   UNL     1      34.473  -0.945  17.286  0.00  0.00    +0.000 C 
ATOM     17  C   UNL     1      35.533  -0.102  17.974  0.00  0.00    +0.000 C 
ENDBRANCH  15  17
ENDBRANCH  14  15
ENDBRANCH  11  14
ENDBRANCH   1  12
BRANCH   1  18
ATOM     18  N   UNL     1      38.971  -0.573  15.420  0.00  0.00    +0.000 NA
ATOM     19  C   UNL     1      37.852  -0.252  14.576  0.00  0.00    +0.000 C 
ATOM     20  O   UNL     1      36.929  -1.106  14.528  0.00  0.00    +0.000 OA
BRANCH  19  21
ATOM     21  C   UNL     1      37.818   1.001  13.824  0.00  0.00    +0.000 A 
ATOM     22  C   UNL     1      38.725   1.202  12.804  0.00  0.00    +0.000 A 
ATOM     23  C   UNL     1      38.744   2.363  12.068  0.00  0.00    +0.000 A 
ATOM     24  C   UNL     1      37.847   3.350  12.346  0.00  0.00    +0.000 A 
ATOM     25  C   UNL     1      36.933   3.179  13.356  0.00  0.00    +0.000 A 
ATOM     26  C   UNL     1      36.014   4.175  13.637  0.00  0.00    +0.000 A 
ATOM     27  C   UNL     1      35.107   3.993  14.632  0.00  0.00    +0.000 A 
ATOM     28  C   UNL     1      35.083   2.834  15.368  0.00  0.00    +0.000 A 
ATOM     29  C   UNL     1      35.997   1.840  15.092  0.00  0.00    +0.000 A 
ATOM     30  C   UNL     1      36.914   1.997  14.102  0.00  0.00    +0.000 A 
ENDBRANCH  19  21
ENDBRANCH   1  18
TORSDOF 8
ENDMDL
MODEL 8
REMARK VINA RESULT:      -6.8      1.793      4.715
REMARK  Name = 
REMARK  8 active torsions:
REMARK  status: ('A' for Active; 'I' for Inactive)
REMARK    1  A    between atoms: C_2  and  C_3
REMARK    2  A    between atoms: C_3  and  C_4
REMARK    3  A    between atoms: C_4  and  N_5
REMARK    4  A    between atoms: C_6  and  C_8
REMARK    5  A    between atoms: C_8  and  N_18
REMARK    6  A    between atoms: C_9  and  C_10
REMARK    7  A    between atoms: C_13  and  O_14
REMARK    8  A    between atoms: C_19  and  C_21
REMARK                            x       y       z     vdW  Elec       q    Type
REMARK                         _______ _______ _______ _____ _____    ______ ____
ROOT
ATOM      1  C   UNL     1      36.993   1.495  15.898  0.00  0.00    +0.000 C 
ATOM      2  C   UNL     1      36.488   0.708  16.860  0.00  0.00    +0.000 C 
ENDROOT
BRANCH   2   3
ATOM      3  C   UNL     1      36.406  -0.731  16.620  0.00  0.00    +0.000 A 
ATOM      4  C   UNL     1      37.515  -1.557  16.715  0.00  0.00    +0.000 A 
ATOM      5  C   UNL     1      37.391  -2.897  16.450  0.00  0.00    +0.000 A 
ATOM      6  C   UNL     1      36.185  -3.492  16.080  0.00  0.00    +0.000 A 
ATOM      7  C   UNL     1      35.106  -2.627  15.999  0.00  0.00    +0.000 A 
ATOM      8  C   UNL     1      35.204  -1.278  16.260  0.00  0.00    +0.000 A 
BRANCH   6   9
ATOM      9  O   UNL     1      36.027  -4.826  15.807  0.00  0.00    +0.000 OA
ATOM     10  C   UNL     1      34.917  -5.309  15.051  0.00  0.00    +0.000 C 
ENDBRANCH   6   9
ENDBRANCH   2   3
BRANCH   1  12
ATOM     11  N   UNL     1      37.858   3.506  17.182  0.00  0.00    +0.000 NA
ATOM     12  C   UNL     1      37.075   2.905  16.136  0.00  0.00    +0.000 C 
ATOM     13  O   UNL     1      36.433   3.701  15.405  0.00  0.00    +0.000 OA
BRANCH  11  14
ATOM     14  C   UNL     1      37.868   4.968  17.356  0.00  0.00    +0.000 C 
BRANCH  14  15
ATOM     15  C   UNL     1      38.964   5.207  18.401  0.00  0.00    +0.000 C 
BRANCH  15  17
ATOM     16  C   UNL     1      40.061   6.762  19.925  0.00  0.00    +0.000 C 
ATOM     17  C   UNL     1      38.957   6.626  18.889  0.00  0.00    +0.000 C 
ENDBRANCH  15  17
ENDBRANCH  14  15
ENDBRANCH  11  14
ENDBRANCH   1  12
BRANCH   1  18
ATOM     18  N   UNL     1      37.405   0.823  14.709  0.00  0.00    +0.000 NA
ATOM     19  C   UNL     1      38.783   0.880  14.306  0.00  0.00    +0.000 C 
ATOM     20  O   UNL     1      39.553   1.540  15.049  0.00  0.00    +0.000 OA
BRANCH  19  21
ATOM     21  C   UNL     1      39.235   0.202  13.092  0.00  0.00    +0.000 A 
ATOM     22  C   UNL     1      38.899   0.726  11.861  0.00  0.00    +0.000 A 
ATOM     23  C   UNL     1      39.290   0.127  10.686  0.00  0.00    +0.000 A 
ATOM     24  C   UNL     1      40.031  -1.015  10.728  0.00  0.00    +0.000 A 
ATOM     25  C   UNL     1      40.379  -1.560  11.940  0.00  0.00    +0.000 A 
ATOM     26  C   UNL     1      41.138  -2.716  11.987  0.00  0.00    +0.000 A 
ATOM     27  C   UNL     1      41.488  -3.243  13.190  0.00  0.00    +0.000 A 
ATOM     28  C   UNL     1      41.101  -2.648  14.366  0.00  0.00    +0.000 A 
ATOM     29  C   UNL     1      40.344  -1.497  14.322  0.00  0.00    +0.000 A 
ATOM     30  C   UNL     1      39.982  -0.950  13.132  0.00  0.00    +0.000 A 
ENDBRANCH  19  21
ENDBRANCH   1  18
TORSDOF 8
ENDMDL
MODEL 9
REMARK VINA RESULT:      -6.7      3.493      8.278
REMARK  Name = 
REMARK  8 active torsions:
REMARK  status: ('A' for Active; 'I' for Inactive)
REMARK    1  A    between atoms: C_2  and  C_3
REMARK    2  A    between atoms: C_3  and  C_4
REMARK    3  A    between atoms: C_4  and  N_5
REMARK    4  A    between atoms: C_6  and  C_8
REMARK    5  A    between atoms: C_8  and  N_18
REMARK    6  A    between atoms: C_9  and  C_10
REMARK    7  A    between atoms: C_13  and  O_14
REMARK    8  A    between atoms: C_19  and  C_21
REMARK                            x       y       z     vdW  Elec       q    Type
REMARK                         _______ _______ _______ _____ _____    ______ ____
ROOT
ATOM      1  C   UNL     1      36.447   2.271  15.722  0.00  0.00    +0.000 C 
ATOM      2  C   UNL     1      35.889   2.457  14.517  0.00  0.00    +0.000 C 
ENDROOT
BRANCH   2   3
ATOM      3  C   UNL     1      35.714   3.821  14.025  0.00  0.00    +0.000 A 
ATOM      4  C   UNL     1      34.785   4.689  14.577  0.00  0.00    +0.000 A 
ATOM      5  C   UNL     1      34.639   5.950  14.058  0.00  0.00    +0.000 A 
ATOM      6  C   UNL     1      35.389   6.423  12.981  0.00  0.00    +0.000 A 
ATOM      7  C   UNL     1      36.304   5.520  12.464  0.00  0.00    +0.000 A 
ATOM      8  C   UNL     1      36.470   4.248  12.967  0.00  0.00    +0.000 A 
BRANCH   6   9
ATOM      9  O   UNL     1      35.267   7.676  12.439  0.00  0.00    +0.000 OA
ATOM     10  C   UNL     1      34.532   8.708  13.096  0.00  0.00    +0.000 C 
ENDBRANCH   6   9
ENDBRANCH   2   3
BRANCH   1  12
ATOM     11  N   UNL     1      35.731   0.283  17.127  0.00  0.00    +0.000 NA
ATOM     12  C   UNL     1      36.620   0.932  16.201  0.00  0.00    +0.000 C 
ATOM     13  O   UNL     1      37.601   0.250  15.810  0.00  0.00    +0.000 OA
BRANCH  11  14
ATOM     14  C   UNL     1      36.001  -1.095  17.572  0.00  0.00    +0.000 C 
BRANCH  14  15
ATOM     15  C   UNL     1      36.354  -0.940  19.055  0.00  0.00    +0.000 C 
BRANCH  15  17
ATOM     16  C   UNL     1      38.210  -2.231  18.141  0.00  0.00    +0.000 C 
ATOM     17  C   UNL     1      37.538  -1.783  19.429  0.00  0.00    +0.000 C 
ENDBRANCH  15  17
ENDBRANCH  14  15
ENDBRANCH  11  14
ENDBRANCH   1  12
BRANCH   1  18
ATOM     18  N   UNL     1      36.819   3.461  16.415  0.00  0.00    +0.000 NA
ATOM     19  C   UNL     1      38.188   3.898  16.386  0.00  0.00    +0.000 C 
ATOM     20  O   UNL     1      38.988   3.177  15.736  0.00  0.00    +0.000 OA
BRANCH  19  21
ATOM     21  C   UNL     1      38.600   5.112  17.087  0.00  0.00    +0.000 A 
ATOM     22  C   UNL     1      38.897   5.048  18.433  0.00  0.00    +0.000 A 
ATOM     23  C   UNL     1      39.283   6.160  19.145  0.00  0.00    +0.000 A 
ATOM     24  C   UNL     1      39.377   7.363  18.513  0.00  0.00    +0.000 A 
ATOM     25  C   UNL     1      39.086   7.458  17.175  0.00  0.00    +0.000 A 
ATOM     26  C   UNL     1      39.188   8.676  16.527  0.00  0.00    +0.000 A 
ATOM     27  C   UNL     1      38.908   8.759  15.200  0.00  0.00    +0.000 A 
ATOM     28  C   UNL     1      38.525   7.651  14.484  0.00  0.00    +0.000 A 
ATOM     29  C   UNL     1      38.421   6.436  15.126  0.00  0.00    +0.000 A 
ATOM     30  C   UNL     1      38.695   6.327  16.453  0.00  0.00    +0.000 A 
ENDBRANCH  19  21
ENDBRANCH   1  18
TORSDOF 8
ENDMDL
MODEL 10
REMARK VINA RESULT:      -6.7      1.173      2.396
REMARK  Name = 
REMARK  8 active torsions:
REMARK  status: ('A' for Active; 'I' for Inactive)
REMARK    1  A    between atoms: C_2  and  C_3
REMARK    2  A    between atoms: C_3  and  C_4
REMARK    3  A    between atoms: C_4  and  N_5
REMARK    4  A    between atoms: C_6  and  C_8
REMARK    5  A    between atoms: C_8  and  N_18
REMARK    6  A    between atoms: C_9  and  C_10
REMARK    7  A    between atoms: C_13  and  O_14
REMARK    8  A    between atoms: C_19  and  C_21
REMARK                            x       y       z     vdW  Elec       q    Type
REMARK                         _______ _______ _______ _____ _____    ______ ____
ROOT
ATOM      1  C   UNL     1      39.327   2.139  14.641  0.00  0.00    +0.000 C 
ATOM      2  C   UNL     1      40.199   2.253  13.628  0.00  0.00    +0.000 C 
ENDROOT
BRANCH   2   3
ATOM      3  C   UNL     1      40.559   1.055  12.872  0.00  0.00    +0.000 A 
ATOM      4  C   UNL     1      39.995   0.767  11.639  0.00  0.00    +0.000 A 
ATOM      5  C   UNL     1      40.344  -0.387  10.984  0.00  0.00    +0.000 A 
ATOM      6  C   UNL     1      41.256  -1.308  11.497  0.00  0.00    +0.000 A 
ATOM      7  C   UNL     1      41.793  -0.976  12.731  0.00  0.00    +0.000 A 
ATOM      8  C   UNL     1      41.459   0.176  13.409  0.00  0.00    +0.000 A 
BRANCH   6   9
ATOM      9  O   UNL     1      41.625  -2.470  10.870  0.00  0.00    +0.000 OA
ATOM     10  C   UNL     1      42.746  -3.235  11.311  0.00  0.00    +0.000 C 
ENDBRANCH   6   9
ENDBRANCH   2   3
BRANCH   1  12
ATOM     11  N   UNL     1      39.655   4.576  15.269  0.00  0.00    +0.000 NA
ATOM     12  C   UNL     1      38.973   3.314  15.379  0.00  0.00    +0.000 C 
ATOM     13  O   UNL     1      38.010   3.279  16.187  0.00  0.00    +0.000 OA
BRANCH  11  14
ATOM     14  C   UNL     1      39.225   5.726  16.082  0.00  0.00    +0.000 C 
BRANCH  14  15
ATOM     15  C   UNL     1      40.513   6.196  16.766  0.00  0.00    +0.000 C 
BRANCH  15  17
ATOM     16  C   UNL     1      39.079   5.461  18.595  0.00  0.00    +0.000 C 
ATOM     17  C   UNL     1      40.389   6.154  18.261  0.00  0.00    +0.000 C 
ENDBRANCH  15  17
ENDBRANCH  14  15
ENDBRANCH  11  14
ENDBRANCH   1  12
BRANCH   1  18
ATOM     18  N   UNL     1      38.833   0.822  14.878  0.00  0.00    +0.000 NA
ATOM     19  C   UNL     1      37.601   0.408  14.265  0.00  0.00    +0.000 C 
ATOM     20  O   UNL     1      37.025   1.261  13.542  0.00  0.00    +0.000 OA
BRANCH  19  21
ATOM     21  C   UNL     1      37.068  -0.934  14.490  0.00  0.00    +0.000 A 
ATOM     22  C   UNL     1      37.551  -1.988  13.742  0.00  0.00    +0.000 A 
ATOM     23  C   UNL     1      37.083  -3.271  13.907  0.00  0.00    +0.000 A 
ATOM     24  C   UNL     1      36.114  -3.519  14.831  0.00  0.00    +0.000 A 
ATOM     25  C   UNL     1      35.613  -2.489  15.590  0.00  0.00    +0.000 A 
ATOM     26  C   UNL     1      34.634  -2.738  16.537  0.00  0.00    +0.000 A 
ATOM     27  C   UNL     1      34.151  -1.716  17.290  0.00  0.00    +0.000 A 
ATOM     28  C   UNL     1      34.618  -0.434  17.131  0.00  0.00    +0.000 A 
ATOM     29  C   UNL     1      35.592  -0.183  16.189  0.00  0.00    +0.000 A 
ATOM     30  C   UNL     1      36.091  -1.187  15.423  0.00  0.00    +0.000 A 
ENDBRANCH  19  21
ENDBRANCH   1  18
TORSDOF 8
ENDMDL
