MODEL 1
REMARK VINA RESULT:      -6.5      0.000      0.000
REMARK  Name = 
REMARK  9 active torsions:
REMARK  status: ('A' for Active; 'I' for Inactive)
REMARK    1  A    between atoms: O_2  and  C_3
REMARK    2  A    between atoms: C_5  and  C_6
REMARK    3  A    between atoms: C_6  and  N_7
REMARK    4  A    between atoms: C_8  and  C_10
REMARK    5  A    between atoms: C_15  and  S_16
REMARK    6  A    between atoms: S_16  and  C_17
REMARK    7  A    between atoms: C_17  and  C_18
REMARK    8  A    between atoms: C_25  and  O_26
REMARK    9  A    between atoms: C_28  and  O_29
REMARK                            x       y       z     vdW  Elec       q    Type
REMARK                         _______ _______ _______ _____ _____    ______ ____
ROOT
ATOM      1  N   UNL     1      35.020   0.063  16.277  0.00  0.00    +0.000 NA
ATOM      2  C   UNL     1      35.180  -1.121  17.040  0.00  0.00    +0.000 C 
ATOM      3  O   UNL     1      35.135  -1.066  18.282  0.00  0.00    +0.000 OA
ENDROOT
BRANCH   2   4
ATOM      4  C   UNL     1      35.389  -2.381  16.341  0.00  0.00    +0.000 A 
ATOM      5  C   UNL     1      34.355  -3.182  15.910  0.00  0.00    +0.000 A 
ATOM      6  C   UNL     1      34.570  -4.350  15.216  0.00  0.00    +0.000 A 
ATOM      7  C   UNL     1      35.862  -4.772  14.921  0.00  0.00    +0.000 A 
ATOM      8  C   UNL     1      36.892  -3.961  15.362  0.00  0.00    +0.000 A 
ATOM      9  C   UNL     1      36.697  -2.802  16.048  0.00  0.00    +0.000 A 
BRANCH   9  10
ATOM     10  S   UNL     1      38.008  -1.791  16.710  0.00  0.00    +0.000 S 
BRANCH  10  11
ATOM     11  C   UNL     1      39.233  -1.286  15.545  0.00  0.00    +0.000 C 
BRANCH  11  12
ATOM     12  C   UNL     1      38.828  -0.179  14.691  0.00  0.00    +0.000 A 
ATOM     13  C   UNL     1      37.622  -0.260  14.015  0.00  0.00    +0.000 A 
ATOM     14  C   UNL     1      37.178   0.749  13.183  0.00  0.00    +0.000 A 
ATOM     15  C   UNL     1      38.009   1.852  13.061  0.00  0.00    +0.000 A 
ATOM     16  C   UNL     1      39.213   1.975  13.710  0.00  0.00    +0.000 A 
ATOM     17  C   UNL     1      39.626   0.952  14.533  0.00  0.00    +0.000 A 
ENDBRANCH  11  12
ENDBRANCH  10  11
ENDBRANCH   9  10
ENDBRANCH   2   4
BRANCH   1  18
ATOM     18  C   UNL     1      34.842   1.348  16.819  0.00  0.00    +0.000 C 
BRANCH  18  21
ATOM     19  C   UNL     1      37.594   3.937  16.369  0.00  0.00    +0.000 A 
ATOM     20  C   UNL     1      36.860   2.833  16.831  0.00  0.00    +0.000 A 
ATOM     21  C   UNL     1      35.647   2.456  16.270  0.00  0.00    +0.000 A 
ATOM     22  C   UNL     1      35.189   3.240  15.206  0.00  0.00    +0.000 A 
ATOM     23  C   UNL     1      35.925   4.341  14.757  0.00  0.00    +0.000 A 
ATOM     24  C   UNL     1      37.133   4.698  15.337  0.00  0.00    +0.000 A 
BRANCH  19  26
ATOM     25  C   UNL     1      38.858   5.037  18.176  0.00  0.00    +0.000 C 
ATOM     26  O   UNL     1      38.806   4.274  16.958  0.00  0.00    +0.000 OA
ENDBRANCH  19  26
BRANCH  23  27
ATOM     27  O   UNL     1      35.461   5.118  13.697  0.00  0.00    +0.000 OA
ATOM     28  C   UNL     1      34.530   6.151  13.943  0.00  0.00    +0.000 C 
ENDBRANCH  23  27
BRANCH  24  29
ATOM     29  O   UNL     1      37.816   5.815  14.845  0.00  0.00    +0.000 OA
ATOM     30  C   UNL     1      38.819   5.580  13.822  0.00  0.00    +0.000 C 
ENDBRANCH  24  29
ENDBRANCH  18  21
ENDBRANCH   1  18
TORSDOF 9
ENDMDL
MODEL 2
REMARK VINA RESULT:      -6.3      1.567      3.113
REMARK  Name = 
REMARK  9 active torsions:
REMARK  status: ('A' for Active; 'I' for Inactive)
REMARK    1  A    between atoms: O_2  and  C_3
REMARK    2  A    between atoms: C_5  and  C_6
REMARK    3  A    between atoms: C_6  and  N_7
REMARK    4  A    between atoms: C_8  and  C_10
REMARK    5  A    between atoms: C_15  and  S_16
REMARK    6  A    between atoms: S_16  and  C_17
REMARK    7  A    between atoms: C_17  and  C_18
REMARK    8  A    between atoms: C_25  and  O_26
REMARK    9  A    between atoms: C_28  and  O_29
REMARK                            x       y       z     vdW  Elec       q    Type
REMARK                         _______ _______ _______ _____ _____    ______ ____
ROOT
ATOM      1  N   UNL     1      36.360   0.461  17.196  0.00  0.00    +0.000 NA
ATOM      2  C   UNL     1      35.901  -0.802  17.649  0.00  0.00    +0.000 C 
ATOM      3  O   UNL     1      34.685  -0.985  17.839  0.00  0.00    +0.000 OA
ENDROOT
BRANCH   2   4
ATOM      4  C   UNL     1      36.875  -1.861  17.873  0.00  0.00    +0.000 A 
ATOM      5  C   UNL     1      37.588  -1.992  19.044  0.00  0.00    +0.000 A 
ATOM      6  C   UNL     1      38.476  -3.021  19.253  0.00  0.00    +0.000 A 
ATOM      7  C   UNL     1      38.691  -3.983  18.271  0.00  0.00    +0.000 A 
ATOM      8  C   UNL     1      37.972  -3.839  17.098  0.00  0.00    +0.000 A 
ATOM      9  C   UNL     1      37.088  -2.828  16.876  0.00  0.00    +0.000 A 
BRANCH   9  10
ATOM     10  S   UNL     1      36.224  -2.566  15.338  0.00  0.00    +0.000 S 
BRANCH  10  11
ATOM     11  C   UNL     1      37.252  -2.236  13.943  0.00  0.00    +0.000 C 
BRANCH  11  12
ATOM     12  C   UNL     1      38.137  -1.091  14.106  0.00  0.00    +0.000 A 
ATOM     13  C   UNL     1      39.467  -1.312  14.426  0.00  0.00    +0.000 A 
ATOM     14  C   UNL     1      40.360  -0.274  14.604  0.00  0.00    +0.000 A 
ATOM     15  C   UNL     1      39.852   1.006  14.443  0.00  0.00    +0.000 A 
ATOM     16  C   UNL     1      38.542   1.273  14.128  0.00  0.00    +0.000 A 
ATOM     17  C   UNL     1      37.677   0.215  13.957  0.00  0.00    +0.000 A 
ENDBRANCH  11  12
ENDBRANCH  10  11
ENDBRANCH   9  10
ENDBRANCH   2   4
BRANCH   1  18
ATOM     18  C   UNL     1      35.538   1.578  16.969  0.00  0.00    +0.000 C 
BRANCH  18  21
ATOM     19  C   UNL     1      36.338   4.541  14.720  0.00  0.00    +0.000 A 
ATOM     20  C   UNL     1      35.705   3.419  15.278  0.00  0.00    +0.000 A 
ATOM     21  C   UNL     1      36.159   2.807  16.439  0.00  0.00    +0.000 A 
ATOM     22  C   UNL     1      37.290   3.374  17.034  0.00  0.00    +0.000 A 
ATOM     23  C   UNL     1      37.916   4.489  16.468  0.00  0.00    +0.000 A 
ATOM     24  C   UNL     1      37.445   5.079  15.305  0.00  0.00    +0.000 A 
BRANCH  19  26
ATOM     25  C   UNL     1      34.743   6.046  13.595  0.00  0.00    +0.000 C 
ATOM     26  O   UNL     1      35.846   5.123  13.559  0.00  0.00    +0.000 OA
ENDBRANCH  19  26
BRANCH  23  27
ATOM     27  O   UNL     1      39.045   5.047  17.065  0.00  0.00    +0.000 OA
ATOM     28  C   UNL     1      39.044   5.310  18.453  0.00  0.00    +0.000 C 
ENDBRANCH  23  27
BRANCH  24  29
ATOM     29  O   UNL     1      38.122   6.188  14.785  0.00  0.00    +0.000 OA
ATOM     30  C   UNL     1      37.725   7.495  15.275  0.00  0.00    +0.000 C 
ENDBRANCH  24  29
ENDBRANCH  18  21
ENDBRANCH   1  18
TORSDOF 9
ENDMDL
MODEL 3
REMARK VINA RESULT:      -6.0      3.104      5.033
REMARK  Name = 
REMARK  9 active torsions:
REMARK  status: ('A' for Active; 'I' for Inactive)
REMARK    1  A    between atoms: O_2  and  C_3
REMARK    2  A    between atoms: C_5  and  C_6
REMARK    3  A    between atoms: C_6  and  N_7
REMARK    4  A    between atoms: C_8  and  C_10
REMARK    5  A    between atoms: C_15  and  S_16
REMARK    6  A    between atoms: S_16  and  C_17
REMARK    7  A    between atoms: C_17  and  C_18
REMARK    8  A    between atoms: C_25  and  O_26
REMARK    9  A    between atoms: C_28  and  O_29
REMARK                            x       y       z     vdW  Elec       q    Type
REMARK                         _______ _______ _______ _____ _____    ______ ____
ROOT
ATOM      1  N   UNL     1      38.288   3.615  16.504  0.00  0.00    +0.000 NA
ATOM      2  C   UNL     1      37.228   3.183  15.667  0.00  0.00    +0.000 C 
ATOM      3  O   UNL     1      36.885   3.881  14.696  0.00  0.00    +0.000 OA
ENDROOT
BRANCH   2   4
ATOM      4  C   UNL     1      36.571   1.920  15.967  0.00  0.00    +0.000 A 
ATOM      5  C   UNL     1      35.558   1.800  16.892  0.00  0.00    +0.000 A 
ATOM      6  C   UNL     1      34.921   0.605  17.135  0.00  0.00    +0.000 A 
ATOM      7  C   UNL     1      35.286  -0.546  16.443  0.00  0.00    +0.000 A 
ATOM      8  C   UNL     1      36.307  -0.414  15.520  0.00  0.00    +0.000 A 
ATOM      9  C   UNL     1      36.945   0.761  15.266  0.00  0.00    +0.000 A 
BRANCH   9  10
ATOM     10  S   UNL     1      38.327   0.935  14.153  0.00  0.00    +0.000 S 
BRANCH  10  11
ATOM     11  C   UNL     1      38.417  -0.269  12.867  0.00  0.00    +0.000 C 
BRANCH  11  12
ATOM     12  C   UNL     1      39.464  -1.265  13.049  0.00  0.00    +0.000 A 
ATOM     13  C   UNL     1      39.967  -1.483  14.321  0.00  0.00    +0.000 A 
ATOM     14  C   UNL     1      40.965  -2.405  14.566  0.00  0.00    +0.000 A 
ATOM     15  C   UNL     1      41.437  -3.104  13.466  0.00  0.00    +0.000 A 
ATOM     16  C   UNL     1      40.969  -2.921  12.188  0.00  0.00    +0.000 A 
ATOM     17  C   UNL     1      39.973  -1.994  11.977  0.00  0.00    +0.000 A 
ENDBRANCH  11  12
ENDBRANCH  10  11
ENDBRANCH   9  10
ENDBRANCH   2   4
BRANCH   1  18
ATOM     18  C   UNL     1      38.990   4.823  16.351  0.00  0.00    +0.000 C 
BRANCH  18  21
ATOM     19  C   UNL     1      39.917   6.525  19.626  0.00  0.00    +0.000 A 
ATOM     20  C   UNL     1      39.942   5.680  18.504  0.00  0.00    +0.000 A 
ATOM     21  C   UNL     1      39.007   5.771  17.481  0.00  0.00    +0.000 A 
ATOM     22  C   UNL     1      38.029   6.761  17.625  0.00  0.00    +0.000 A 
ATOM     23  C   UNL     1      38.011   7.595  18.747  0.00  0.00    +0.000 A 
ATOM     24  C   UNL     1      38.955   7.481  19.757  0.00  0.00    +0.000 A 
BRANCH  19  26
ATOM     25  C   UNL     1      42.281   6.475  20.322  0.00  0.00    +0.000 C 
ATOM     26  O   UNL     1      40.876   6.400  20.622  0.00  0.00    +0.000 OA
ENDBRANCH  19  26
BRANCH  23  27
ATOM     27  O   UNL     1      37.033   8.578  18.884  0.00  0.00    +0.000 OA
ATOM     28  C   UNL     1      36.914   9.586  17.903  0.00  0.00    +0.000 C 
ENDBRANCH  23  27
BRANCH  24  29
ATOM     29  O   UNL     1      38.875   8.340  20.858  0.00  0.00    +0.000 OA
ATOM     30  C   UNL     1      39.491   9.647  20.723  0.00  0.00    +0.000 C 
ENDBRANCH  24  29
ENDBRANCH  18  21
ENDBRANCH   1  18
TORSDOF 9
ENDMDL
MODEL 4
REMARK VINA RESULT:      -6.0      1.726      2.350
REMARK  Name = 
REMARK  9 active torsions:
REMARK  status: ('A' for Active; 'I' for Inactive)
REMARK    1  A    between atoms: O_2  and  C_3
REMARK    2  A    between atoms: C_5  and  C_6
REMARK    3  A    between atoms: C_6  and  N_7
REMARK    4  A    between atoms: C_8  and  C_10
REMARK    5  A    between atoms: C_15  and  S_16
REMARK    6  A    between atoms: S_16  and  C_17
REMARK    7  A    between atoms: C_17  and  C_18
REMARK    8  A    between atoms: C_25  and  O_26
REMARK    9  A    between atoms: C_28  and  O_29
REMARK                            x       y       z     vdW  Elec       q    Type
REMARK                         _______ _______ _______ _____ _____    ______ ____
ROOT
ATOM      1  N   UNL     1      35.041   0.241  16.372  0.00  0.00    +0.000 NA
ATOM      2  C   UNL     1      36.101  -0.631  16.728  0.00  0.00    +0.000 C 
ATOM      3  O   UNL     1      36.950  -0.263  17.558  0.00  0.00    +0.000 OA
ENDROOT
BRANCH   2   4
ATOM      4  C   UNL     1      36.160  -1.948  16.111  0.00  0.00    +0.000 A 
ATOM      5  C   UNL     1      35.731  -3.095  16.741  0.00  0.00    +0.000 A 
ATOM      6  C   UNL     1      35.759  -4.326  16.129  0.00  0.00    +0.000 A 
ATOM      7  C   UNL     1      36.232  -4.459  14.827  0.00  0.00    +0.000 A 
ATOM      8  C   UNL     1      36.663  -3.302  14.205  0.00  0.00    +0.000 A 
ATOM      9  C   UNL     1      36.640  -2.076  14.796  0.00  0.00    +0.000 A 
BRANCH   9  10
ATOM     10  S   UNL     1      37.280  -0.588  14.052  0.00  0.00    +0.000 S 
BRANCH  10  11
ATOM     11  C   UNL     1      38.265  -0.830  12.608  0.00  0.00    +0.000 C 
BRANCH  11  12
ATOM     12  C   UNL     1      39.481  -1.599  12.833  0.00  0.00    +0.000 A 
ATOM     13  C   UNL     1      40.208  -1.379  13.992  0.00  0.00    +0.000 A 
ATOM     14  C   UNL     1      41.374  -2.067  14.267  0.00  0.00    +0.000 A 
ATOM     15  C   UNL     1      41.777  -2.994  13.317  0.00  0.00    +0.000 A 
ATOM     16  C   UNL     1      41.089  -3.244  12.156  0.00  0.00    +0.000 A 
ATOM     17  C   UNL     1      39.930  -2.542  11.912  0.00  0.00    +0.000 A 
ENDBRANCH  11  12
ENDBRANCH  10  11
ENDBRANCH   9  10
ENDBRANCH   2   4
BRANCH   1  18
ATOM     18  C   UNL     1      34.877   1.547  16.864  0.00  0.00    +0.000 C 
BRANCH  18  21
ATOM     19  C   UNL     1      37.565   4.165  16.236  0.00  0.00    +0.000 A 
ATOM     20  C   UNL     1      36.858   3.078  16.774  0.00  0.00    +0.000 A 
ATOM     21  C   UNL     1      35.655   2.633  16.240  0.00  0.00    +0.000 A 
ATOM     22  C   UNL     1      35.181   3.329  15.123  0.00  0.00    +0.000 A 
ATOM     23  C   UNL     1      35.892   4.413  14.598  0.00  0.00    +0.000 A 
ATOM     24  C   UNL     1      37.089   4.840  15.153  0.00  0.00    +0.000 A 
BRANCH  19  26
ATOM     25  C   UNL     1      38.858   4.921  18.194  0.00  0.00    +0.000 C 
ATOM     26  O   UNL     1      38.767   4.572  16.802  0.00  0.00    +0.000 OA
ENDBRANCH  19  26
BRANCH  23  27
ATOM     27  O   UNL     1      35.412   5.103  13.486  0.00  0.00    +0.000 OA
ATOM     28  C   UNL     1      34.488   6.156  13.662  0.00  0.00    +0.000 C 
ENDBRANCH  23  27
BRANCH  24  29
ATOM     29  O   UNL     1      37.746   5.936  14.585  0.00  0.00    +0.000 OA
ATOM     30  C   UNL     1      38.753   5.655  13.578  0.00  0.00    +0.000 C 
ENDBRANCH  24  29
ENDBRANCH  18  21
ENDBRANCH   1  18
TORSDOF 9
ENDMDL
MODEL 5
REMARK VINA RESULT:      -6.0      2.231      3.197
REMARK  Name = 
REMARK  9 active torsions:
REMARK  status: ('A' for Active; 'I' for Inactive)
REMARK    1  A    between atoms: O_2  and  C_3
REMARK    2  A    between atoms: C_5  and  C_6
REMARK    3  A    between atoms: C_6  and  N_7
REMARK    4  A    between atoms: C_8  and  C_10
REMARK    5  A    between atoms: C_15  and  S_16
REMARK    6  A    between atoms: S_16  and  C_17
REMARK    7  A    between atoms: C_17  and  C_18
REMARK    8  A    between atoms: C_25  and  O_26
REMARK    9  A    between atoms: C_28  and  O_29
REMARK                            x       y       z     vdW  Elec       q    Type
REMARK                         _______ _______ _______ _____ _____    ______ ____
ROOT
ATOM      1  N   UNL     1      35.744   0.753  16.634  0.00  0.00    +0.000 NA
ATOM      2  C   UNL     1      35.350  -0.474  17.225  0.00  0.00    +0.000 C 
ATOM      3  O   UNL     1      34.144  -0.777  17.269  0.00  0.00    +0.000 OA
ENDROOT
BRANCH   2   4
ATOM      4  C   UNL     1      36.377  -1.354  17.762  0.00  0.00    +0.000 A 
ATOM      5  C   UNL     1      36.873  -1.239  19.041  0.00  0.00    +0.000 A 
ATOM      6  C   UNL     1      37.816  -2.104  19.545  0.00  0.00    +0.000 A 
ATOM      7  C   UNL     1      38.313  -3.144  18.765  0.00  0.00    +0.000 A 
ATOM      8  C   UNL     1      37.810  -3.247  17.481  0.00  0.00    +0.000 A 
ATOM      9  C   UNL     1      36.875  -2.401  16.968  0.00  0.00    +0.000 A 
BRANCH   9  10
ATOM     10  S   UNL     1      36.285  -2.453  15.286  0.00  0.00    +0.000 S 
BRANCH  10  11
ATOM     11  C   UNL     1      37.525  -2.721  14.060  0.00  0.00    +0.000 C 
BRANCH  11  12
ATOM     12  C   UNL     1      38.712  -1.892  14.216  0.00  0.00    +0.000 A 
ATOM     13  C   UNL     1      39.952  -2.505  14.292  0.00  0.00    +0.000 A 
ATOM     14  C   UNL     1      41.118  -1.782  14.447  0.00  0.00    +0.000 A 
ATOM     15  C   UNL     1      40.979  -0.404  14.522  0.00  0.00    +0.000 A 
ATOM     16  C   UNL     1      39.772   0.246  14.453  0.00  0.00    +0.000 A 
ATOM     17  C   UNL     1      38.628  -0.504  14.297  0.00  0.00    +0.000 A 
ENDBRANCH  11  12
ENDBRANCH  10  11
ENDBRANCH   9  10
ENDBRANCH   2   4
BRANCH   1  18
ATOM     18  C   UNL     1      34.861   1.710  16.105  0.00  0.00    +0.000 C 
BRANCH  18  21
ATOM     19  C   UNL     1      36.828   3.086  13.153  0.00  0.00    +0.000 A 
ATOM     20  C   UNL     1      36.284   2.208  14.104  0.00  0.00    +0.000 A 
ATOM     21  C   UNL     1      35.360   2.619  15.056  0.00  0.00    +0.000 A 
ATOM     22  C   UNL     1      34.990   3.967  15.015  0.00  0.00    +0.000 A 
ATOM     23  C   UNL     1      35.540   4.834  14.066  0.00  0.00    +0.000 A 
ATOM     24  C   UNL     1      36.465   4.399  13.128  0.00  0.00    +0.000 A 
BRANCH  19  26
ATOM     25  C   UNL     1      37.403   1.601  11.272  0.00  0.00    +0.000 C 
ATOM     26  O   UNL     1      37.747   2.629  12.217  0.00  0.00    +0.000 OA
ENDBRANCH  19  26
BRANCH  23  27
ATOM     27  O   UNL     1      35.167   6.176  14.033  0.00  0.00    +0.000 OA
ATOM     28  C   UNL     1      33.853   6.528  13.654  0.00  0.00    +0.000 C 
ENDBRANCH  23  27
BRANCH  24  29
ATOM     29  O   UNL     1      36.983   5.319  12.211  0.00  0.00    +0.000 OA
ATOM     30  C   UNL     1      36.353   5.378  10.905  0.00  0.00    +0.000 C 
ENDBRANCH  24  29
ENDBRANCH  18  21
ENDBRANCH   1  18
TORSDOF 9
ENDMDL
MODEL 6
REMARK VINA RESULT:      -5.9      4.277      6.822
REMARK  Name = 
REMARK  9 active torsions:
REMARK  status: ('A' for Active; 'I' for Inactive)
REMARK    1  A    between atoms: O_2  and  C_3
REMARK    2  A    between atoms: C_5  and  C_6
REMARK    3  A    between atoms: C_6  and  N_7
REMARK    4  A    between atoms: C_8  and  C_10
REMARK    5  A    between atoms: C_15  and  S_16
REMARK    6  A    between atoms: S_16  and  C_17
REMARK    7  A    between atoms: C_17  and  C_18
REMARK    8  A    between atoms: C_25  and  O_26
REMARK    9  A    between atoms: C_28  and  O_29
REMARK                            x       y       z     vdW  Elec       q    Type
REMARK                         _______ _______ _______ _____ _____    ______ ____
ROOT
ATOM      1  N   UNL     1      38.579   0.200  15.067  0.00  0.00    +0.000 NA
ATOM      2  C   UNL     1      37.251  -0.001  14.610  0.00  0.00    +0.000 C 
ATOM      3  O   UNL     1      36.991   0.120  13.400  0.00  0.00    +0.000 OA
ENDROOT
BRANCH   2   4
ATOM      4  C   UNL     1      36.224  -0.353  15.578  0.00  0.00    +0.000 A 
ATOM      5  C   UNL     1      35.579   0.577  16.364  0.00  0.00    +0.000 A 
ATOM      6  C   UNL     1      34.583   0.230  17.247  0.00  0.00    +0.000 A 
ATOM      7  C   UNL     1      34.185  -1.096  17.382  0.00  0.00    +0.000 A 
ATOM      8  C   UNL     1      34.842  -2.021  16.591  0.00  0.00    +0.000 A 
ATOM      9  C   UNL     1      35.828  -1.695  15.711  0.00  0.00    +0.000 A 
BRANCH   9  10
ATOM     10  S   UNL     1      36.755  -2.879  14.754  0.00  0.00    +0.000 S 
BRANCH  10  11
ATOM     11  C   UNL     1      38.369  -3.247  15.367  0.00  0.00    +0.000 C 
BRANCH  11  12
ATOM     12  C   UNL     1      38.451  -3.349  16.817  0.00  0.00    +0.000 A 
ATOM     13  C   UNL     1      38.519  -4.606  17.397  0.00  0.00    +0.000 A 
ATOM     14  C   UNL     1      38.591  -4.778  18.766  0.00  0.00    +0.000 A 
ATOM     15  C   UNL     1      38.591  -3.621  19.530  0.00  0.00    +0.000 A 
ATOM     16  C   UNL     1      38.523  -2.357  18.999  0.00  0.00    +0.000 A 
ATOM     17  C   UNL     1      38.454  -2.219  17.631  0.00  0.00    +0.000 A 
ENDBRANCH  11  12
ENDBRANCH  10  11
ENDBRANCH   9  10
ENDBRANCH   2   4
BRANCH   1  18
ATOM     18  C   UNL     1      39.660   0.572  14.251  0.00  0.00    +0.000 C 
BRANCH  18  21
ATOM     19  C   UNL     1      42.823  -1.502  13.825  0.00  0.00    +0.000 A 
ATOM     20  C   UNL     1      41.896  -0.559  14.298  0.00  0.00    +0.000 A 
ATOM     21  C   UNL     1      40.598  -0.478  13.810  0.00  0.00    +0.000 A 
ATOM     22  C   UNL     1      40.256  -1.398  12.814  0.00  0.00    +0.000 A 
ATOM     23  C   UNL     1      41.187  -2.331  12.347  0.00  0.00    +0.000 A 
ATOM     24  C   UNL     1      42.479  -2.387  12.849  0.00  0.00    +0.000 A 
BRANCH  19  26
ATOM     25  C   UNL     1      44.737  -0.374  14.893  0.00  0.00    +0.000 C 
ATOM     26  O   UNL     1      44.109  -1.548  14.347  0.00  0.00    +0.000 OA
ENDBRANCH  19  26
BRANCH  23  27
ATOM     27  O   UNL     1      40.839  -3.243  11.352  0.00  0.00    +0.000 OA
ATOM     28  C   UNL     1      40.582  -2.785  10.042  0.00  0.00    +0.000 C 
ENDBRANCH  23  27
BRANCH  24  29
ATOM     29  O   UNL     1      43.365  -3.339  12.332  0.00  0.00    +0.000 OA
ATOM     30  C   UNL     1      44.234  -2.915  11.250  0.00  0.00    +0.000 C 
ENDBRANCH  24  29
ENDBRANCH  18  21
ENDBRANCH   1  18
TORSDOF 9
ENDMDL
MODEL 7
REMARK VINA RESULT:      -5.9      2.336      6.780
REMARK  Name = 
REMARK  9 active torsions:
REMARK  status: ('A' for Active; 'I' for Inactive)
REMARK    1  A    between atoms: O_2  and  C_3
REMARK    2  A    between atoms: C_5  and  C_6
REMARK    3  A    between atoms: C_6  and  N_7
REMARK    4  A    between atoms: C_8  and  C_10
REMARK    5  A    between atoms: C_15  and  S_16
REMARK    6  A    between atoms: S_16  and  C_17
REMARK    7  A    between atoms: C_17  and  C_18
REMARK    8  A    between atoms: C_25  and  O_26
REMARK    9  A    between atoms: C_28  and  O_29
REMARK                            x       y       z     vdW  Elec       q    Type
REMARK                         _______ _______ _______ _____ _____    ______ ____
ROOT
ATOM      1  N   UNL     1      35.876   1.538  16.093  0.00  0.00    +0.000 NA
ATOM      2  C   UNL     1      36.523   2.800  16.056  0.00  0.00    +0.000 C 
ATOM      3  O   UNL     1      37.196   3.176  17.032  0.00  0.00    +0.000 OA
ENDROOT
BRANCH   2   4
ATOM      4  C   UNL     1      36.385   3.622  14.864  0.00  0.00    +0.000 A 
ATOM      5  C   UNL     1      35.353   4.514  14.680  0.00  0.00    +0.000 A 
ATOM      6  C   UNL     1      35.259   5.312  13.563  0.00  0.00    +0.000 A 
ATOM      7  C   UNL     1      36.221   5.243  12.560  0.00  0.00    +0.000 A 
ATOM      8  C   UNL     1      37.251   4.341  12.754  0.00  0.00    +0.000 A 
ATOM      9  C   UNL     1      37.360   3.546  13.854  0.00  0.00    +0.000 A 
BRANCH   9  10
ATOM     10  S   UNL     1      38.622   2.308  14.080  0.00  0.00    +0.000 S 
BRANCH  10  11
ATOM     11  C   UNL     1      38.630   1.011  12.884  0.00  0.00    +0.000 C 
BRANCH  11  12
ATOM     12  C   UNL     1      39.064  -0.279  13.400  0.00  0.00    +0.000 A 
ATOM     13  C   UNL     1      39.996  -0.312  14.425  0.00  0.00    +0.000 A 
ATOM     14  C   UNL     1      40.457  -1.500  14.958  0.00  0.00    +0.000 A 
ATOM     15  C   UNL     1      39.934  -2.661  14.410  0.00  0.00    +0.000 A 
ATOM     16  C   UNL     1      39.011  -2.677  13.394  0.00  0.00    +0.000 A 
ATOM     17  C   UNL     1      38.571  -1.476  12.886  0.00  0.00    +0.000 A 
ENDBRANCH  11  12
ENDBRANCH  10  11
ENDBRANCH   9  10
ENDBRANCH   2   4
BRANCH   1  18
ATOM     18  C   UNL     1      35.899   0.657  17.186  0.00  0.00    +0.000 C 
BRANCH  18  21
ATOM     19  C   UNL     1      37.709  -2.688  17.309  0.00  0.00    +0.000 A 
ATOM     20  C   UNL     1      37.312  -1.372  17.594  0.00  0.00    +0.000 A 
ATOM     21  C   UNL     1      36.252  -0.755  16.942  0.00  0.00    +0.000 A 
ATOM     22  C   UNL     1      35.590  -1.522  15.978  0.00  0.00    +0.000 A 
ATOM     23  C   UNL     1      35.995  -2.831  15.699  0.00  0.00    +0.000 A 
ATOM     24  C   UNL     1      37.060  -3.422  16.362  0.00  0.00    +0.000 A 
BRANCH  19  26
ATOM     25  C   UNL     1      38.723  -3.478  19.411  0.00  0.00    +0.000 C 
ATOM     26  O   UNL     1      38.773  -3.265  17.989  0.00  0.00    +0.000 OA
ENDBRANCH  19  26
BRANCH  23  27
ATOM     27  O   UNL     1      35.331  -3.588  14.736  0.00  0.00    +0.000 OA
ATOM     28  C   UNL     1      34.027  -4.063  14.997  0.00  0.00    +0.000 C 
ENDBRANCH  23  27
BRANCH  24  29
ATOM     29  O   UNL     1      37.421  -4.732  16.030  0.00  0.00    +0.000 OA
ATOM     30  C   UNL     1      36.871  -5.798  16.847  0.00  0.00    +0.000 C 
ENDBRANCH  24  29
ENDBRANCH  18  21
ENDBRANCH   1  18
TORSDOF 9
ENDMDL
MODEL 8
REMARK VINA RESULT:      -5.9      3.248      7.774
REMARK  Name = 
REMARK  9 active torsions:
REMARK  status: ('A' for Active; 'I' for Inactive)
REMARK    1  A    between atoms: O_2  and  C_3
REMARK    2  A    between atoms: C_5  and  C_6
REMARK    3  A    between atoms: C_6  and  N_7
REMARK    4  A    between atoms: C_8  and  C_10
REMARK    5  A    between atoms: C_15  and  S_16
REMARK    6  A    between atoms: S_16  and  C_17
REMARK    7  A    between atoms: C_17  and  C_18
REMARK    8  A    between atoms: C_25  and  O_26
REMARK    9  A    between atoms: C_28  and  O_29
REMARK                            x       y       z     vdW  Elec       q    Type
REMARK                         _______ _______ _______ _____ _____    ______ ____
ROOT
ATOM      1  N   UNL     1      37.162   1.969  14.902  0.00  0.00    +0.000 NA
ATOM      2  C   UNL     1      36.405   2.984  15.541  0.00  0.00    +0.000 C 
ATOM      3  O   UNL     1      35.733   2.708  16.551  0.00  0.00    +0.000 OA
ENDROOT
BRANCH   2   4
ATOM      4  C   UNL     1      36.443   4.332  14.996  0.00  0.00    +0.000 A 
ATOM      5  C   UNL     1      35.589   4.769  14.008  0.00  0.00    +0.000 A 
ATOM      6  C   UNL     1      35.613   6.059  13.531  0.00  0.00    +0.000 A 
ATOM      7  C   UNL     1      36.519   6.985  14.038  0.00  0.00    +0.000 A 
ATOM      8  C   UNL     1      37.374   6.534  15.028  0.00  0.00    +0.000 A 
ATOM      9  C   UNL     1      37.362   5.262  15.512  0.00  0.00    +0.000 A 
BRANCH   9  10
ATOM     10  S   UNL     1      38.517   4.632  16.715  0.00  0.00    +0.000 S 
BRANCH  10  11
ATOM     11  C   UNL     1      38.621   5.554  18.216  0.00  0.00    +0.000 C 
BRANCH  11  12
ATOM     12  C   UNL     1      39.967   5.988  18.560  0.00  0.00    +0.000 A 
ATOM     13  C   UNL     1      40.904   6.131  17.550  0.00  0.00    +0.000 A 
ATOM     14  C   UNL     1      42.202   6.532  17.805  0.00  0.00    +0.000 A 
ATOM     15  C   UNL     1      42.515   6.785  19.132  0.00  0.00    +0.000 A 
ATOM     16  C   UNL     1      41.620   6.655  20.165  0.00  0.00    +0.000 A 
ATOM     17  C   UNL     1      40.335   6.255  19.877  0.00  0.00    +0.000 A 
ENDBRANCH  11  12
ENDBRANCH  10  11
ENDBRANCH   9  10
ENDBRANCH   2   4
BRANCH   1  18
ATOM     18  C   UNL     1      37.195   0.622  15.300  0.00  0.00    +0.000 C 
BRANCH  18  21
ATOM     19  C   UNL     1      40.563  -0.487  13.918  0.00  0.00    +0.000 A 
ATOM     20  C   UNL     1      39.413   0.273  14.189  0.00  0.00    +0.000 A 
ATOM     21  C   UNL     1      38.440  -0.141  15.089  0.00  0.00    +0.000 A 
ATOM     22  C   UNL     1      38.667  -1.367  15.723  0.00  0.00    +0.000 A 
ATOM     23  C   UNL     1      39.814  -2.118  15.444  0.00  0.00    +0.000 A 
ATOM     24  C   UNL     1      40.769  -1.683  14.537  0.00  0.00    +0.000 A 
BRANCH  19  26
ATOM     25  C   UNL     1      41.738   1.377  12.813  0.00  0.00    +0.000 C 
ATOM     26  O   UNL     1      41.512  -0.030  13.013  0.00  0.00    +0.000 OA
ENDBRANCH  19  26
BRANCH  23  27
ATOM     27  O   UNL     1      40.032  -3.339  16.078  0.00  0.00    +0.000 OA
ATOM     28  C   UNL     1      38.963  -3.988  16.733  0.00  0.00    +0.000 C 
ENDBRANCH  23  27
BRANCH  24  29
ATOM     29  O   UNL     1      41.889  -2.485  14.296  0.00  0.00    +0.000 OA
ATOM     30  C   UNL     1      41.905  -3.244  13.059  0.00  0.00    +0.000 C 
ENDBRANCH  24  29
ENDBRANCH  18  21
ENDBRANCH   1  18
TORSDOF 9
ENDMDL
MODEL 9
REMARK VINA RESULT:      -5.9      2.488      4.511
REMARK  Name = 
REMARK  9 active torsions:
REMARK  status: ('A' for Active; 'I' for Inactive)
REMARK    1  A    between atoms: O_2  and  C_3
REMARK    2  A    between atoms: C_5  and  C_6
REMARK    3  A    between atoms: C_6  and  N_7
REMARK    4  A    between atoms: C_8  and  C_10
REMARK    5  A    between atoms: C_15  and  S_16
REMARK    6  A    between atoms: S_16  and  C_17
REMARK    7  A    between atoms: C_17  and  C_18
REMARK    8  A    between atoms: C_25  and  O_26
REMARK    9  A    between atoms: C_28  and  O_29
REMARK                            x       y       z     vdW  Elec       q    Type
REMARK                         _______ _______ _______ _____ _____    ______ ____
ROOT
ATOM      1  N   UNL     1      37.894   2.503  15.936  0.00  0.00    +0.000 NA
ATOM      2  C   UNL     1      36.753   1.985  15.273  0.00  0.00    +0.000 C 
ATOM      3  O   UNL     1      36.340   2.533  14.236  0.00  0.00    +0.000 OA
ENDROOT
BRANCH   2   4
ATOM      4  C   UNL     1      36.096   0.810  15.827  0.00  0.00    +0.000 A 
ATOM      5  C   UNL     1      35.089   0.883  16.764  0.00  0.00    +0.000 A 
ATOM      6  C   UNL     1      34.453  -0.236  17.249  0.00  0.00    +0.000 A 
ATOM      7  C   UNL     1      34.811  -1.505  16.802  0.00  0.00    +0.000 A 
ATOM      8  C   UNL     1      35.825  -1.565  15.864  0.00  0.00    +0.000 A 
ATOM      9  C   UNL     1      36.464  -0.468  15.373  0.00  0.00    +0.000 A 
BRANCH   9  10
ATOM     10  S   UNL     1      37.838  -0.526  14.239  0.00  0.00    +0.000 S 
BRANCH  10  11
ATOM     11  C   UNL     1      39.079  -1.722  14.619  0.00  0.00    +0.000 C 
BRANCH  11  12
ATOM     12  C   UNL     1      40.444  -1.251  14.428  0.00  0.00    +0.000 A 
ATOM     13  C   UNL     1      40.655   0.080  14.106  0.00  0.00    +0.000 A 
ATOM     14  C   UNL     1      41.921   0.593  13.902  0.00  0.00    +0.000 A 
ATOM     15  C   UNL     1      42.973  -0.300  14.040  0.00  0.00    +0.000 A 
ATOM     16  C   UNL     1      42.811  -1.626  14.356  0.00  0.00    +0.000 A 
ATOM     17  C   UNL     1      41.536  -2.106  14.554  0.00  0.00    +0.000 A 
ENDBRANCH  11  12
ENDBRANCH  10  11
ENDBRANCH   9  10
ENDBRANCH   2   4
BRANCH   1  18
ATOM     18  C   UNL     1      38.607   3.645  15.532  0.00  0.00    +0.000 C 
BRANCH  18  21
ATOM     19  C   UNL     1      37.827   7.247  16.478  0.00  0.00    +0.000 A 
ATOM     20  C   UNL     1      37.907   6.039  15.766  0.00  0.00    +0.000 A 
ATOM     21  C   UNL     1      38.448   4.884  16.317  0.00  0.00    +0.000 A 
ATOM     22  C   UNL     1      38.910   4.986  17.632  0.00  0.00    +0.000 A 
ATOM     23  C   UNL     1      38.829   6.194  18.331  0.00  0.00    +0.000 A 
ATOM     24  C   UNL     1      38.288   7.335  17.757  0.00  0.00    +0.000 A 
BRANCH  19  26
ATOM     25  C   UNL     1      36.763   8.343  14.543  0.00  0.00    +0.000 C 
ATOM     26  O   UNL     1      37.273   8.376  15.888  0.00  0.00    +0.000 OA
ENDBRANCH  19  26
BRANCH  23  27
ATOM     27  O   UNL     1      39.294   6.288  19.641  0.00  0.00    +0.000 OA
ATOM     28  C   UNL     1      40.682   6.374  19.886  0.00  0.00    +0.000 C 
ENDBRANCH  23  27
BRANCH  24  29
ATOM     29  O   UNL     1      38.244   8.515  18.506  0.00  0.00    +0.000 OA
ATOM     30  C   UNL     1      37.053   8.750  19.302  0.00  0.00    +0.000 C 
ENDBRANCH  24  29
ENDBRANCH  18  21
ENDBRANCH   1  18
TORSDOF 9
ENDMDL
MODEL 10
REMARK VINA RESULT:      -5.9      2.317      4.563
REMARK  Name = 
REMARK  9 active torsions:
REMARK  status: ('A' for Active; 'I' for Inactive)
REMARK    1  A    between atoms: O_2  and  C_3
REMARK    2  A    between atoms: C_5  and  C_6
REMARK    3  A    between atoms: C_6  and  N_7
REMARK    4  A    between atoms: C_8  and  C_10
REMARK    5  A    between atoms: C_15  and  S_16
REMARK    6  A    between atoms: S_16  and  C_17
REMARK    7  A    between atoms: C_17  and  C_18
REMARK    8  A    between atoms: C_25  and  O_26
REMARK    9  A    between atoms: C_28  and  O_29
REMARK                            x       y       z     vdW  Elec       q    Type
REMARK                         _______ _______ _______ _____ _____    ______ ____
ROOT
ATOM      1  N   UNL     1      38.216   1.920  15.477  0.00  0.00    +0.000 NA
ATOM      2  C   UNL     1      38.561   1.327  14.237  0.00  0.00    +0.000 C 
ATOM      3  O   UNL     1      38.012   1.718  13.192  0.00  0.00    +0.000 OA
ENDROOT
BRANCH   2   4
ATOM      4  C   UNL     1      39.564   0.272  14.222  0.00  0.00    +0.000 A 
ATOM      5  C   UNL     1      40.918   0.521  14.182  0.00  0.00    +0.000 A 
ATOM      6  C   UNL     1      41.853  -0.488  14.207  0.00  0.00    +0.000 A 
ATOM      7  C   UNL     1      41.457  -1.820  14.273  0.00  0.00    +0.000 A 
ATOM      8  C   UNL     1      40.095  -2.058  14.309  0.00  0.00    +0.000 A 
ATOM      9  C   UNL     1      39.157  -1.072  14.287  0.00  0.00    +0.000 A 
BRANCH   9  10
ATOM     10  S   UNL     1      37.398  -1.356  14.233  0.00  0.00    +0.000 S 
BRANCH  10  11
ATOM     11  C   UNL     1      36.731  -2.224  15.618  0.00  0.00    +0.000 C 
BRANCH  11  12
ATOM     12  C   UNL     1      36.447  -1.383  16.772  0.00  0.00    +0.000 A 
ATOM     13  C   UNL     1      37.016  -1.707  17.993  0.00  0.00    +0.000 A 
ATOM     14  C   UNL     1      36.784  -0.959  19.131  0.00  0.00    +0.000 A 
ATOM     15  C   UNL     1      35.949   0.138  18.983  0.00  0.00    +0.000 A 
ATOM     16  C   UNL     1      35.362   0.496  17.794  0.00  0.00    +0.000 A 
ATOM     17  C   UNL     1      35.615  -0.270  16.679  0.00  0.00    +0.000 A 
ENDBRANCH  11  12
ENDBRANCH  10  11
ENDBRANCH   9  10
ENDBRANCH   2   4
BRANCH   1  18
ATOM     18  C   UNL     1      37.246   2.924  15.644  0.00  0.00    +0.000 C 
BRANCH  18  21
ATOM     19  C   UNL     1      38.530   5.744  17.853  0.00  0.00    +0.000 A 
ATOM     20  C   UNL     1      38.185   4.468  17.380  0.00  0.00    +0.000 A 
ATOM     21  C   UNL     1      37.688   4.256  16.100  0.00  0.00    +0.000 A 
ATOM     22  C   UNL     1      37.551   5.391  15.295  0.00  0.00    +0.000 A 
ATOM     23  C   UNL     1      37.894   6.658  15.777  0.00  0.00    +0.000 A 
ATOM     24  C   UNL     1      38.385   6.843  17.060  0.00  0.00    +0.000 A 
BRANCH  19  26
ATOM     25  C   UNL     1      40.434   6.092  19.378  0.00  0.00    +0.000 C 
ATOM     26  O   UNL     1      39.027   5.908  19.139  0.00  0.00    +0.000 OA
ENDBRANCH  19  26
BRANCH  23  27
ATOM     27  O   UNL     1      37.753   7.785  14.969  0.00  0.00    +0.000 OA
ATOM     28  C   UNL     1      36.463   8.278  14.675  0.00  0.00    +0.000 C 
ENDBRANCH  23  27
BRANCH  24  29
ATOM     29  O   UNL     1      38.701   8.138  17.484  0.00  0.00    +0.000 OA
ATOM     30  C   UNL     1      37.679   8.863  18.217  0.00  0.00    +0.000 C 
ENDBRANCH  24  29
ENDBRANCH  18  21
ENDBRANCH   1  18
TORSDOF 9
ENDMDL
