MODEL 1
REMARK VINA RESULT:      -6.6      0.000      0.000
REMARK  Name = 
REMARK  3 active torsions:
REMARK  status: ('A' for Active; 'I' for Inactive)
REMARK    1  A    between atoms: N_2  and  C_4
REMARK    2  A    between atoms: C_7  and  C_8
REMARK    3  A    between atoms: N_9  and  C_10
REMARK                            x       y       z     vdW  Elec       q    Type
REMARK                         _______ _______ _______ _____ _____    ______ ____
ROOT
ATOM      1  C   UNL     1      17.404  10.137  36.084  0.00  0.00    +0.000 C 
ATOM      2  N   UNL     1      16.960  10.318  37.270  0.00  0.00    +0.000 NA
ENDROOT
BRANCH   2   3
ATOM      3  C   UNL     1      17.562   9.768  38.437  0.00  0.00    +0.000 A 
ATOM      4  C   UNL     1      18.798   9.125  38.353  0.00  0.00    +0.000 A 
ATOM      5  C   UNL     1      19.319   8.617  39.525  0.00  0.00    +0.000 A 
ATOM      6  C   UNL     1      18.679   8.719  40.746  0.00  0.00    +0.000 A 
ATOM      7  N   UNL     1      19.234   8.188  41.940  0.00  0.00    +0.000 NA
ATOM      8  C   UNL     1      17.459   9.362  40.775  0.00  0.00    +0.000 A 
ATOM      9 BR   UNL     1      16.577   9.498  42.482  0.00  0.00    +0.000 Br
ATOM     10  C   UNL     1      16.891   9.890  39.637  0.00  0.00    +0.000 A 
ENDBRANCH   2   3
BRANCH   1  14
ATOM     11  C   UNL     1      15.276  11.987  32.875  0.00  0.00    +0.000 A 
ATOM     12  C   UNL     1      16.319  11.110  32.606  0.00  0.00    +0.000 A 
ATOM     13  C   UNL     1      17.000  10.518  33.650  0.00  0.00    +0.000 A 
ATOM     14  C   UNL     1      16.690  10.758  34.973  0.00  0.00    +0.000 A 
ATOM     15  C   UNL     1      15.641  11.641  35.196  0.00  0.00    +0.000 A 
ATOM     16  C   UNL     1      14.945  12.245  34.192  0.00  0.00    +0.000 A 
BRANCH  11  18
ATOM     17  C   UNL     1      14.617  12.053  30.496  0.00  0.00    +0.000 C 
ATOM     18  N   UNL     1      14.566  12.604  31.823  0.00  0.00    +0.000 N 
ATOM     19  C   UNL     1      13.789  13.788  32.082  0.00  0.00    +0.000 C 
ENDBRANCH  11  18
ENDBRANCH   1  14
TORSDOF 3
ENDMDL
MODEL 2
REMARK VINA RESULT:      -6.6      2.870      8.249
REMARK  Name = 
REMARK  3 active torsions:
REMARK  status: ('A' for Active; 'I' for Inactive)
REMARK    1  A    between atoms: N_2  and  C_4
REMARK    2  A    between atoms: C_7  and  C_8
REMARK    3  A    between atoms: N_9  and  C_10
REMARK                            x       y       z     vdW  Elec       q    Type
REMARK                         _______ _______ _______ _____ _____    ______ ____
ROOT
ATOM      1  C   UNL     1      16.819  11.206  35.880  0.00  0.00    +0.000 C 
ATOM      2  N   UNL     1      16.594  10.535  34.814  0.00  0.00    +0.000 NA
ENDROOT
BRANCH   2   3
ATOM      3  C   UNL     1      16.073  11.098  33.615  0.00  0.00    +0.000 A 
ATOM      4  C   UNL     1      16.407  10.548  32.377  0.00  0.00    +0.000 A 
ATOM      5  C   UNL     1      15.864  11.147  31.259  0.00  0.00    +0.000 A 
ATOM      6  C   UNL     1      15.024  12.243  31.320  0.00  0.00    +0.000 A 
ATOM      7  N   UNL     1      14.477  12.844  30.156  0.00  0.00    +0.000 NA
ATOM      8  C   UNL     1      14.726  12.750  32.567  0.00  0.00    +0.000 A 
ATOM      9 BR   UNL     1      13.554  14.277  32.639  0.00  0.00    +0.000 Br
ATOM     10  C   UNL     1      15.238  12.192  33.718  0.00  0.00    +0.000 A 
ENDBRANCH   2   3
BRANCH   1  14
ATOM     11  C   UNL     1      18.335   9.171  39.316  0.00  0.00    +0.000 A 
ATOM     12  C   UNL     1      19.071   9.195  38.139  0.00  0.00    +0.000 A 
ATOM     13  C   UNL     1      18.572   9.855  37.034  0.00  0.00    +0.000 A 
ATOM     14  C   UNL     1      17.356  10.505  37.042  0.00  0.00    +0.000 A 
ATOM     15  C   UNL     1      16.653  10.457  38.240  0.00  0.00    +0.000 A 
ATOM     16  C   UNL     1      17.113   9.816  39.351  0.00  0.00    +0.000 A 
BRANCH  11  18
ATOM     17  C   UNL     1      18.000   8.367  41.627  0.00  0.00    +0.000 C 
ATOM     18  N   UNL     1      18.826   8.503  40.458  0.00  0.00    +0.000 N 
ATOM     19  C   UNL     1      20.158   7.957  40.449  0.00  0.00    +0.000 C 
ENDBRANCH  11  18
ENDBRANCH   1  14
TORSDOF 3
ENDMDL
MODEL 3
REMARK VINA RESULT:      -6.4      2.734      8.252
REMARK  Name = 
REMARK  3 active torsions:
REMARK  status: ('A' for Active; 'I' for Inactive)
REMARK    1  A    between atoms: N_2  and  C_4
REMARK    2  A    between atoms: C_7  and  C_8
REMARK    3  A    between atoms: N_9  and  C_10
REMARK                            x       y       z     vdW  Elec       q    Type
REMARK                         _______ _______ _______ _____ _____    ______ ____
ROOT
ATOM      1  C   UNL     1      16.770  11.330  36.632  0.00  0.00    +0.000 C 
ATOM      2  N   UNL     1      15.700  11.050  35.990  0.00  0.00    +0.000 NA
ENDROOT
BRANCH   2   3
ATOM      3  C   UNL     1      15.203  11.819  34.900  0.00  0.00    +0.000 A 
ATOM      4  C   UNL     1      15.489  11.442  33.587  0.00  0.00    +0.000 A 
ATOM      5  C   UNL     1      14.974  12.236  32.582  0.00  0.00    +0.000 A 
ATOM      6  C   UNL     1      14.207  13.360  32.823  0.00  0.00    +0.000 A 
ATOM      7  N   UNL     1      13.688  14.162  31.773  0.00  0.00    +0.000 NA
ATOM      8  C   UNL     1      13.953  13.690  34.138  0.00  0.00    +0.000 A 
ATOM      9 BR   UNL     1      12.882  15.258  34.461  0.00  0.00    +0.000 Br
ATOM     10  C   UNL     1      14.440  12.934  35.182  0.00  0.00    +0.000 A 
ENDBRANCH   2   3
BRANCH   1  14
ATOM     11  C   UNL     1      17.987   8.757  39.818  0.00  0.00    +0.000 A 
ATOM     12  C   UNL     1      16.847   9.540  39.951  0.00  0.00    +0.000 A 
ATOM     13  C   UNL     1      16.463  10.368  38.916  0.00  0.00    +0.000 A 
ATOM     14  C   UNL     1      17.168  10.457  37.733  0.00  0.00    +0.000 A 
ATOM     15  C   UNL     1      18.300   9.658  37.643  0.00  0.00    +0.000 A 
ATOM     16  C   UNL     1      18.711   8.828  38.643  0.00  0.00    +0.000 A 
BRANCH  11  18
ATOM     17  C   UNL     1      19.487   8.284  41.722  0.00  0.00    +0.000 C 
ATOM     18  N   UNL     1      18.399   7.903  40.864  0.00  0.00    +0.000 N 
ATOM     19  C   UNL     1      17.724   6.648  41.069  0.00  0.00    +0.000 C 
ENDBRANCH  11  18
ENDBRANCH   1  14
TORSDOF 3
ENDMDL
MODEL 4
REMARK VINA RESULT:      -6.4     21.784     23.154
REMARK  Name = 
REMARK  3 active torsions:
REMARK  status: ('A' for Active; 'I' for Inactive)
REMARK    1  A    between atoms: N_2  and  C_4
REMARK    2  A    between atoms: C_7  and  C_8
REMARK    3  A    between atoms: N_9  and  C_10
REMARK                            x       y       z     vdW  Elec       q    Type
REMARK                         _______ _______ _______ _____ _____    ______ ____
ROOT
ATOM      1  C   UNL     1      22.445  -8.105  24.778  0.00  0.00    +0.000 C 
ATOM      2  N   UNL     1      21.957  -6.978  25.137  0.00  0.00    +0.000 NA
ENDROOT
BRANCH   2   3
ATOM      3  C   UNL     1      20.649  -6.813  25.673  0.00  0.00    +0.000 A 
ATOM      4  C   UNL     1      20.086  -5.540  25.773  0.00  0.00    +0.000 A 
ATOM      5  C   UNL     1      18.814  -5.458  26.302  0.00  0.00    +0.000 A 
ATOM      6  C   UNL     1      18.098  -6.562  26.725  0.00  0.00    +0.000 A 
ATOM      7  N   UNL     1      16.790  -6.454  27.267  0.00  0.00    +0.000 NA
ATOM      8  C   UNL     1      18.699  -7.798  26.606  0.00  0.00    +0.000 A 
ATOM      9 BR   UNL     1      17.690  -9.328  27.198  0.00  0.00    +0.000 Br
ATOM     10  C   UNL     1      19.965  -7.940  26.084  0.00  0.00    +0.000 A 
ENDBRANCH   2   3
BRANCH   1  14
ATOM     11  C   UNL     1      26.416  -8.127  23.203  0.00  0.00    +0.000 A 
ATOM     12  C   UNL     1      25.826  -9.312  23.625  0.00  0.00    +0.000 A 
ATOM     13  C   UNL     1      24.543  -9.293  24.132  0.00  0.00    +0.000 A 
ATOM     14  C   UNL     1      23.803  -8.135  24.243  0.00  0.00    +0.000 A 
ATOM     15  C   UNL     1      24.431  -6.973  23.810  0.00  0.00    +0.000 A 
ATOM     16  C   UNL     1      25.696  -6.952  23.303  0.00  0.00    +0.000 A 
BRANCH  11  18
ATOM     17  C   UNL     1      28.177  -7.026  21.867  0.00  0.00    +0.000 C 
ATOM     18  N   UNL     1      27.727  -8.122  22.681  0.00  0.00    +0.000 N 
ATOM     19  C   UNL     1      28.614  -9.220  22.964  0.00  0.00    +0.000 C 
ENDBRANCH  11  18
ENDBRANCH   1  14
TORSDOF 3
ENDMDL
MODEL 5
REMARK VINA RESULT:      -6.4      3.035      8.350
REMARK  Name = 
REMARK  3 active torsions:
REMARK  status: ('A' for Active; 'I' for Inactive)
REMARK    1  A    between atoms: N_2  and  C_4
REMARK    2  A    between atoms: C_7  and  C_8
REMARK    3  A    between atoms: N_9  and  C_10
REMARK                            x       y       z     vdW  Elec       q    Type
REMARK                         _______ _______ _______ _____ _____    ______ ____
ROOT
ATOM      1  C   UNL     1      16.150  11.321  37.215  0.00  0.00    +0.000 C 
ATOM      2  N   UNL     1      15.975  10.968  35.998  0.00  0.00    +0.000 NA
ENDROOT
BRANCH   2   3
ATOM      3  C   UNL     1      15.345  11.784  35.016  0.00  0.00    +0.000 A 
ATOM      4  C   UNL     1      14.597  12.896  35.403  0.00  0.00    +0.000 A 
ATOM      5  C   UNL     1      14.015  13.639  34.396  0.00  0.00    +0.000 A 
ATOM      6  C   UNL     1      14.144  13.329  33.055  0.00  0.00    +0.000 A 
ATOM      7  N   UNL     1      13.536  14.108  32.036  0.00  0.00    +0.000 NA
ATOM      8  C   UNL     1      14.893  12.219  32.726  0.00  0.00    +0.000 A 
ATOM      9 BR   UNL     1      15.066  11.798  30.854  0.00  0.00    +0.000 Br
ATOM     10  C   UNL     1      15.498  11.441  33.688  0.00  0.00    +0.000 A 
ENDBRANCH   2   3
BRANCH   1  14
ATOM     11  C   UNL     1      18.037   8.598  39.913  0.00  0.00    +0.000 A 
ATOM     12  C   UNL     1      18.595   8.843  38.664  0.00  0.00    +0.000 A 
ATOM     13  C   UNL     1      17.977   9.724  37.800  0.00  0.00    +0.000 A 
ATOM     14  C   UNL     1      16.811  10.387  38.122  0.00  0.00    +0.000 A 
ATOM     15  C   UNL     1      16.288  10.114  39.379  0.00  0.00    +0.000 A 
ATOM     16  C   UNL     1      16.869   9.250  40.260  0.00  0.00    +0.000 A 
BRANCH  11  18
ATOM     17  C   UNL     1      18.209   6.336  40.888  0.00  0.00    +0.000 C 
ATOM     18  N   UNL     1      18.652   7.702  40.812  0.00  0.00    +0.000 N 
ATOM     19  C   UNL     1      19.726   8.159  41.655  0.00  0.00    +0.000 C 
ENDBRANCH  11  18
ENDBRANCH   1  14
TORSDOF 3
ENDMDL
MODEL 6
REMARK VINA RESULT:      -6.2     18.786     21.116
REMARK  Name = 
REMARK  3 active torsions:
REMARK  status: ('A' for Active; 'I' for Inactive)
REMARK    1  A    between atoms: N_2  and  C_4
REMARK    2  A    between atoms: C_7  and  C_8
REMARK    3  A    between atoms: N_9  and  C_10
REMARK                            x       y       z     vdW  Elec       q    Type
REMARK                         _______ _______ _______ _____ _____    ______ ____
ROOT
ATOM      1  C   UNL     1      33.786  -0.964  33.452  0.00  0.00    +0.000 C 
ATOM      2  N   UNL     1      33.028  -1.714  34.158  0.00  0.00    +0.000 NA
ENDROOT
BRANCH   2   3
ATOM      3  C   UNL     1      32.939  -3.126  34.002  0.00  0.00    +0.000 A 
ATOM      4  C   UNL     1      32.141  -3.880  34.864  0.00  0.00    +0.000 A 
ATOM      5  C   UNL     1      32.105  -5.243  34.652  0.00  0.00    +0.000 A 
ATOM      6  C   UNL     1      32.812  -5.871  33.644  0.00  0.00    +0.000 A 
ATOM      7  N   UNL     1      32.760  -7.276  33.444  0.00  0.00    +0.000 NA
ATOM      8  C   UNL     1      33.586  -5.082  32.819  0.00  0.00    +0.000 A 
ATOM      9 BR   UNL     1      34.565  -5.969  31.418  0.00  0.00    +0.000 Br
ATOM     10  C   UNL     1      33.659  -3.717  32.983  0.00  0.00    +0.000 A 
ENDBRANCH   2   3
BRANCH   1  14
ATOM     11  C   UNL     1      33.776   3.250  34.155  0.00  0.00    +0.000 A 
ATOM     12  C   UNL     1      33.715   2.364  35.224  0.00  0.00    +0.000 A 
ATOM     13  C   UNL     1      33.718   1.005  34.986  0.00  0.00    +0.000 A 
ATOM     14  C   UNL     1      33.782   0.472  33.715  0.00  0.00    +0.000 A 
ATOM     15  C   UNL     1      33.842   1.393  32.676  0.00  0.00    +0.000 A 
ATOM     16  C   UNL     1      33.841   2.742  32.872  0.00  0.00    +0.000 A 
BRANCH  11  18
ATOM     17  C   UNL     1      34.935   5.290  34.925  0.00  0.00    +0.000 C 
ATOM     18  N   UNL     1      33.775   4.644  34.376  0.00  0.00    +0.000 N 
ATOM     19  C   UNL     1      32.606   5.418  34.048  0.00  0.00    +0.000 C 
ENDBRANCH  11  18
ENDBRANCH   1  14
TORSDOF 3
ENDMDL
MODEL 7
REMARK VINA RESULT:      -6.0      2.603      3.205
REMARK  Name = 
REMARK  3 active torsions:
REMARK  status: ('A' for Active; 'I' for Inactive)
REMARK    1  A    between atoms: N_2  and  C_4
REMARK    2  A    between atoms: C_7  and  C_8
REMARK    3  A    between atoms: N_9  and  C_10
REMARK                            x       y       z     vdW  Elec       q    Type
REMARK                         _______ _______ _______ _____ _____    ______ ____
ROOT
ATOM      1  C   UNL     1      17.873   9.932  36.443  0.00  0.00    +0.000 C 
ATOM      2  N   UNL     1      19.086  10.318  36.566  0.00  0.00    +0.000 NA
ENDROOT
BRANCH   2   3
ATOM      3  C   UNL     1      19.969   9.854  37.583  0.00  0.00    +0.000 A 
ATOM      4  C   UNL     1      19.460   9.391  38.797  0.00  0.00    +0.000 A 
ATOM      5  C   UNL     1      20.375   8.958  39.734  0.00  0.00    +0.000 A 
ATOM      6  C   UNL     1      21.741   8.967  39.520  0.00  0.00    +0.000 A 
ATOM      7  N   UNL     1      22.664   8.517  40.500  0.00  0.00    +0.000 NA
ATOM      8  C   UNL     1      22.193   9.435  38.304  0.00  0.00    +0.000 A 
ATOM      9 BR   UNL     1      24.097   9.442  38.017  0.00  0.00    +0.000 Br
ATOM     10  C   UNL     1      21.325   9.879  37.331  0.00  0.00    +0.000 A 
ENDBRANCH   2   3
BRANCH   1  14
ATOM     11  C   UNL     1      15.574  11.524  33.214  0.00  0.00    +0.000 A 
ATOM     12  C   UNL     1      15.254  11.850  34.526  0.00  0.00    +0.000 A 
ATOM     13  C   UNL     1      16.002  11.330  35.561  0.00  0.00    +0.000 A 
ATOM     14  C   UNL     1      17.074  10.487  35.355  0.00  0.00    +0.000 A 
ATOM     15  C   UNL     1      17.360  10.187  34.029  0.00  0.00    +0.000 A 
ATOM     16  C   UNL     1      16.644  10.681  32.979  0.00  0.00    +0.000 A 
BRANCH  11  18
ATOM     17  C   UNL     1      14.678  11.289  30.925  0.00  0.00    +0.000 C 
ATOM     18  N   UNL     1      14.822  12.044  32.139  0.00  0.00    +0.000 N 
ATOM     19  C   UNL     1      14.198  13.336  32.262  0.00  0.00    +0.000 C 
ENDBRANCH  11  18
ENDBRANCH   1  14
TORSDOF 3
ENDMDL
MODEL 8
REMARK VINA RESULT:      -5.9     19.318     20.085
REMARK  Name = 
REMARK  3 active torsions:
REMARK  status: ('A' for Active; 'I' for Inactive)
REMARK    1  A    between atoms: N_2  and  C_4
REMARK    2  A    between atoms: C_7  and  C_8
REMARK    3  A    between atoms: N_9  and  C_10
REMARK                            x       y       z     vdW  Elec       q    Type
REMARK                         _______ _______ _______ _____ _____    ______ ____
ROOT
ATOM      1  C   UNL     1      31.068  21.898  27.453  0.00  0.00    +0.000 C 
ATOM      2  N   UNL     1      30.877  22.384  28.621  0.00  0.00    +0.000 NA
ENDROOT
BRANCH   2   3
ATOM      3  C   UNL     1      31.679  22.069  29.754  0.00  0.00    +0.000 A 
ATOM      4  C   UNL     1      33.052  21.867  29.608  0.00  0.00    +0.000 A 
ATOM      5  C   UNL     1      33.764  21.564  30.751  0.00  0.00    +0.000 A 
ATOM      6  C   UNL     1      33.182  21.457  32.000  0.00  0.00    +0.000 A 
ATOM      7  N   UNL     1      33.935  21.144  33.162  0.00  0.00    +0.000 NA
ATOM      8  C   UNL     1      31.822  21.665  32.090  0.00  0.00    +0.000 A 
ATOM      9 BR   UNL     1      31.023  21.514  33.836  0.00  0.00    +0.000 Br
ATOM     10  C   UNL     1      31.061  21.971  30.984  0.00  0.00    +0.000 A 
ENDBRANCH   2   3
BRANCH   1  14
ATOM     11  C   UNL     1      28.390  23.086  24.344  0.00  0.00    +0.000 A 
ATOM     12  C   UNL     1      29.745  22.934  24.077  0.00  0.00    +0.000 A 
ATOM     13  C   UNL     1      30.601  22.550  25.089  0.00  0.00    +0.000 A 
ATOM     14  C   UNL     1      30.170  22.305  26.376  0.00  0.00    +0.000 A 
ATOM     15  C   UNL     1      28.809  22.468  26.599  0.00  0.00    +0.000 A 
ATOM     16  C   UNL     1      27.932  22.846  25.626  0.00  0.00    +0.000 A 
BRANCH  11  18
ATOM     17  C   UNL     1      27.994  23.826  22.022  0.00  0.00    +0.000 C 
ATOM     18  N   UNL     1      27.496  23.478  23.325  0.00  0.00    +0.000 N 
ATOM     19  C   UNL     1      26.083  23.527  23.593  0.00  0.00    +0.000 C 
ENDBRANCH  11  18
ENDBRANCH   1  14
TORSDOF 3
ENDMDL
MODEL 9
REMARK VINA RESULT:      -5.9     18.079     18.955
REMARK  Name = 
REMARK  3 active torsions:
REMARK  status: ('A' for Active; 'I' for Inactive)
REMARK    1  A    between atoms: N_2  and  C_4
REMARK    2  A    between atoms: C_7  and  C_8
REMARK    3  A    between atoms: N_9  and  C_10
REMARK                            x       y       z     vdW  Elec       q    Type
REMARK                         _______ _______ _______ _____ _____    ______ ____
ROOT
ATOM      1  C   UNL     1      33.804   6.178  35.090  0.00  0.00    +0.000 C 
ATOM      2  N   UNL     1      34.172   6.503  36.271  0.00  0.00    +0.000 NA
ENDROOT
BRANCH   2   3
ATOM      3  C   UNL     1      34.275   7.847  36.730  0.00  0.00    +0.000 A 
ATOM      4  C   UNL     1      33.942   8.168  38.046  0.00  0.00    +0.000 A 
ATOM      5  C   UNL     1      34.066   9.491  38.418  0.00  0.00    +0.000 A 
ATOM      6  C   UNL     1      34.496  10.482  37.557  0.00  0.00    +0.000 A 
ATOM      7  N   UNL     1      34.617  11.838  37.963  0.00  0.00    +0.000 NA
ATOM      8  C   UNL     1      34.813  10.114  36.267  0.00  0.00    +0.000 A 
ATOM      9 BR   UNL     1      35.412  11.505  35.076  0.00  0.00    +0.000 Br
ATOM     10  C   UNL     1      34.709   8.809  35.840  0.00  0.00    +0.000 A 
ENDBRANCH   2   3
BRANCH   1  14
ATOM     11  C   UNL     1      33.605   2.046  34.025  0.00  0.00    +0.000 A 
ATOM     12  C   UNL     1      33.931   2.416  35.323  0.00  0.00    +0.000 A 
ATOM     13  C   UNL     1      33.993   3.754  35.657  0.00  0.00    +0.000 A 
ATOM     14  C   UNL     1      33.741   4.760  34.748  0.00  0.00    +0.000 A 
ATOM     15  C   UNL     1      33.418   4.345  33.462  0.00  0.00    +0.000 A 
ATOM     16  C   UNL     1      33.347   3.034  33.095  0.00  0.00    +0.000 A 
BRANCH  11  18
ATOM     17  C   UNL     1      32.665  -0.211  34.375  0.00  0.00    +0.000 C 
ATOM     18  N   UNL     1      33.535   0.684  33.662  0.00  0.00    +0.000 N 
ATOM     19  C   UNL     1      34.340   0.192  32.574  0.00  0.00    +0.000 C 
ENDBRANCH  11  18
ENDBRANCH   1  14
TORSDOF 3
ENDMDL
MODEL 10
REMARK VINA RESULT:      -5.8     19.096     21.206
REMARK  Name = 
REMARK  3 active torsions:
REMARK  status: ('A' for Active; 'I' for Inactive)
REMARK    1  A    between atoms: N_2  and  C_4
REMARK    2  A    between atoms: C_7  and  C_8
REMARK    3  A    between atoms: N_9  and  C_10
REMARK                            x       y       z     vdW  Elec       q    Type
REMARK                         _______ _______ _______ _____ _____    ______ ____
ROOT
ATOM      1  C   UNL     1      30.933  22.463  28.151  0.00  0.00    +0.000 C 
ATOM      2  N   UNL     1      29.736  22.378  27.707  0.00  0.00    +0.000 NA
ENDROOT
BRANCH   2   3
ATOM      3  C   UNL     1      29.375  22.608  26.349  0.00  0.00    +0.000 A 
ATOM      4  C   UNL     1      30.357  22.651  25.359  0.00  0.00    +0.000 A 
ATOM      5  C   UNL     1      29.932  22.879  24.066  0.00  0.00    +0.000 A 
ATOM      6  C   UNL     1      28.604  23.060  23.726  0.00  0.00    +0.000 A 
ATOM      7  N   UNL     1      28.189  23.292  22.388  0.00  0.00    +0.000 NA
ATOM      8  C   UNL     1      27.673  23.008  24.742  0.00  0.00    +0.000 A 
ATOM      9 BR   UNL     1      25.826  23.261  24.256  0.00  0.00    +0.000 Br
ATOM     10  C   UNL     1      28.039  22.784  26.050  0.00  0.00    +0.000 A 
ENDBRANCH   2   3
BRANCH   1  14
ATOM     11  C   UNL     1      31.559  21.728  32.313  0.00  0.00    +0.000 A 
ATOM     12  C   UNL     1      32.525  21.358  31.386  0.00  0.00    +0.000 A 
ATOM     13  C   UNL     1      32.313  21.600  30.044  0.00  0.00    +0.000 A 
ATOM     14  C   UNL     1      31.167  22.202  29.569  0.00  0.00    +0.000 A 
ATOM     15  C   UNL     1      30.227  22.556  30.529  0.00  0.00    +0.000 A 
ATOM     16  C   UNL     1      30.401  22.334  31.863  0.00  0.00    +0.000 A 
BRANCH  11  18
ATOM     17  C   UNL     1      30.635  21.190  34.539  0.00  0.00    +0.000 C 
ATOM     18  N   UNL     1      31.755  21.491  33.690  0.00  0.00    +0.000 N 
ATOM     19  C   UNL     1      33.083  21.551  34.244  0.00  0.00    +0.000 C 
ENDBRANCH  11  18
ENDBRANCH   1  14
TORSDOF 3
ENDMDL
