MODEL 1
REMARK VINA RESULT:      -6.6      0.000      0.000
REMARK  Name = 
REMARK  1 active torsions:
REMARK  status: ('A' for Active; 'I' for Inactive)
REMARK    1  A    between atoms: C_6  and  C_7
REMARK                            x       y       z     vdW  Elec       q    Type
REMARK                         _______ _______ _______ _____ _____    ______ ____
ROOT
ATOM      1  C   UNL     1      27.719  24.070  21.890  0.00  0.00    +0.000 C 
ATOM      2  N   UNL     1      27.430  23.654  23.243  0.00  0.00    +0.000 N 
ATOM      3  C   UNL     1      26.151  23.104  23.563  0.00  0.00    +0.000 C 
ATOM      4  O   UNL     1      25.309  23.011  22.594  0.00  0.00    +0.000 OA
ATOM      5  N   UNL     1      25.911  22.725  24.830  0.00  0.00    +0.000 NA
ATOM      6  C   UNL     1      26.753  22.776  26.018  0.00  0.00    +0.000 C 
ATOM      7  C   UNL     1      28.084  23.378  25.544  0.00  0.00    +0.000 C 
ATOM      8  C   UNL     1      28.357  23.753  24.334  0.00  0.00    +0.000 C 
ATOM      9  C   UNL     1      29.657  24.331  23.883  0.00  0.00    +0.000 C 
ATOM     10  C   UNL     1      30.687  24.458  24.926  0.00  0.00    +0.000 C 
ATOM     11  C   UNL     1      31.563  23.195  24.882  0.00  0.00    +0.000 C 
ATOM     12  C   UNL     1      31.622  25.605  24.589  0.00  0.00    +0.000 C 
ATOM     13  C   UNL     1      30.134  24.599  26.320  0.00  0.00    +0.000 C 
ATOM     14  C   UNL     1      29.150  23.528  26.551  0.00  0.00    +0.000 C 
ATOM     15  O   UNL     1      29.232  22.791  27.561  0.00  0.00    +0.000 OA
ENDROOT
BRANCH   6  16
ATOM     16  C   UNL     1      26.153  23.991  26.782  0.00  0.00    +0.000 A 
ATOM     17  C   UNL     1      26.011  23.781  28.128  0.00  0.00    +0.000 A 
ATOM     18  C   UNL     1      25.478  24.796  28.952  0.00  0.00    +0.000 A 
ATOM     19  C   UNL     1      25.106  25.993  28.390  0.00  0.00    +0.000 A 
ATOM     20  O   UNL     1      24.575  26.994  29.239  0.00  0.00    +0.000 OA
ATOM     21  C   UNL     1      25.249  26.198  27.054  0.00  0.00    +0.000 A 
ATOM     22  C   UNL     1      25.778  25.165  26.291  0.00  0.00    +0.000 A 
ENDBRANCH   6  16
TORSDOF 1
ENDMDL
MODEL 2
REMARK VINA RESULT:      -6.6      1.418      1.667
REMARK  Name = 
REMARK  1 active torsions:
REMARK  status: ('A' for Active; 'I' for Inactive)
REMARK    1  A    between atoms: C_6  and  C_7
REMARK                            x       y       z     vdW  Elec       q    Type
REMARK                         _______ _______ _______ _____ _____    ______ ____
ROOT
ATOM      1  C   UNL     1      27.526  25.293  23.080  0.00  0.00    +0.000 C 
ATOM      2  N   UNL     1      27.556  24.331  24.158  0.00  0.00    +0.000 N 
ATOM      3  C   UNL     1      26.401  23.541  24.442  0.00  0.00    +0.000 C 
ATOM      4  O   UNL     1      25.372  23.741  23.695  0.00  0.00    +0.000 OA
ATOM      5  N   UNL     1      26.459  22.654  25.450  0.00  0.00    +0.000 NA
ATOM      6  C   UNL     1      27.538  22.326  26.373  0.00  0.00    +0.000 C 
ATOM      7  C   UNL     1      28.708  23.232  25.965  0.00  0.00    +0.000 C 
ATOM      8  C   UNL     1      28.694  24.097  25.000  0.00  0.00    +0.000 C 
ATOM      9  C   UNL     1      29.841  24.969  24.607  0.00  0.00    +0.000 C 
ATOM     10  C   UNL     1      31.068  24.793  25.400  0.00  0.00    +0.000 C 
ATOM     11  C   UNL     1      31.962  23.779  24.668  0.00  0.00    +0.000 C 
ATOM     12  C   UNL     1      31.860  26.088  25.416  0.00  0.00    +0.000 C 
ATOM     13  C   UNL     1      30.827  24.286  26.798  0.00  0.00    +0.000 C 
ATOM     14  C   UNL     1      29.961  23.096  26.728  0.00  0.00    +0.000 C 
ATOM     15  O   UNL     1      30.291  22.030  27.299  0.00  0.00    +0.000 OA
ENDROOT
BRANCH   6  16
ATOM     16  C   UNL     1      27.071  23.040  27.674  0.00  0.00    +0.000 A 
ATOM     17  C   UNL     1      27.137  22.249  28.791  0.00  0.00    +0.000 A 
ATOM     18  C   UNL     1      26.745  22.762  30.047  0.00  0.00    +0.000 A 
ATOM     19  C   UNL     1      26.299  24.058  30.135  0.00  0.00    +0.000 A 
ATOM     20  O   UNL     1      25.912  24.547  31.406  0.00  0.00    +0.000 OA
ATOM     21  C   UNL     1      26.235  24.839  29.024  0.00  0.00    +0.000 A 
ATOM     22  C   UNL     1      26.632  24.283  27.815  0.00  0.00    +0.000 A 
ENDBRANCH   6  16
TORSDOF 1
ENDMDL
MODEL 3
REMARK VINA RESULT:      -6.4     29.553     30.972
REMARK  Name = 
REMARK  1 active torsions:
REMARK  status: ('A' for Active; 'I' for Inactive)
REMARK    1  A    between atoms: C_6  and  C_7
REMARK                            x       y       z     vdW  Elec       q    Type
REMARK                         _______ _______ _______ _____ _____    ______ ____
ROOT
ATOM      1  C   UNL     1      30.154  -6.923  31.740  0.00  0.00    +0.000 C 
ATOM      2  N   UNL     1      31.364  -6.620  32.469  0.00  0.00    +0.000 N 
ATOM      3  C   UNL     1      31.328  -6.494  33.891  0.00  0.00    +0.000 C 
ATOM      4  O   UNL     1      30.182  -6.664  34.453  0.00  0.00    +0.000 OA
ATOM      5  N   UNL     1      32.470  -6.213  34.543  0.00  0.00    +0.000 NA
ATOM      6  C   UNL     1      33.822  -5.991  34.048  0.00  0.00    +0.000 C 
ATOM      7  C   UNL     1      33.726  -6.154  32.524  0.00  0.00    +0.000 C 
ATOM      8  C   UNL     1      32.649  -6.427  31.859  0.00  0.00    +0.000 C 
ATOM      9  C   UNL     1      32.569  -6.590  30.377  0.00  0.00    +0.000 C 
ATOM     10  C   UNL     1      33.840  -6.430  29.654  0.00  0.00    +0.000 C 
ATOM     11  C   UNL     1      34.467  -7.823  29.485  0.00  0.00    +0.000 C 
ATOM     12  C   UNL     1      33.572  -5.936  28.244  0.00  0.00    +0.000 C 
ATOM     13  C   UNL     1      34.837  -5.547  30.358  0.00  0.00    +0.000 C 
ATOM     14  C   UNL     1      34.973  -6.001  31.753  0.00  0.00    +0.000 C 
ATOM     15  O   UNL     1      36.102  -6.241  32.240  0.00  0.00    +0.000 OA
ENDROOT
BRANCH   6  16
ATOM     16  C   UNL     1      33.950  -4.444  34.156  0.00  0.00    +0.000 A 
ATOM     17  C   UNL     1      34.667  -4.025  35.245  0.00  0.00    +0.000 A 
ATOM     18  C   UNL     1      34.866  -2.645  35.476  0.00  0.00    +0.000 A 
ATOM     19  C   UNL     1      34.335  -1.734  34.596  0.00  0.00    +0.000 A 
ATOM     20  O   UNL     1      34.551  -0.357  34.851  0.00  0.00    +0.000 OA
ATOM     21  C   UNL     1      33.625  -2.154  33.517  0.00  0.00    +0.000 A 
ATOM     22  C   UNL     1      33.459  -3.521  33.340  0.00  0.00    +0.000 A 
ENDBRANCH   6  16
TORSDOF 1
ENDMDL
MODEL 4
REMARK VINA RESULT:      -6.3      2.218      4.608
REMARK  Name = 
REMARK  1 active torsions:
REMARK  status: ('A' for Active; 'I' for Inactive)
REMARK    1  A    between atoms: C_6  and  C_7
REMARK                            x       y       z     vdW  Elec       q    Type
REMARK                         _______ _______ _______ _____ _____    ______ ____
ROOT
ATOM      1  C   UNL     1      25.457  27.240  25.701  0.00  0.00    +0.000 C 
ATOM      2  N   UNL     1      25.886  25.925  25.284  0.00  0.00    +0.000 N 
ATOM      3  C   UNL     1      25.416  24.768  25.975  0.00  0.00    +0.000 C 
ATOM      4  O   UNL     1      24.614  24.976  26.961  0.00  0.00    +0.000 OA
ATOM      5  N   UNL     1      25.832  23.558  25.564  0.00  0.00    +0.000 NA
ATOM      6  C   UNL     1      26.732  23.173  24.484  0.00  0.00    +0.000 C 
ATOM      7  C   UNL     1      27.160  24.492  23.826  0.00  0.00    +0.000 C 
ATOM      8  C   UNL     1      26.781  25.677  24.189  0.00  0.00    +0.000 C 
ATOM      9  C   UNL     1      27.199  26.953  23.537  0.00  0.00    +0.000 C 
ATOM     10  C   UNL     1      28.106  26.808  22.388  0.00  0.00    +0.000 C 
ATOM     11  C   UNL     1      27.250  26.771  21.111  0.00  0.00    +0.000 C 
ATOM     12  C   UNL     1      28.971  28.048  22.255  0.00  0.00    +0.000 C 
ATOM     13  C   UNL     1      28.948  25.559  22.426  0.00  0.00    +0.000 C 
ATOM     14  C   UNL     1      28.070  24.402  22.671  0.00  0.00    +0.000 C 
ATOM     15  O   UNL     1      28.111  23.398  21.921  0.00  0.00    +0.000 OA
ENDROOT
BRANCH   6  16
ATOM     16  C   UNL     1      28.030  22.815  25.264  0.00  0.00    +0.000 A 
ATOM     17  C   UNL     1      27.815  22.511  26.583  0.00  0.00    +0.000 A 
ATOM     18  C   UNL     1      28.901  22.167  27.418  0.00  0.00    +0.000 A 
ATOM     19  C   UNL     1      30.170  22.140  26.893  0.00  0.00    +0.000 A 
ATOM     20  O   UNL     1      31.240  21.791  27.752  0.00  0.00    +0.000 OA
ATOM     21  C   UNL     1      30.379  22.443  25.585  0.00  0.00    +0.000 A 
ATOM     22  C   UNL     1      29.275  22.775  24.810  0.00  0.00    +0.000 A 
ENDBRANCH   6  16
TORSDOF 1
ENDMDL
MODEL 5
REMARK VINA RESULT:      -6.2     14.554     17.570
REMARK  Name = 
REMARK  1 active torsions:
REMARK  status: ('A' for Active; 'I' for Inactive)
REMARK    1  A    between atoms: C_6  and  C_7
REMARK                            x       y       z     vdW  Elec       q    Type
REMARK                         _______ _______ _______ _____ _____    ______ ____
ROOT
ATOM      1  C   UNL     1      29.546  22.234  10.871  0.00  0.00    +0.000 C 
ATOM      2  N   UNL     1      30.810  21.537  10.941  0.00  0.00    +0.000 N 
ATOM      3  C   UNL     1      31.430  21.310  12.207  0.00  0.00    +0.000 C 
ATOM      4  O   UNL     1      30.804  21.757  13.240  0.00  0.00    +0.000 OA
ATOM      5  N   UNL     1      32.605  20.659  12.242  0.00  0.00    +0.000 NA
ATOM      6  C   UNL     1      33.424  20.109  11.170  0.00  0.00    +0.000 C 
ATOM      7  C   UNL     1      32.654  20.413   9.877  0.00  0.00    +0.000 C 
ATOM      8  C   UNL     1      31.521  21.035   9.800  0.00  0.00    +0.000 C 
ATOM      9  C   UNL     1      30.778  21.320   8.537  0.00  0.00    +0.000 C 
ATOM     10  C   UNL     1      31.415  20.829   7.305  0.00  0.00    +0.000 C 
ATOM     11  C   UNL     1      30.835  19.440   6.994  0.00  0.00    +0.000 C 
ATOM     12  C   UNL     1      31.011  21.704   6.133  0.00  0.00    +0.000 C 
ATOM     13  C   UNL     1      32.913  20.704   7.398  0.00  0.00    +0.000 C 
ATOM     14  C   UNL     1      33.251  19.943   8.614  0.00  0.00    +0.000 C 
ATOM     15  O   UNL     1      34.012  18.949   8.556  0.00  0.00    +0.000 OA
ENDROOT
BRANCH   6  16
ATOM     16  C   UNL     1      34.566  21.161  11.071  0.00  0.00    +0.000 A 
ATOM     17  C   UNL     1      35.786  20.693  11.482  0.00  0.00    +0.000 A 
ATOM     18  C   UNL     1      36.918  21.536  11.449  0.00  0.00    +0.000 A 
ATOM     19  C   UNL     1      36.781  22.827  11.001  0.00  0.00    +0.000 A 
ATOM     20  O   UNL     1      37.932  23.651  10.978  0.00  0.00    +0.000 OA
ATOM     21  C   UNL     1      35.570  23.288  10.593  0.00  0.00    +0.000 A 
ATOM     22  C   UNL     1      34.490  22.416  10.647  0.00  0.00    +0.000 A 
ENDBRANCH   6  16
TORSDOF 1
ENDMDL
MODEL 6
REMARK VINA RESULT:      -6.1      2.365      5.785
REMARK  Name = 
REMARK  1 active torsions:
REMARK  status: ('A' for Active; 'I' for Inactive)
REMARK    1  A    between atoms: C_6  and  C_7
REMARK                            x       y       z     vdW  Elec       q    Type
REMARK                         _______ _______ _______ _____ _____    ______ ____
ROOT
ATOM      1  C   UNL     1      26.601  23.715  28.800  0.00  0.00    +0.000 C 
ATOM      2  N   UNL     1      27.576  23.266  27.833  0.00  0.00    +0.000 N 
ATOM      3  C   UNL     1      28.723  22.533  28.263  0.00  0.00    +0.000 C 
ATOM      4  O   UNL     1      28.821  22.312  29.527  0.00  0.00    +0.000 OA
ATOM      5  N   UNL     1      29.613  22.128  27.340  0.00  0.00    +0.000 NA
ATOM      6  C   UNL     1      29.638  22.308  25.894  0.00  0.00    +0.000 C 
ATOM      7  C   UNL     1      28.364  23.099  25.563  0.00  0.00    +0.000 C 
ATOM      8  C   UNL     1      27.482  23.506  26.420  0.00  0.00    +0.000 C 
ATOM      9  C   UNL     1      26.243  24.269  26.087  0.00  0.00    +0.000 C 
ATOM     10  C   UNL     1      26.042  24.552  24.657  0.00  0.00    +0.000 C 
ATOM     11  C   UNL     1      25.165  23.433  24.072  0.00  0.00    +0.000 C 
ATOM     12  C   UNL     1      25.231  25.824  24.493  0.00  0.00    +0.000 C 
ATOM     13  C   UNL     1      27.318  24.615  23.859  0.00  0.00    +0.000 C 
ATOM     14  C   UNL     1      28.116  23.410  24.144  0.00  0.00    +0.000 C 
ATOM     15  O   UNL     1      28.554  22.697  23.211  0.00  0.00    +0.000 OA
ENDROOT
BRANCH   6  16
ATOM     16  C   UNL     1      30.710  23.423  25.731  0.00  0.00    +0.000 A 
ATOM     17  C   UNL     1      31.671  23.133  24.798  0.00  0.00    +0.000 A 
ATOM     18  C   UNL     1      32.711  24.053  24.542  0.00  0.00    +0.000 A 
ATOM     19  C   UNL     1      32.748  25.238  25.235  0.00  0.00    +0.000 A 
ATOM     20  O   UNL     1      33.802  26.142  24.958  0.00  0.00    +0.000 OA
ATOM     21  C   UNL     1      31.793  25.522  26.159  0.00  0.00    +0.000 A 
ATOM     22  C   UNL     1      30.793  24.581  26.372  0.00  0.00    +0.000 A 
ENDBRANCH   6  16
TORSDOF 1
ENDMDL
MODEL 7
REMARK VINA RESULT:      -6.0     17.783     19.827
REMARK  Name = 
REMARK  1 active torsions:
REMARK  status: ('A' for Active; 'I' for Inactive)
REMARK    1  A    between atoms: C_6  and  C_7
REMARK                            x       y       z     vdW  Elec       q    Type
REMARK                         _______ _______ _______ _____ _____    ______ ____
ROOT
ATOM      1  C   UNL     1      23.557  14.051  39.248  0.00  0.00    +0.000 C 
ATOM      2  N   UNL     1      22.401  13.303  38.809  0.00  0.00    +0.000 N 
ATOM      3  C   UNL     1      21.091  13.842  38.990  0.00  0.00    +0.000 C 
ATOM      4  O   UNL     1      21.020  14.998  39.553  0.00  0.00    +0.000 OA
ATOM      5  N   UNL     1      20.035  13.124  38.572  0.00  0.00    +0.000 NA
ATOM      6  C   UNL     1      19.962  11.816  37.933  0.00  0.00    +0.000 C 
ATOM      7  C   UNL     1      21.419  11.352  37.794  0.00  0.00    +0.000 C 
ATOM      8  C   UNL     1      22.463  12.013  38.182  0.00  0.00    +0.000 C 
ATOM      9  C   UNL     1      23.876  11.555  38.036  0.00  0.00    +0.000 C 
ATOM     10  C   UNL     1      24.052  10.247  37.386  0.00  0.00    +0.000 C 
ATOM     11  C   UNL     1      24.280  10.491  35.886  0.00  0.00    +0.000 C 
ATOM     12  C   UNL     1      25.328   9.592  37.884  0.00  0.00    +0.000 C 
ATOM     13  C   UNL     1      22.872   9.323  37.540  0.00  0.00    +0.000 C 
ATOM     14  C   UNL     1      21.649  10.047  37.151  0.00  0.00    +0.000 C 
ATOM     15  O   UNL     1      20.856   9.558  36.312  0.00  0.00    +0.000 OA
ENDROOT
BRANCH   6  16
ATOM     16  C   UNL     1      19.491  10.914  39.110  0.00  0.00    +0.000 A 
ATOM     17  C   UNL     1      18.288  10.299  38.886  0.00  0.00    +0.000 A 
ATOM     18  C   UNL     1      17.732   9.448  39.868  0.00  0.00    +0.000 A 
ATOM     19  C   UNL     1      18.412   9.246  41.044  0.00  0.00    +0.000 A 
ATOM     20  O   UNL     1      17.833   8.388  42.010  0.00  0.00    +0.000 OA
ATOM     21  C   UNL     1      19.606   9.857  41.262  0.00  0.00    +0.000 A 
ATOM     22  C   UNL     1      20.105  10.684  40.263  0.00  0.00    +0.000 A 
ENDBRANCH   6  16
TORSDOF 1
ENDMDL
MODEL 8
REMARK VINA RESULT:      -6.0      2.540      5.281
REMARK  Name = 
REMARK  1 active torsions:
REMARK  status: ('A' for Active; 'I' for Inactive)
REMARK    1  A    between atoms: C_6  and  C_7
REMARK                            x       y       z     vdW  Elec       q    Type
REMARK                         _______ _______ _______ _____ _____    ______ ____
ROOT
ATOM      1  C   UNL     1      32.134  24.324  27.106  0.00  0.00    +0.000 C 
ATOM      2  N   UNL     1      31.179  23.871  26.122  0.00  0.00    +0.000 N 
ATOM      3  C   UNL     1      31.615  23.539  24.803  0.00  0.00    +0.000 C 
ATOM      4  O   UNL     1      32.874  23.670  24.567  0.00  0.00    +0.000 OA
ATOM      5  N   UNL     1      30.704  23.120  23.908  0.00  0.00    +0.000 NA
ATOM      6  C   UNL     1      29.264  22.932  24.028  0.00  0.00    +0.000 C 
ATOM      7  C   UNL     1      28.926  23.316  25.476  0.00  0.00    +0.000 C 
ATOM      8  C   UNL     1      29.772  23.722  26.369  0.00  0.00    +0.000 C 
ATOM      9  C   UNL     1      29.433  24.087  27.776  0.00  0.00    +0.000 C 
ATOM     10  C   UNL     1      28.014  23.951  28.139  0.00  0.00    +0.000 C 
ATOM     11  C   UNL     1      27.815  22.557  28.756  0.00  0.00    +0.000 C 
ATOM     12  C   UNL     1      27.669  24.932  29.244  0.00  0.00    +0.000 C 
ATOM     13  C   UNL     1      27.068  24.090  26.975  0.00  0.00    +0.000 C 
ATOM     14  C   UNL     1      27.516  23.199  25.890  0.00  0.00    +0.000 C 
ATOM     15  O   UNL     1      26.722  22.389  25.358  0.00  0.00    +0.000 OA
ENDROOT
BRANCH   6  16
ATOM     16  C   UNL     1      28.717  24.178  23.273  0.00  0.00    +0.000 A 
ATOM     17  C   UNL     1      27.769  23.879  22.331  0.00  0.00    +0.000 A 
ATOM     18  C   UNL     1      27.181  24.910  21.564  0.00  0.00    +0.000 A 
ATOM     19  C   UNL     1      27.570  26.210  21.775  0.00  0.00    +0.000 A 
ATOM     20  O   UNL     1      26.964  27.223  20.994  0.00  0.00    +0.000 OA
ATOM     21  C   UNL     1      28.510  26.502  22.712  0.00  0.00    +0.000 A 
ATOM     22  C   UNL     1      29.056  25.450  23.436  0.00  0.00    +0.000 A 
ENDBRANCH   6  16
TORSDOF 1
ENDMDL
MODEL 9
REMARK VINA RESULT:      -6.0     13.857     16.887
REMARK  Name = 
REMARK  1 active torsions:
REMARK  status: ('A' for Active; 'I' for Inactive)
REMARK    1  A    between atoms: C_6  and  C_7
REMARK                            x       y       z     vdW  Elec       q    Type
REMARK                         _______ _______ _______ _____ _____    ______ ____
ROOT
ATOM      1  C   UNL     1      31.581  21.934   5.850  0.00  0.00    +0.000 C 
ATOM      2  N   UNL     1      31.781  21.548   7.228  0.00  0.00    +0.000 N 
ATOM      3  C   UNL     1      30.962  20.535   7.812  0.00  0.00    +0.000 C 
ATOM      4  O   UNL     1      30.066  20.012   7.049  0.00  0.00    +0.000 OA
ATOM      5  N   UNL     1      31.172  20.197   9.096  0.00  0.00    +0.000 NA
ATOM      6  C   UNL     1      32.130  20.699  10.072  0.00  0.00    +0.000 C 
ATOM      7  C   UNL     1      32.942  21.768   9.326  0.00  0.00    +0.000 C 
ATOM      8  C   UNL     1      32.774  22.122   8.092  0.00  0.00    +0.000 C 
ATOM      9  C   UNL     1      33.574  23.159   7.375  0.00  0.00    +0.000 C 
ATOM     10  C   UNL     1      34.635  23.798   8.169  0.00  0.00    +0.000 C 
ATOM     11  C   UNL     1      35.942  23.029   7.918  0.00  0.00    +0.000 C 
ATOM     12  C   UNL     1      34.890  25.202   7.651  0.00  0.00    +0.000 C 
ATOM     13  C   UNL     1      34.370  23.806   9.652  0.00  0.00    +0.000 C 
ATOM     14  C   UNL     1      34.017  22.441  10.078  0.00  0.00    +0.000 C 
ATOM     15  O   UNL     1      34.613  21.896  11.036  0.00  0.00    +0.000 OA
ENDROOT
BRANCH   6  16
ATOM     16  C   UNL     1      31.231  21.602  10.964  0.00  0.00    +0.000 A 
ATOM     17  C   UNL     1      31.316  21.316  12.301  0.00  0.00    +0.000 A 
ATOM     18  C   UNL     1      30.556  22.053  13.235  0.00  0.00    +0.000 A 
ATOM     19  C   UNL     1      29.734  23.059  12.788  0.00  0.00    +0.000 A 
ATOM     20  O   UNL     1      28.982  23.783  13.745  0.00  0.00    +0.000 OA
ATOM     21  C   UNL     1      29.652  23.340  11.461  0.00  0.00    +0.000 A 
ATOM     22  C   UNL     1      30.422  22.583  10.587  0.00  0.00    +0.000 A 
ENDBRANCH   6  16
TORSDOF 1
ENDMDL
MODEL 10
REMARK VINA RESULT:      -5.9      2.406      4.570
REMARK  Name = 
REMARK  1 active torsions:
REMARK  status: ('A' for Active; 'I' for Inactive)
REMARK    1  A    between atoms: C_6  and  C_7
REMARK                            x       y       z     vdW  Elec       q    Type
REMARK                         _______ _______ _______ _____ _____    ______ ____
ROOT
ATOM      1  C   UNL     1      25.838  25.571  26.114  0.00  0.00    +0.000 C 
ATOM      2  N   UNL     1      26.786  24.501  26.327  0.00  0.00    +0.000 N 
ATOM      3  C   UNL     1      26.668  23.662  27.477  0.00  0.00    +0.000 C 
ATOM      4  O   UNL     1      25.693  23.920  28.277  0.00  0.00    +0.000 OA
ATOM      5  N   UNL     1      27.564  22.675  27.649  0.00  0.00    +0.000 NA
ATOM      6  C   UNL     1      28.709  22.272  26.842  0.00  0.00    +0.000 C 
ATOM      7  C   UNL     1      28.723  23.240  25.650  0.00  0.00    +0.000 C 
ATOM      8  C   UNL     1      27.879  24.201  25.446  0.00  0.00    +0.000 C 
ATOM      9  C   UNL     1      27.898  25.132  24.280  0.00  0.00    +0.000 C 
ATOM     10  C   UNL     1      28.973  24.898  23.303  0.00  0.00    +0.000 C 
ATOM     11  C   UNL     1      28.417  23.986  22.198  0.00  0.00    +0.000 C 
ATOM     12  C   UNL     1      29.329  26.200  22.607  0.00  0.00    +0.000 C 
ATOM     13  C   UNL     1      30.198  24.242  23.885  0.00  0.00    +0.000 C 
ATOM     14  C   UNL     1      29.782  23.049  24.643  0.00  0.00    +0.000 C 
ATOM     15  O   UNL     1      30.315  21.936  24.427  0.00  0.00    +0.000 OA
ENDROOT
BRANCH   6  16
ATOM     16  C   UNL     1      29.897  22.836  27.674  0.00  0.00    +0.000 A 
ATOM     17  C   UNL     1      30.917  21.939  27.856  0.00  0.00    +0.000 A 
ATOM     18  C   UNL     1      32.064  22.309  28.593  0.00  0.00    +0.000 A 
ATOM     19  C   UNL     1      32.144  23.574  29.121  0.00  0.00    +0.000 A 
ATOM     20  O   UNL     1      33.305  23.919  29.855  0.00  0.00    +0.000 OA
ATOM     21  C   UNL     1      31.131  24.460  28.939  0.00  0.00    +0.000 A 
ATOM     22  C   UNL     1      30.026  24.043  28.207  0.00  0.00    +0.000 A 
ENDBRANCH   6  16
TORSDOF 1
ENDMDL
