MODEL 1
REMARK VINA RESULT:      -8.2      0.000      0.000
REMARK  Name = 
REMARK  8 active torsions:
REMARK  status: ('A' for Active; 'I' for Inactive)
REMARK    1  A    between atoms: C_2  and  N_3
REMARK    2  A    between atoms: C_2  and  C_19
REMARK    3  A    between atoms: N_3  and  N_4
REMARK    4  A    between atoms: C_5  and  C_7
REMARK    5  A    between atoms: C_7  and  O_8
REMARK    6  A    between atoms: O_8  and  C_9
REMARK    7  A    between atoms: C_15  and  C_16
REMARK    8  A    between atoms: C_22  and  C_23
REMARK                            x       y       z     vdW  Elec       q    Type
REMARK                         _______ _______ _______ _____ _____    ______ ____
ROOT
ATOM      1  N   UNL     1      37.237   2.527  13.665  0.00  0.00    +0.000 NA
ENDROOT
BRANCH   1   2
ATOM      2  N   UNL     1      37.413   1.216  14.038  0.00  0.00    +0.000 NA
ATOM      3  C   UNL     1      38.671   0.831  14.558  0.00  0.00    +0.000 C 
ATOM      4  O   UNL     1      39.572   1.672  14.682  0.00  0.00    +0.000 OA
BRANCH   3   5
ATOM      5  C   UNL     1      38.884  -0.569  14.939  0.00  0.00    +0.000 C 
BRANCH   5   6
ATOM      6  O   UNL     1      38.311  -0.790  16.208  0.00  0.00    +0.000 OA
BRANCH   6   7
ATOM      7  C   UNL     1      37.087  -1.458  16.263  0.00  0.00    +0.000 A 
ATOM      8  C   UNL     1      36.948  -2.742  15.751  0.00  0.00    +0.000 A 
ATOM      9  C   UNL     1      35.726  -3.408  15.807  0.00  0.00    +0.000 A 
ATOM     10  C   UNL     1      35.647  -4.803  15.239  0.00  0.00    +0.000 C 
ATOM     11  C   UNL     1      34.612  -2.825  16.370  0.00  0.00    +0.000 A 
ATOM     12  C   UNL     1      34.755  -1.539  16.881  0.00  0.00    +0.000 A 
ATOM     13  C   UNL     1      35.971  -0.877  16.824  0.00  0.00    +0.000 A 
BRANCH  13  14
ATOM     14  C   UNL     1      36.072   0.486  17.395  0.00  0.00    +0.000 C 
ATOM     15  C   UNL     1      34.865   1.299  16.937  0.00  0.00    +0.000 C 
ATOM     16  C   UNL     1      35.934   0.337  18.894  0.00  0.00    +0.000 C 
ENDBRANCH  13  14
ENDBRANCH   6   7
ENDBRANCH   5   6
ENDBRANCH   3   5
ENDBRANCH   1   2
BRANCH   1  18
ATOM     17  C   UNL     1      35.421   3.907  14.358  0.00  0.00    +0.000 C 
ATOM     18  C   UNL     1      36.696   3.553  14.467  0.00  0.00    +0.000 C 
BRANCH  18  19
ATOM     19  C   UNL     1      37.600   4.171  15.441  0.00  0.00    +0.000 A 
ATOM     20  C   UNL     1      38.598   5.048  15.034  0.00  0.00    +0.000 A 
ATOM     21  C   UNL     1      39.459   5.610  15.944  0.00  0.00    +0.000 A 
ATOM     22  C   UNL     1      39.412   5.362  17.294  0.00  0.00    +0.000 A 
ATOM     23  C   UNL     1      38.417   4.491  17.705  0.00  0.00    +0.000 A 
ATOM     24  C   UNL     1      37.546   3.923  16.790  0.00  0.00    +0.000 A 
BRANCH  22  25
ATOM     25  C   UNL     1      40.369   5.995  18.209  0.00  0.00    +0.000 A 
ATOM     26  C   UNL     1      40.025   6.224  19.525  0.00  0.00    +0.000 A 
ATOM     27  C   UNL     1      40.928   6.831  20.412  0.00  0.00    +0.000 A 
ATOM     28  C   UNL     1      42.168   7.203  19.977  0.00  0.00    +0.000 A 
ATOM     29  C   UNL     1      42.546   6.992  18.677  0.00  0.00    +0.000 A 
ATOM     30  C   UNL     1      41.617   6.381  17.801  0.00  0.00    +0.000 A 
ENDBRANCH  22  25
ENDBRANCH  18  19
ENDBRANCH   1  18
TORSDOF 8
ENDMDL
MODEL 2
REMARK VINA RESULT:      -8.1      1.883      3.276
REMARK  Name = 
REMARK  8 active torsions:
REMARK  status: ('A' for Active; 'I' for Inactive)
REMARK    1  A    between atoms: C_2  and  N_3
REMARK    2  A    between atoms: C_2  and  C_19
REMARK    3  A    between atoms: N_3  and  N_4
REMARK    4  A    between atoms: C_5  and  C_7
REMARK    5  A    between atoms: C_7  and  O_8
REMARK    6  A    between atoms: O_8  and  C_9
REMARK    7  A    between atoms: C_15  and  C_16
REMARK    8  A    between atoms: C_22  and  C_23
REMARK                            x       y       z     vdW  Elec       q    Type
REMARK                         _______ _______ _______ _____ _____    ______ ____
ROOT
ATOM      1  N   UNL     1      38.168   4.010  16.707  0.00  0.00    +0.000 NA
ENDROOT
BRANCH   1   2
ATOM      2  N   UNL     1      38.404   3.014  15.789  0.00  0.00    +0.000 NA
ATOM      3  C   UNL     1      37.296   2.450  15.113  0.00  0.00    +0.000 C 
ATOM      4  O   UNL     1      36.153   2.869  15.343  0.00  0.00    +0.000 OA
BRANCH   3   5
ATOM      5  C   UNL     1      37.527   1.370  14.149  0.00  0.00    +0.000 C 
BRANCH   5   6
ATOM      6  O   UNL     1      36.779   0.240  14.540  0.00  0.00    +0.000 OA
BRANCH   6   7
ATOM      7  C   UNL     1      37.383  -0.677  15.398  0.00  0.00    +0.000 A 
ATOM      8  C   UNL     1      38.563  -1.322  15.043  0.00  0.00    +0.000 A 
ATOM      9  C   UNL     1      39.167  -2.237  15.901  0.00  0.00    +0.000 A 
ATOM     10  C   UNL     1      40.449  -2.894  15.455  0.00  0.00    +0.000 C 
ATOM     11  C   UNL     1      38.623  -2.540  17.130  0.00  0.00    +0.000 A 
ATOM     12  C   UNL     1      37.442  -1.894  17.482  0.00  0.00    +0.000 A 
ATOM     13  C   UNL     1      36.842  -0.984  16.628  0.00  0.00    +0.000 A 
BRANCH  13  14
ATOM     14  C   UNL     1      35.593  -0.314  17.057  0.00  0.00    +0.000 C 
ATOM     15  C   UNL     1      34.565  -1.381  17.417  0.00  0.00    +0.000 C 
ATOM     16  C   UNL     1      35.913   0.412  18.345  0.00  0.00    +0.000 C 
ENDBRANCH  13  14
ENDBRANCH   6   7
ENDBRANCH   5   6
ENDBRANCH   3   5
ENDBRANCH   1   2
BRANCH   1  18
ATOM     17  C   UNL     1      38.131   6.178  15.718  0.00  0.00    +0.000 C 
ATOM     18  C   UNL     1      38.626   5.341  16.622  0.00  0.00    +0.000 C 
BRANCH  18  19
ATOM     19  C   UNL     1      39.638   5.752  17.599  0.00  0.00    +0.000 A 
ATOM     20  C   UNL     1      39.329   5.854  18.949  0.00  0.00    +0.000 A 
ATOM     21  C   UNL     1      40.272   6.260  19.862  0.00  0.00    +0.000 A 
ATOM     22  C   UNL     1      41.562   6.592  19.529  0.00  0.00    +0.000 A 
ATOM     23  C   UNL     1      41.875   6.490  18.185  0.00  0.00    +0.000 A 
ATOM     24  C   UNL     1      40.927   6.079  17.262  0.00  0.00    +0.000 A 
BRANCH  22  25
ATOM     25  C   UNL     1      42.516   7.023  20.558  0.00  0.00    +0.000 A 
ATOM     26  C   UNL     1      43.113   6.095  21.384  0.00  0.00    +0.000 A 
ATOM     27  C   UNL     1      44.027   6.492  22.374  0.00  0.00    +0.000 A 
ATOM     28  C   UNL     1      44.337   7.813  22.529  0.00  0.00    +0.000 A 
ATOM     29  C   UNL     1      43.764   8.764  21.726  0.00  0.00    +0.000 A 
ATOM     30  C   UNL     1      42.844   8.340  20.737  0.00  0.00    +0.000 A 
ENDBRANCH  22  25
ENDBRANCH  18  19
ENDBRANCH   1  18
TORSDOF 8
ENDMDL
MODEL 3
REMARK VINA RESULT:      -8.0      1.666      3.109
REMARK  Name = 
REMARK  8 active torsions:
REMARK  status: ('A' for Active; 'I' for Inactive)
REMARK    1  A    between atoms: C_2  and  N_3
REMARK    2  A    between atoms: C_2  and  C_19
REMARK    3  A    between atoms: N_3  and  N_4
REMARK    4  A    between atoms: C_5  and  C_7
REMARK    5  A    between atoms: C_7  and  O_8
REMARK    6  A    between atoms: O_8  and  C_9
REMARK    7  A    between atoms: C_15  and  C_16
REMARK    8  A    between atoms: C_22  and  C_23
REMARK                            x       y       z     vdW  Elec       q    Type
REMARK                         _______ _______ _______ _____ _____    ______ ____
ROOT
ATOM      1  N   UNL     1      36.713   3.305  16.568  0.00  0.00    +0.000 NA
ENDROOT
BRANCH   1   2
ATOM      2  N   UNL     1      36.625   2.000  16.990  0.00  0.00    +0.000 NA
ATOM      3  C   UNL     1      35.350   1.387  17.011  0.00  0.00    +0.000 C 
ATOM      4  O   UNL     1      34.354   2.020  16.637  0.00  0.00    +0.000 OA
BRANCH   3   5
ATOM      5  C   UNL     1      35.235   0.003  17.482  0.00  0.00    +0.000 C 
BRANCH   5   6
ATOM      6  O   UNL     1      36.449  -0.670  17.227  0.00  0.00    +0.000 OA
BRANCH   6   7
ATOM      7  C   UNL     1      36.448  -1.671  16.257  0.00  0.00    +0.000 A 
ATOM      8  C   UNL     1      35.312  -2.432  16.013  0.00  0.00    +0.000 A 
ATOM      9  C   UNL     1      35.312  -3.432  15.042  0.00  0.00    +0.000 A 
ATOM     10  C   UNL     1      34.041  -4.215  14.825  0.00  0.00    +0.000 C 
ATOM     11  C   UNL     1      36.432  -3.704  14.289  0.00  0.00    +0.000 A 
ATOM     12  C   UNL     1      37.569  -2.941  14.537  0.00  0.00    +0.000 A 
ATOM     13  C   UNL     1      37.568  -1.948  15.502  0.00  0.00    +0.000 A 
BRANCH  13  14
ATOM     14  C   UNL     1      38.801  -1.156  15.716  0.00  0.00    +0.000 C 
ATOM     15  C   UNL     1      40.005  -2.013  15.343  0.00  0.00    +0.000 C 
ATOM     16  C   UNL     1      38.765  -0.023  14.714  0.00  0.00    +0.000 C 
ENDBRANCH  13  14
ENDBRANCH   6   7
ENDBRANCH   5   6
ENDBRANCH   3   5
ENDBRANCH   1   2
BRANCH   1  18
ATOM     17  C   UNL     1      37.959   3.769  14.589  0.00  0.00    +0.000 C 
ATOM     18  C   UNL     1      37.811   3.889  15.903  0.00  0.00    +0.000 C 
BRANCH  18  19
ATOM     19  C   UNL     1      38.746   4.657  16.730  0.00  0.00    +0.000 A 
ATOM     20  C   UNL     1      38.588   4.732  18.108  0.00  0.00    +0.000 A 
ATOM     21  C   UNL     1      39.452   5.469  18.880  0.00  0.00    +0.000 A 
ATOM     22  C   UNL     1      40.514   6.178  18.373  0.00  0.00    +0.000 A 
ATOM     23  C   UNL     1      40.677   6.104  17.001  0.00  0.00    +0.000 A 
ATOM     24  C   UNL     1      39.808   5.360  16.219  0.00  0.00    +0.000 A 
BRANCH  22  25
ATOM     25  C   UNL     1      41.395   6.949  19.258  0.00  0.00    +0.000 A 
ATOM     26  C   UNL     1      41.502   8.315  19.113  0.00  0.00    +0.000 A 
ATOM     27  C   UNL     1      42.342   9.067  19.950  0.00  0.00    +0.000 A 
ATOM     28  C   UNL     1      43.067   8.446  20.927  0.00  0.00    +0.000 A 
ATOM     29  C   UNL     1      42.986   7.090  21.102  0.00  0.00    +0.000 A 
ATOM     30  C   UNL     1      42.134   6.353  20.245  0.00  0.00    +0.000 A 
ENDBRANCH  22  25
ENDBRANCH  18  19
ENDBRANCH   1  18
TORSDOF 8
ENDMDL
MODEL 4
REMARK VINA RESULT:      -7.9      1.671      2.899
REMARK  Name = 
REMARK  8 active torsions:
REMARK  status: ('A' for Active; 'I' for Inactive)
REMARK    1  A    between atoms: C_2  and  N_3
REMARK    2  A    between atoms: C_2  and  C_19
REMARK    3  A    between atoms: N_3  and  N_4
REMARK    4  A    between atoms: C_5  and  C_7
REMARK    5  A    between atoms: C_7  and  O_8
REMARK    6  A    between atoms: O_8  and  C_9
REMARK    7  A    between atoms: C_15  and  C_16
REMARK    8  A    between atoms: C_22  and  C_23
REMARK                            x       y       z     vdW  Elec       q    Type
REMARK                         _______ _______ _______ _____ _____    ______ ____
ROOT
ATOM      1  N   UNL     1      38.236   3.149  16.123  0.00  0.00    +0.000 NA
ENDROOT
BRANCH   1   2
ATOM      2  N   UNL     1      37.104   2.377  16.234  0.00  0.00    +0.000 NA
ATOM      3  C   UNL     1      37.141   1.058  15.725  0.00  0.00    +0.000 C 
ATOM      4  O   UNL     1      38.180   0.621  15.213  0.00  0.00    +0.000 OA
BRANCH   3   5
ATOM      5  C   UNL     1      35.934   0.229  15.813  0.00  0.00    +0.000 C 
BRANCH   5   6
ATOM      6  O   UNL     1      36.148  -0.791  16.764  0.00  0.00    +0.000 OA
BRANCH   6   7
ATOM      7  C   UNL     1      36.107  -2.113  16.323  0.00  0.00    +0.000 A 
ATOM      8  C   UNL     1      34.952  -2.647  15.765  0.00  0.00    +0.000 A 
ATOM      9  C   UNL     1      34.912  -3.968  15.323  0.00  0.00    +0.000 A 
ATOM     10  C   UNL     1      33.628  -4.480  14.721  0.00  0.00    +0.000 C 
ATOM     11  C   UNL     1      36.010  -4.793  15.421  0.00  0.00    +0.000 A 
ATOM     12  C   UNL     1      37.165  -4.256  15.981  0.00  0.00    +0.000 A 
ATOM     13  C   UNL     1      37.203  -2.942  16.420  0.00  0.00    +0.000 A 
BRANCH  13  14
ATOM     14  C   UNL     1      38.462  -2.416  16.996  0.00  0.00    +0.000 C 
ATOM     15  C   UNL     1      38.635  -2.988  18.399  0.00  0.00    +0.000 C 
ATOM     16  C   UNL     1      39.589  -2.990  16.167  0.00  0.00    +0.000 C 
ENDBRANCH  13  14
ENDBRANCH   6   7
ENDBRANCH   5   6
ENDBRANCH   3   5
ENDBRANCH   1   2
BRANCH   1  18
ATOM     17  C   UNL     1      37.529   5.257  15.263  0.00  0.00    +0.000 C 
ATOM     18  C   UNL     1      38.281   4.558  16.105  0.00  0.00    +0.000 C 
BRANCH  18  19
ATOM     19  C   UNL     1      39.166   5.200  17.082  0.00  0.00    +0.000 A 
ATOM     20  C   UNL     1      40.376   5.760  16.692  0.00  0.00    +0.000 A 
ATOM     21  C   UNL     1      41.215   6.341  17.611  0.00  0.00    +0.000 A 
ATOM     22  C   UNL     1      40.941   6.415  18.955  0.00  0.00    +0.000 A 
ATOM     23  C   UNL     1      39.736   5.861  19.348  0.00  0.00    +0.000 A 
ATOM     24  C   UNL     1      38.886   5.275  18.424  0.00  0.00    +0.000 A 
BRANCH  22  25
ATOM     25  C   UNL     1      41.887   7.048  19.882  0.00  0.00    +0.000 A 
ATOM     26  C   UNL     1      42.616   6.278  20.762  0.00  0.00    +0.000 A 
ATOM     27  C   UNL     1      43.524   6.869  21.656  0.00  0.00    +0.000 A 
ATOM     28  C   UNL     1      43.696   8.224  21.662  0.00  0.00    +0.000 A 
ATOM     29  C   UNL     1      42.989   9.021  20.800  0.00  0.00    +0.000 A 
ATOM     30  C   UNL     1      42.078   8.404  19.910  0.00  0.00    +0.000 A 
ENDBRANCH  22  25
ENDBRANCH  18  19
ENDBRANCH   1  18
TORSDOF 8
ENDMDL
MODEL 5
REMARK VINA RESULT:      -7.7      2.056      3.908
REMARK  Name = 
REMARK  8 active torsions:
REMARK  status: ('A' for Active; 'I' for Inactive)
REMARK    1  A    between atoms: C_2  and  N_3
REMARK    2  A    between atoms: C_2  and  C_19
REMARK    3  A    between atoms: N_3  and  N_4
REMARK    4  A    between atoms: C_5  and  C_7
REMARK    5  A    between atoms: C_7  and  O_8
REMARK    6  A    between atoms: O_8  and  C_9
REMARK    7  A    between atoms: C_15  and  C_16
REMARK    8  A    between atoms: C_22  and  C_23
REMARK                            x       y       z     vdW  Elec       q    Type
REMARK                         _______ _______ _______ _____ _____    ______ ____
ROOT
ATOM      1  N   UNL     1      37.767   4.315  16.729  0.00  0.00    +0.000 NA
ENDROOT
BRANCH   1   2
ATOM      2  N   UNL     1      38.067   3.069  16.232  0.00  0.00    +0.000 NA
ATOM      3  C   UNL     1      37.249   2.543  15.205  0.00  0.00    +0.000 C 
ATOM      4  O   UNL     1      36.303   3.210  14.766  0.00  0.00    +0.000 OA
BRANCH   3   5
ATOM      5  C   UNL     1      37.540   1.204  14.681  0.00  0.00    +0.000 C 
BRANCH   5   6
ATOM      6  O   UNL     1      38.003   0.391  15.736  0.00  0.00    +0.000 OA
BRANCH   6   7
ATOM      7  C   UNL     1      38.960  -0.579  15.440  0.00  0.00    +0.000 A 
ATOM      8  C   UNL     1      39.959  -0.338  14.504  0.00  0.00    +0.000 A 
ATOM      9  C   UNL     1      40.915  -1.308  14.209  0.00  0.00    +0.000 A 
ATOM     10  C   UNL     1      41.975  -0.976  13.188  0.00  0.00    +0.000 C 
ATOM     11  C   UNL     1      40.910  -2.537  14.829  0.00  0.00    +0.000 A 
ATOM     12  C   UNL     1      39.908  -2.776  15.765  0.00  0.00    +0.000 A 
ATOM     13  C   UNL     1      38.957  -1.811  16.057  0.00  0.00    +0.000 A 
BRANCH  13  14
ATOM     14  C   UNL     1      37.920  -2.112  17.071  0.00  0.00    +0.000 C 
ATOM     15  C   UNL     1      36.839  -2.972  16.425  0.00  0.00    +0.000 C 
ATOM     16  C   UNL     1      38.580  -2.982  18.117  0.00  0.00    +0.000 C 
ENDBRANCH  13  14
ENDBRANCH   6   7
ENDBRANCH   5   6
ENDBRANCH   3   5
ENDBRANCH   1   2
BRANCH   1  18
ATOM     17  C   UNL     1      38.297   6.238  15.424  0.00  0.00    +0.000 C 
ATOM     18  C   UNL     1      38.504   5.497  16.505  0.00  0.00    +0.000 C 
BRANCH  18  19
ATOM     19  C   UNL     1      39.473   5.872  17.539  0.00  0.00    +0.000 A 
ATOM     20  C   UNL     1      40.803   6.112  17.220  0.00  0.00    +0.000 A 
ATOM     21  C   UNL     1      41.715   6.443  18.192  0.00  0.00    +0.000 A 
ATOM     22  C   UNL     1      41.402   6.560  19.524  0.00  0.00    +0.000 A 
ATOM     23  C   UNL     1      40.077   6.324  19.847  0.00  0.00    +0.000 A 
ATOM     24  C   UNL     1      39.154   5.992  18.868  0.00  0.00    +0.000 A 
BRANCH  22  25
ATOM     25  C   UNL     1      42.430   6.913  20.510  0.00  0.00    +0.000 A 
ATOM     26  C   UNL     1      43.081   5.925  21.218  0.00  0.00    +0.000 A 
ATOM     27  C   UNL     1      44.066   6.247  22.167  0.00  0.00    +0.000 A 
ATOM     28  C   UNL     1      44.392   7.553  22.399  0.00  0.00    +0.000 A 
ATOM     29  C   UNL     1      43.766   8.561  21.714  0.00  0.00    +0.000 A 
ATOM     30  C   UNL     1      42.776   8.213  20.765  0.00  0.00    +0.000 A 
ENDBRANCH  22  25
ENDBRANCH  18  19
ENDBRANCH   1  18
TORSDOF 8
ENDMDL
MODEL 6
REMARK VINA RESULT:      -7.4     25.695     28.337
REMARK  Name = 
REMARK  8 active torsions:
REMARK  status: ('A' for Active; 'I' for Inactive)
REMARK    1  A    between atoms: C_2  and  N_3
REMARK    2  A    between atoms: C_2  and  C_19
REMARK    3  A    between atoms: N_3  and  N_4
REMARK    4  A    between atoms: C_5  and  C_7
REMARK    5  A    between atoms: C_7  and  O_8
REMARK    6  A    between atoms: O_8  and  C_9
REMARK    7  A    between atoms: C_15  and  C_16
REMARK    8  A    between atoms: C_22  and  C_23
REMARK                            x       y       z     vdW  Elec       q    Type
REMARK                         _______ _______ _______ _____ _____    ______ ____
ROOT
ATOM      1  N   UNL     1      25.236  14.722  41.536  0.00  0.00    +0.000 NA
ENDROOT
BRANCH   1   2
ATOM      2  N   UNL     1      25.334  13.351  41.536  0.00  0.00    +0.000 NA
ATOM      3  C   UNL     1      25.736  12.709  42.730  0.00  0.00    +0.000 C 
ATOM      4  O   UNL     1      25.972  13.380  43.744  0.00  0.00    +0.000 OA
BRANCH   3   5
ATOM      5  C   UNL     1      25.869  11.248  42.741  0.00  0.00    +0.000 C 
BRANCH   5   6
ATOM      6  O   UNL     1      26.221  10.812  41.447  0.00  0.00    +0.000 OA
BRANCH   6   7
ATOM      7  C   UNL     1      27.524  10.357  41.244  0.00  0.00    +0.000 A 
ATOM      8  C   UNL     1      28.468  11.149  40.601  0.00  0.00    +0.000 A 
ATOM      9  C   UNL     1      29.769  10.694  40.400  0.00  0.00    +0.000 A 
ATOM     10  C   UNL     1      30.744  11.609  39.701  0.00  0.00    +0.000 C 
ATOM     11  C   UNL     1      30.171   9.448  40.827  0.00  0.00    +0.000 A 
ATOM     12  C   UNL     1      29.223   8.657  41.469  0.00  0.00    +0.000 A 
ATOM     13  C   UNL     1      27.929   9.110  41.669  0.00  0.00    +0.000 A 
BRANCH  13  14
ATOM     14  C   UNL     1      26.964   8.233  42.370  0.00  0.00    +0.000 C 
ATOM     15  C   UNL     1      26.046   7.591  41.335  0.00  0.00    +0.000 C 
ATOM     16  C   UNL     1      27.768   7.105  42.976  0.00  0.00    +0.000 C 
ENDBRANCH  13  14
ENDBRANCH   6   7
ENDBRANCH   5   6
ENDBRANCH   3   5
ENDBRANCH   1   2
BRANCH   1  18
ATOM     17  C   UNL     1      26.970  16.357  41.514  0.00  0.00    +0.000 C 
ATOM     18  C   UNL     1      26.089  15.615  40.855  0.00  0.00    +0.000 C 
BRANCH  18  19
ATOM     19  C   UNL     1      25.974  15.648  39.394  0.00  0.00    +0.000 A 
ATOM     20  C   UNL     1      24.794  16.049  38.779  0.00  0.00    +0.000 A 
ATOM     21  C   UNL     1      24.679  16.059  37.410  0.00  0.00    +0.000 A 
ATOM     22  C   UNL     1      25.687  15.684  36.556  0.00  0.00    +0.000 A 
ATOM     23  C   UNL     1      26.865  15.288  37.165  0.00  0.00    +0.000 A 
ATOM     24  C   UNL     1      26.985  15.277  38.545  0.00  0.00    +0.000 A 
BRANCH  22  25
ATOM     25  C   UNL     1      25.492  15.716  35.102  0.00  0.00    +0.000 A 
ATOM     26  C   UNL     1      25.722  14.587  34.346  0.00  0.00    +0.000 A 
ATOM     27  C   UNL     1      25.542  14.602  32.953  0.00  0.00    +0.000 A 
ATOM     28  C   UNL     1      25.132  15.745  32.328  0.00  0.00    +0.000 A 
ATOM     29  C   UNL     1      24.893  16.887  33.047  0.00  0.00    +0.000 A 
ATOM     30  C   UNL     1      25.084  16.848  34.449  0.00  0.00    +0.000 A 
ENDBRANCH  22  25
ENDBRANCH  18  19
ENDBRANCH   1  18
TORSDOF 8
ENDMDL
MODEL 7
REMARK VINA RESULT:      -7.3      2.329      9.351
REMARK  Name = 
REMARK  8 active torsions:
REMARK  status: ('A' for Active; 'I' for Inactive)
REMARK    1  A    between atoms: C_2  and  N_3
REMARK    2  A    between atoms: C_2  and  C_19
REMARK    3  A    between atoms: N_3  and  N_4
REMARK    4  A    between atoms: C_5  and  C_7
REMARK    5  A    between atoms: C_7  and  O_8
REMARK    6  A    between atoms: O_8  and  C_9
REMARK    7  A    between atoms: C_15  and  C_16
REMARK    8  A    between atoms: C_22  and  C_23
REMARK                            x       y       z     vdW  Elec       q    Type
REMARK                         _______ _______ _______ _____ _____    ______ ____
ROOT
ATOM      1  N   UNL     1      37.311   3.733  15.408  0.00  0.00    +0.000 NA
ENDROOT
BRANCH   1   2
ATOM      2  N   UNL     1      37.960   3.712  16.620  0.00  0.00    +0.000 NA
ATOM      3  C   UNL     1      38.324   4.947  17.206  0.00  0.00    +0.000 C 
ATOM      4  O   UNL     1      38.042   6.009  16.636  0.00  0.00    +0.000 OA
BRANCH   3   5
ATOM      5  C   UNL     1      39.039   4.942  18.487  0.00  0.00    +0.000 C 
BRANCH   5   6
ATOM      6  O   UNL     1      38.810   6.170  19.143  0.00  0.00    +0.000 OA
BRANCH   6   7
ATOM      7  C   UNL     1      39.916   6.859  19.639  0.00  0.00    +0.000 A 
ATOM      8  C   UNL     1      41.033   6.179  20.109  0.00  0.00    +0.000 A 
ATOM      9  C   UNL     1      42.138   6.870  20.604  0.00  0.00    +0.000 A 
ATOM     10  C   UNL     1      43.319   6.068  21.090  0.00  0.00    +0.000 C 
ATOM     11  C   UNL     1      42.167   8.246  20.647  0.00  0.00    +0.000 A 
ATOM     12  C   UNL     1      41.046   8.923  20.177  0.00  0.00    +0.000 A 
ATOM     13  C   UNL     1      39.948   8.236  19.685  0.00  0.00    +0.000 A 
BRANCH  13  14
ATOM     14  C   UNL     1      38.787   9.007  19.185  0.00  0.00    +0.000 C 
ATOM     15  C   UNL     1      37.836   9.270  20.348  0.00  0.00    +0.000 C 
ATOM     16  C   UNL     1      39.316  10.358  18.761  0.00  0.00    +0.000 C 
ENDBRANCH  13  14
ENDBRANCH   6   7
ENDBRANCH   5   6
ENDBRANCH   3   5
ENDBRANCH   1   2
BRANCH   1  18
ATOM     17  C   UNL     1      35.060   3.760  14.624  0.00  0.00    +0.000 C 
ATOM     18  C   UNL     1      36.096   3.084  15.106  0.00  0.00    +0.000 C 
BRANCH  18  19
ATOM     19  C   UNL     1      36.055   1.634  15.318  0.00  0.00    +0.000 A 
ATOM     20  C   UNL     1      36.652   0.762  14.416  0.00  0.00    +0.000 A 
ATOM     21  C   UNL     1      36.595  -0.597  14.604  0.00  0.00    +0.000 A 
ATOM     22  C   UNL     1      35.961  -1.195  15.665  0.00  0.00    +0.000 A 
ATOM     23  C   UNL     1      35.368  -0.330  16.568  0.00  0.00    +0.000 A 
ATOM     24  C   UNL     1      35.424   1.041  16.383  0.00  0.00    +0.000 A 
BRANCH  22  25
ATOM     25  C   UNL     1      35.936  -2.656  15.800  0.00  0.00    +0.000 A 
ATOM     26  C   UNL     1      34.917  -3.389  15.230  0.00  0.00    +0.000 A 
ATOM     27  C   UNL     1      34.878  -4.788  15.352  0.00  0.00    +0.000 A 
ATOM     28  C   UNL     1      35.858  -5.442  16.041  0.00  0.00    +0.000 A 
ATOM     29  C   UNL     1      36.888  -4.748  16.621  0.00  0.00    +0.000 A 
ATOM     30  C   UNL     1      36.905  -3.338  16.487  0.00  0.00    +0.000 A 
ENDBRANCH  22  25
ENDBRANCH  18  19
ENDBRANCH   1  18
TORSDOF 8
ENDMDL
MODEL 8
REMARK VINA RESULT:      -7.3      1.223      2.742
REMARK  Name = 
REMARK  8 active torsions:
REMARK  status: ('A' for Active; 'I' for Inactive)
REMARK    1  A    between atoms: C_2  and  N_3
REMARK    2  A    between atoms: C_2  and  C_19
REMARK    3  A    between atoms: N_3  and  N_4
REMARK    4  A    between atoms: C_5  and  C_7
REMARK    5  A    between atoms: C_7  and  O_8
REMARK    6  A    between atoms: O_8  and  C_9
REMARK    7  A    between atoms: C_15  and  C_16
REMARK    8  A    between atoms: C_22  and  C_23
REMARK                            x       y       z     vdW  Elec       q    Type
REMARK                         _______ _______ _______ _____ _____    ______ ____
ROOT
ATOM      1  N   UNL     1      36.637   2.379  13.740  0.00  0.00    +0.000 NA
ENDROOT
BRANCH   1   2
ATOM      2  N   UNL     1      36.411   1.023  13.723  0.00  0.00    +0.000 NA
ATOM      3  C   UNL     1      37.465   0.163  14.109  0.00  0.00    +0.000 C 
ATOM      4  O   UNL     1      38.551   0.638  14.468  0.00  0.00    +0.000 OA
BRANCH   3   5
ATOM      5  C   UNL     1      37.248  -1.288  14.073  0.00  0.00    +0.000 C 
BRANCH   5   6
ATOM      6  O   UNL     1      36.206  -1.617  14.964  0.00  0.00    +0.000 OA
BRANCH   6   7
ATOM      7  C   UNL     1      36.483  -1.589  16.331  0.00  0.00    +0.000 A 
ATOM      8  C   UNL     1      36.233  -0.452  17.089  0.00  0.00    +0.000 A 
ATOM      9  C   UNL     1      36.509  -0.425  18.455  0.00  0.00    +0.000 A 
ATOM     10  C   UNL     1      36.207   0.840  19.219  0.00  0.00    +0.000 C 
ATOM     11  C   UNL     1      37.038  -1.518  19.104  0.00  0.00    +0.000 A 
ATOM     12  C   UNL     1      37.288  -2.655  18.342  0.00  0.00    +0.000 A 
ATOM     13  C   UNL     1      37.013  -2.680  16.984  0.00  0.00    +0.000 A 
BRANCH  13  14
ATOM     14  C   UNL     1      37.286  -3.920  16.221  0.00  0.00    +0.000 C 
ATOM     15  C   UNL     1      38.261  -4.780  17.017  0.00  0.00    +0.000 C 
ATOM     16  C   UNL     1      35.986  -4.692  16.175  0.00  0.00    +0.000 C 
ENDBRANCH  13  14
ENDBRANCH   6   7
ENDBRANCH   5   6
ENDBRANCH   3   5
ENDBRANCH   1   2
BRANCH   1  18
ATOM     17  C   UNL     1      34.809   3.532  14.746  0.00  0.00    +0.000 C 
ATOM     18  C   UNL     1      36.114   3.295  14.676  0.00  0.00    +0.000 C 
BRANCH  18  19
ATOM     19  C   UNL     1      37.075   3.934  15.579  0.00  0.00    +0.000 A 
ATOM     20  C   UNL     1      37.874   4.985  15.145  0.00  0.00    +0.000 A 
ATOM     21  C   UNL     1      38.790   5.569  15.985  0.00  0.00    +0.000 A 
ATOM     22  C   UNL     1      38.994   5.177  17.285  0.00  0.00    +0.000 A 
ATOM     23  C   UNL     1      38.199   4.131  17.722  0.00  0.00    +0.000 A 
ATOM     24  C   UNL     1      37.272   3.540  16.878  0.00  0.00    +0.000 A 
BRANCH  22  25
ATOM     25  C   UNL     1      39.995   5.844  18.124  0.00  0.00    +0.000 A 
ATOM     26  C   UNL     1      39.692   6.193  19.423  0.00  0.00    +0.000 A 
ATOM     27  C   UNL     1      40.640   6.834  20.238  0.00  0.00    +0.000 A 
ATOM     28  C   UNL     1      41.882   7.120  19.749  0.00  0.00    +0.000 A 
ATOM     29  C   UNL     1      42.220   6.788  18.463  0.00  0.00    +0.000 A 
ATOM     30  C   UNL     1      41.248   6.144  17.659  0.00  0.00    +0.000 A 
ENDBRANCH  22  25
ENDBRANCH  18  19
ENDBRANCH   1  18
TORSDOF 8
ENDMDL
MODEL 9
REMARK VINA RESULT:      -7.3      7.122     11.351
REMARK  Name = 
REMARK  8 active torsions:
REMARK  status: ('A' for Active; 'I' for Inactive)
REMARK    1  A    between atoms: C_2  and  N_3
REMARK    2  A    between atoms: C_2  and  C_19
REMARK    3  A    between atoms: N_3  and  N_4
REMARK    4  A    between atoms: C_5  and  C_7
REMARK    5  A    between atoms: C_7  and  O_8
REMARK    6  A    between atoms: O_8  and  C_9
REMARK    7  A    between atoms: C_15  and  C_16
REMARK    8  A    between atoms: C_22  and  C_23
REMARK                            x       y       z     vdW  Elec       q    Type
REMARK                         _______ _______ _______ _____ _____    ______ ____
ROOT
ATOM      1  N   UNL     1      45.476   5.765  23.955  0.00  0.00    +0.000 NA
ENDROOT
BRANCH   1   2
ATOM      2  N   UNL     1      44.707   5.331  22.903  0.00  0.00    +0.000 NA
ATOM      3  C   UNL     1      43.798   6.243  22.316  0.00  0.00    +0.000 C 
ATOM      4  O   UNL     1      43.725   7.403  22.743  0.00  0.00    +0.000 OA
BRANCH   3   5
ATOM      5  C   UNL     1      42.951   5.789  21.208  0.00  0.00    +0.000 C 
BRANCH   5   6
ATOM      6  O   UNL     1      42.529   6.911  20.465  0.00  0.00    +0.000 OA
BRANCH   6   7
ATOM      7  C   UNL     1      42.360   6.756  19.089  0.00  0.00    +0.000 A 
ATOM      8  C   UNL     1      43.416   6.967  18.210  0.00  0.00    +0.000 A 
ATOM      9  C   UNL     1      43.246   6.811  16.836  0.00  0.00    +0.000 A 
ATOM     10  C   UNL     1      44.436   7.048  15.939  0.00  0.00    +0.000 C 
ATOM     11  C   UNL     1      42.033   6.445  16.296  0.00  0.00    +0.000 A 
ATOM     12  C   UNL     1      40.978   6.236  17.180  0.00  0.00    +0.000 A 
ATOM     13  C   UNL     1      41.148   6.391  18.546  0.00  0.00    +0.000 A 
BRANCH  13  14
ATOM     14  C   UNL     1      39.996   6.144  19.443  0.00  0.00    +0.000 C 
ATOM     15  C   UNL     1      39.302   7.472  19.727  0.00  0.00    +0.000 C 
ATOM     16  C   UNL     1      39.007   5.313  18.655  0.00  0.00    +0.000 C 
ENDBRANCH  13  14
ENDBRANCH   6   7
ENDBRANCH   5   6
ENDBRANCH   3   5
ENDBRANCH   1   2
BRANCH   1  18
ATOM     17  C   UNL     1      46.713   4.492  25.546  0.00  0.00    +0.000 C 
ATOM     18  C   UNL     1      45.600   5.132  25.209  0.00  0.00    +0.000 C 
BRANCH  18  19
ATOM     19  C   UNL     1      44.458   5.250  26.121  0.00  0.00    +0.000 A 
ATOM     20  C   UNL     1      43.993   6.495  26.527  0.00  0.00    +0.000 A 
ATOM     21  C   UNL     1      42.938   6.605  27.399  0.00  0.00    +0.000 A 
ATOM     22  C   UNL     1      42.270   5.528  27.929  0.00  0.00    +0.000 A 
ATOM     23  C   UNL     1      42.728   4.286  27.525  0.00  0.00    +0.000 A 
ATOM     24  C   UNL     1      43.792   4.171  26.645  0.00  0.00    +0.000 A 
BRANCH  22  25
ATOM     25  C   UNL     1      41.152   5.721  28.860  0.00  0.00    +0.000 A 
ATOM     26  C   UNL     1      40.358   6.845  28.769  0.00  0.00    +0.000 A 
ATOM     27  C   UNL     1      39.286   7.044  29.653  0.00  0.00    +0.000 A 
ATOM     28  C   UNL     1      39.014   6.118  30.620  0.00  0.00    +0.000 A 
ATOM     29  C   UNL     1      39.780   4.988  30.739  0.00  0.00    +0.000 A 
ATOM     30  C   UNL     1      40.858   4.810  29.839  0.00  0.00    +0.000 A 
ENDBRANCH  22  25
ENDBRANCH  18  19
ENDBRANCH   1  18
TORSDOF 8
ENDMDL
MODEL 10
REMARK VINA RESULT:      -7.2      1.872      3.685
REMARK  Name = 
REMARK  8 active torsions:
REMARK  status: ('A' for Active; 'I' for Inactive)
REMARK    1  A    between atoms: C_2  and  N_3
REMARK    2  A    between atoms: C_2  and  C_19
REMARK    3  A    between atoms: N_3  and  N_4
REMARK    4  A    between atoms: C_5  and  C_7
REMARK    5  A    between atoms: C_7  and  O_8
REMARK    6  A    between atoms: O_8  and  C_9
REMARK    7  A    between atoms: C_15  and  C_16
REMARK    8  A    between atoms: C_22  and  C_23
REMARK                            x       y       z     vdW  Elec       q    Type
REMARK                         _______ _______ _______ _____ _____    ______ ____
ROOT
ATOM      1  N   UNL     1      38.918   4.068  16.469  0.00  0.00    +0.000 NA
ENDROOT
BRANCH   1   2
ATOM      2  N   UNL     1      37.792   3.332  16.189  0.00  0.00    +0.000 NA
ATOM      3  C   UNL     1      37.782   2.544  15.014  0.00  0.00    +0.000 C 
ATOM      4  O   UNL     1      38.778   2.519  14.278  0.00  0.00    +0.000 OA
BRANCH   3   5
ATOM      5  C   UNL     1      36.579   1.771  14.687  0.00  0.00    +0.000 C 
BRANCH   5   6
ATOM      6  O   UNL     1      36.961   0.463  14.323  0.00  0.00    +0.000 OA
BRANCH   6   7
ATOM      7  C   UNL     1      36.646  -0.576  15.199  0.00  0.00    +0.000 A 
ATOM      8  C   UNL     1      35.491  -0.537  15.970  0.00  0.00    +0.000 A 
ATOM      9  C   UNL     1      35.176  -1.576  16.844  0.00  0.00    +0.000 A 
ATOM     10  C   UNL     1      33.903  -1.472  17.646  0.00  0.00    +0.000 C 
ATOM     11  C   UNL     1      35.992  -2.677  16.977  0.00  0.00    +0.000 A 
ATOM     12  C   UNL     1      37.148  -2.713  16.204  0.00  0.00    +0.000 A 
ATOM     13  C   UNL     1      37.460  -1.679  15.336  0.00  0.00    +0.000 A 
BRANCH  13  14
ATOM     14  C   UNL     1      38.697  -1.773  14.526  0.00  0.00    +0.000 C 
ATOM     15  C   UNL     1      39.742  -2.552  15.317  0.00  0.00    +0.000 C 
ATOM     16  C   UNL     1      38.360  -2.625  13.322  0.00  0.00    +0.000 C 
ENDBRANCH  13  14
ENDBRANCH   6   7
ENDBRANCH   5   6
ENDBRANCH   3   5
ENDBRANCH   1   2
BRANCH   1  18
ATOM     17  C   UNL     1      38.202   6.292  15.996  0.00  0.00    +0.000 C 
ATOM     18  C   UNL     1      38.964   5.460  16.695  0.00  0.00    +0.000 C 
BRANCH  18  19
ATOM     19  C   UNL     1      39.861   5.924  17.757  0.00  0.00    +0.000 A 
ATOM     20  C   UNL     1      41.180   6.262  17.482  0.00  0.00    +0.000 A 
ATOM     21  C   UNL     1      42.027   6.676  18.482  0.00  0.00    +0.000 A 
ATOM     22  C   UNL     1      41.656   6.786  19.799  0.00  0.00    +0.000 A 
ATOM     23  C   UNL     1      40.342   6.452  20.078  0.00  0.00    +0.000 A 
ATOM     24  C   UNL     1      39.485   6.036  19.072  0.00  0.00    +0.000 A 
BRANCH  22  25
ATOM     25  C   UNL     1      42.616   7.231  20.816  0.00  0.00    +0.000 A 
ATOM     26  C   UNL     1      42.918   8.569  20.948  0.00  0.00    +0.000 A 
ATOM     27  C   UNL     1      43.837   9.010  21.915  0.00  0.00    +0.000 A 
ATOM     28  C   UNL     1      44.444   8.110  22.742  0.00  0.00    +0.000 A 
ATOM     29  C   UNL     1      44.168   6.771  22.641  0.00  0.00    +0.000 A 
ATOM     30  C   UNL     1      43.241   6.350  21.658  0.00  0.00    +0.000 A 
ENDBRANCH  22  25
ENDBRANCH  18  19
ENDBRANCH   1  18
TORSDOF 8
ENDMDL
