MODEL 1
REMARK VINA RESULT:      -8.4      0.000      0.000
REMARK  Name = 
REMARK  2 active torsions:
REMARK  status: ('A' for Active; 'I' for Inactive)
REMARK    1  A    between atoms: N_10  and  N_11
REMARK    2  A    between atoms: C_12  and  C_14
REMARK                            x       y       z     vdW  Elec       q    Type
REMARK                         _______ _______ _______ _____ _____    ______ ____
ROOT
ATOM      1  C   UNL     1      12.867  15.198  33.985  0.00  0.00    +0.000 C 
ATOM      2  C   UNL     1      13.724  14.004  33.673  0.00  0.00    +0.000 A 
ATOM      3  C   UNL     1      13.837  13.575  32.372  0.00  0.00    +0.000 A 
ATOM      4  C   UNL     1      14.605  12.488  32.001  0.00  0.00    +0.000 A 
ATOM      5  C   UNL     1      14.737  12.025  30.587  0.00  0.00    +0.000 C 
ATOM      6  C   UNL     1      15.284  11.801  32.972  0.00  0.00    +0.000 A 
ATOM      7  C   UNL     1      15.176  12.229  34.275  0.00  0.00    +0.000 A 
ATOM      8  C   UNL     1      14.412  13.314  34.651  0.00  0.00    +0.000 A 
ATOM      9  C   UNL     1      15.987  11.368  35.174  0.00  0.00    +0.000 C 
ATOM     10  N   UNL     1      16.097  11.476  36.436  0.00  0.00    +0.000 NA
ATOM     11  C   UNL     1      16.599  10.382  34.305  0.00  0.00    +0.000 C 
ATOM     12  O   UNL     1      17.356   9.485  34.711  0.00  0.00    +0.000 OA
ATOM     13  N   UNL     1      16.160  10.662  32.965  0.00  0.00    +0.000 NA
ENDROOT
BRANCH  10  14
ATOM     14  N   UNL     1      16.888  10.619  37.209  0.00  0.00    +0.000 NA
ATOM     15  C   UNL     1      18.092  11.019  37.849  0.00  0.00    +0.000 C 
ATOM     16  O   UNL     1      18.478  12.194  37.686  0.00  0.00    +0.000 OA
BRANCH  15  17
ATOM     17  C   UNL     1      18.816  10.027  38.660  0.00  0.00    +0.000 A 
ATOM     18  C   UNL     1      18.401   9.397  39.833  0.00  0.00    +0.000 A 
ATOM     19  C   UNL     1      19.461   8.623  40.235  0.00  0.00    +0.000 A 
ATOM     20  O   UNL     1      20.454   8.735  39.415  0.00  0.00    +0.000 OA
ATOM     21  C   UNL     1      20.106   9.580  38.440  0.00  0.00    +0.000 A 
ATOM     22  C   UNL     1      21.026   9.926  37.330  0.00  0.00    +0.000 C 
ENDBRANCH  15  17
ENDBRANCH  10  14
TORSDOF 2
ENDMDL
MODEL 2
REMARK VINA RESULT:      -6.8      2.706      4.004
REMARK  Name = 
REMARK  2 active torsions:
REMARK  status: ('A' for Active; 'I' for Inactive)
REMARK    1  A    between atoms: N_10  and  N_11
REMARK    2  A    between atoms: C_12  and  C_14
REMARK                            x       y       z     vdW  Elec       q    Type
REMARK                         _______ _______ _______ _____ _____    ______ ____
ROOT
ATOM      1  C   UNL     1      12.856  12.958  36.486  0.00  0.00    +0.000 C 
ATOM      2  C   UNL     1      14.170  12.238  36.378  0.00  0.00    +0.000 A 
ATOM      3  C   UNL     1      14.832  12.217  35.173  0.00  0.00    +0.000 A 
ATOM      4  C   UNL     1      16.045  11.579  34.992  0.00  0.00    +0.000 A 
ATOM      5  C   UNL     1      16.771  11.561  33.687  0.00  0.00    +0.000 C 
ATOM      6  C   UNL     1      16.614  10.934  36.057  0.00  0.00    +0.000 A 
ATOM      7  C   UNL     1      15.956  10.956  37.265  0.00  0.00    +0.000 A 
ATOM      8  C   UNL     1      14.747  11.592  37.453  0.00  0.00    +0.000 A 
ATOM      9  C   UNL     1      16.731  10.215  38.293  0.00  0.00    +0.000 C 
ATOM     10  N   UNL     1      16.402  10.030  39.508  0.00  0.00    +0.000 NA
ATOM     11  C   UNL     1      17.918   9.744  37.607  0.00  0.00    +0.000 C 
ATOM     12  O   UNL     1      18.810   9.078  38.158  0.00  0.00    +0.000 OA
ATOM     13  N   UNL     1      17.831  10.192  36.244  0.00  0.00    +0.000 NA
ENDROOT
BRANCH  10  14
ATOM     14  N   UNL     1      17.196   9.318  40.413  0.00  0.00    +0.000 NA
ATOM     15  C   UNL     1      16.697   8.302  41.271  0.00  0.00    +0.000 C 
ATOM     16  O   UNL     1      15.475   8.053  41.233  0.00  0.00    +0.000 OA
BRANCH  15  17
ATOM     17  C   UNL     1      17.644   7.607  42.158  0.00  0.00    +0.000 A 
ATOM     18  C   UNL     1      17.898   7.841  43.508  0.00  0.00    +0.000 A 
ATOM     19  C   UNL     1      18.914   6.982  43.851  0.00  0.00    +0.000 A 
ATOM     20  O   UNL     1      19.278   6.268  42.837  0.00  0.00    +0.000 OA
ATOM     21  C   UNL     1      18.531   6.613  41.783  0.00  0.00    +0.000 A 
ATOM     22  C   UNL     1      18.697   5.976  40.455  0.00  0.00    +0.000 C 
ENDBRANCH  15  17
ENDBRANCH  10  14
TORSDOF 2
ENDMDL
MODEL 3
REMARK VINA RESULT:      -6.8     18.627     19.721
REMARK  Name = 
REMARK  2 active torsions:
REMARK  status: ('A' for Active; 'I' for Inactive)
REMARK    1  A    between atoms: N_10  and  N_11
REMARK    2  A    between atoms: C_12  and  C_14
REMARK                            x       y       z     vdW  Elec       q    Type
REMARK                         _______ _______ _______ _____ _____    ______ ____
ROOT
ATOM      1  C   UNL     1      29.332  24.842  21.267  0.00  0.00    +0.000 C 
ATOM      2  C   UNL     1      28.698  24.245  22.492  0.00  0.00    +0.000 A 
ATOM      3  C   UNL     1      27.329  24.137  22.559  0.00  0.00    +0.000 A 
ATOM      4  C   UNL     1      26.669  23.598  23.648  0.00  0.00    +0.000 A 
ATOM      5  C   UNL     1      25.182  23.472  23.721  0.00  0.00    +0.000 C 
ATOM      6  C   UNL     1      27.408  23.155  24.711  0.00  0.00    +0.000 A 
ATOM      7  C   UNL     1      28.778  23.258  24.646  0.00  0.00    +0.000 A 
ATOM      8  C   UNL     1      29.443  23.793  23.562  0.00  0.00    +0.000 A 
ATOM      9  C   UNL     1      29.400  22.719  25.883  0.00  0.00    +0.000 C 
ATOM     10  N   UNL     1      30.642  22.677  26.155  0.00  0.00    +0.000 NA
ATOM     11  C   UNL     1      28.291  22.276  26.703  0.00  0.00    +0.000 C 
ATOM     12  O   UNL     1      28.429  21.763  27.826  0.00  0.00    +0.000 OA
ATOM     13  N   UNL     1      27.082  22.549  25.973  0.00  0.00    +0.000 NA
ENDROOT
BRANCH  10  14
ATOM     14  N   UNL     1      31.144  22.147  27.348  0.00  0.00    +0.000 NA
ATOM     15  C   UNL     1      31.723  22.936  28.379  0.00  0.00    +0.000 C 
ATOM     16  O   UNL     1      31.813  24.166  28.193  0.00  0.00    +0.000 OA
BRANCH  15  17
ATOM     17  C   UNL     1      32.187  22.258  29.600  0.00  0.00    +0.000 A 
ATOM     18  C   UNL     1      33.440  21.704  29.860  0.00  0.00    +0.000 A 
ATOM     19  C   UNL     1      33.342  21.130  31.105  0.00  0.00    +0.000 A 
ATOM     20  O   UNL     1      32.158  21.294  31.599  0.00  0.00    +0.000 OA
ATOM     21  C   UNL     1      31.421  21.977  30.717  0.00  0.00    +0.000 A 
ATOM     22  C   UNL     1      30.007  22.335  30.981  0.00  0.00    +0.000 C 
ENDBRANCH  15  17
ENDBRANCH  10  14
TORSDOF 2
ENDMDL
MODEL 4
REMARK VINA RESULT:      -6.8      2.059      3.034
REMARK  Name = 
REMARK  2 active torsions:
REMARK  status: ('A' for Active; 'I' for Inactive)
REMARK    1  A    between atoms: N_10  and  N_11
REMARK    2  A    between atoms: C_12  and  C_14
REMARK                            x       y       z     vdW  Elec       q    Type
REMARK                         _______ _______ _______ _____ _____    ______ ____
ROOT
ATOM      1  C   UNL     1      12.945  12.971  36.482  0.00  0.00    +0.000 C 
ATOM      2  C   UNL     1      14.172  12.310  35.920  0.00  0.00    +0.000 A 
ATOM      3  C   UNL     1      14.415  12.376  34.569  0.00  0.00    +0.000 A 
ATOM      4  C   UNL     1      15.521  11.798  33.974  0.00  0.00    +0.000 A 
ATOM      5  C   UNL     1      15.792  11.874  32.507  0.00  0.00    +0.000 C 
ATOM      6  C   UNL     1      16.415  11.124  34.762  0.00  0.00    +0.000 A 
ATOM      7  C   UNL     1      16.176  11.059  36.116  0.00  0.00    +0.000 A 
ATOM      8  C   UNL     1      15.076  11.636  36.716  0.00  0.00    +0.000 A 
ATOM      9  C   UNL     1      17.255  10.300  36.798  0.00  0.00    +0.000 C 
ATOM     10  N   UNL     1      17.336  10.041  38.040  0.00  0.00    +0.000 NA
ATOM     11  C   UNL     1      18.171   9.912  35.744  0.00  0.00    +0.000 C 
ATOM     12  O   UNL     1      19.207   9.255  35.942  0.00  0.00    +0.000 OA
ATOM     13  N   UNL     1      17.643  10.424  34.508  0.00  0.00    +0.000 NA
ENDROOT
BRANCH  10  14
ATOM     14  N   UNL     1      18.393   9.317  38.602  0.00  0.00    +0.000 NA
ATOM     15  C   UNL     1      18.287   8.575  39.809  0.00  0.00    +0.000 C 
ATOM     16  O   UNL     1      17.197   8.596  40.415  0.00  0.00    +0.000 OA
BRANCH  15  17
ATOM     17  C   UNL     1      19.467   7.832  40.279  0.00  0.00    +0.000 A 
ATOM     18  C   UNL     1      20.798   8.247  40.308  0.00  0.00    +0.000 A 
ATOM     19  C   UNL     1      21.516   7.167  40.761  0.00  0.00    +0.000 A 
ATOM     20  O   UNL     1      20.738   6.162  41.001  0.00  0.00    +0.000 OA
ATOM     21  C   UNL     1      19.481   6.521  40.723  0.00  0.00    +0.000 A 
ATOM     22  C   UNL     1      18.339   5.593  40.894  0.00  0.00    +0.000 C 
ENDBRANCH  15  17
ENDBRANCH  10  14
TORSDOF 2
ENDMDL
MODEL 5
REMARK VINA RESULT:      -6.4     20.453     22.707
REMARK  Name = 
REMARK  2 active torsions:
REMARK  status: ('A' for Active; 'I' for Inactive)
REMARK    1  A    between atoms: N_10  and  N_11
REMARK    2  A    between atoms: C_12  and  C_14
REMARK                            x       y       z     vdW  Elec       q    Type
REMARK                         _______ _______ _______ _____ _____    ______ ____
ROOT
ATOM      1  C   UNL     1      27.583   7.652  14.732  0.00  0.00    +0.000 C 
ATOM      2  C   UNL     1      27.092   6.770  15.845  0.00  0.00    +0.000 A 
ATOM      3  C   UNL     1      27.680   6.857  17.085  0.00  0.00    +0.000 A 
ATOM      4  C   UNL     1      27.286   6.084  18.161  0.00  0.00    +0.000 A 
ATOM      5  C   UNL     1      27.917   6.182  19.511  0.00  0.00    +0.000 C 
ATOM      6  C   UNL     1      26.267   5.186  17.987  0.00  0.00    +0.000 A 
ATOM      7  C   UNL     1      25.674   5.098  16.749  0.00  0.00    +0.000 A 
ATOM      8  C   UNL     1      26.061   5.868  15.671  0.00  0.00    +0.000 A 
ATOM      9  C   UNL     1      24.591   4.082  16.761  0.00  0.00    +0.000 C 
ATOM     10  N   UNL     1      23.855   3.742  15.782  0.00  0.00    +0.000 NA
ATOM     11  C   UNL     1      24.574   3.562  18.114  0.00  0.00    +0.000 C 
ATOM     12  O   UNL     1      23.787   2.683  18.502  0.00  0.00    +0.000 OA
ATOM     13  N   UNL     1      25.603   4.247  18.849  0.00  0.00    +0.000 NA
ENDROOT
BRANCH  10  14
ATOM     14  N   UNL     1      22.851   2.772  15.882  0.00  0.00    +0.000 NA
ATOM     15  C   UNL     1      21.715   2.722  15.031  0.00  0.00    +0.000 C 
ATOM     16  O   UNL     1      21.593   3.612  14.165  0.00  0.00    +0.000 OA
BRANCH  15  17
ATOM     17  C   UNL     1      20.745   1.631  15.222  0.00  0.00    +0.000 A 
ATOM     18  C   UNL     1      20.408   0.608  14.337  0.00  0.00    +0.000 A 
ATOM     19  C   UNL     1      19.407  -0.102  14.954  0.00  0.00    +0.000 A 
ATOM     20  O   UNL     1      19.125   0.402  16.111  0.00  0.00    +0.000 OA
ATOM     21  C   UNL     1      19.917   1.460  16.316  0.00  0.00    +0.000 A 
ATOM     22  C   UNL     1      19.849   2.267  17.558  0.00  0.00    +0.000 C 
ENDBRANCH  15  17
ENDBRANCH  10  14
TORSDOF 2
ENDMDL
MODEL 6
REMARK VINA RESULT:      -6.3     22.996     24.960
REMARK  Name = 
REMARK  2 active torsions:
REMARK  status: ('A' for Active; 'I' for Inactive)
REMARK    1  A    between atoms: N_10  and  N_11
REMARK    2  A    between atoms: C_12  and  C_14
REMARK                            x       y       z     vdW  Elec       q    Type
REMARK                         _______ _______ _______ _____ _____    ______ ____
ROOT
ATOM      1  C   UNL     1      24.843  27.576  25.194  0.00  0.00    +0.000 C 
ATOM      2  C   UNL     1      25.707  26.567  24.494  0.00  0.00    +0.000 A 
ATOM      3  C   UNL     1      25.614  25.240  24.842  0.00  0.00    +0.000 A 
ATOM      4  C   UNL     1      26.372  24.250  24.245  0.00  0.00    +0.000 A 
ATOM      5  C   UNL     1      26.268  22.807  24.614  0.00  0.00    +0.000 C 
ATOM      6  C   UNL     1      27.260  24.603  23.264  0.00  0.00    +0.000 A 
ATOM      7  C   UNL     1      27.354  25.930  22.911  0.00  0.00    +0.000 A 
ATOM      8  C   UNL     1      26.599  26.922  23.502  0.00  0.00    +0.000 A 
ATOM      9  C   UNL     1      28.358  26.111  21.831  0.00  0.00    +0.000 C 
ATOM     10  N   UNL     1      28.700  27.207  21.286  0.00  0.00    +0.000 NA
ATOM     11  C   UNL     1      28.864  24.781  21.556  0.00  0.00    +0.000 C 
ATOM     12  O   UNL     1      29.730  24.539  20.699  0.00  0.00    +0.000 OA
ATOM     13  N   UNL     1      28.183  23.873  22.439  0.00  0.00    +0.000 NA
ENDROOT
BRANCH  10  14
ATOM     14  N   UNL     1      29.657  27.288  20.269  0.00  0.00    +0.000 NA
ATOM     15  C   UNL     1      29.449  27.974  19.042  0.00  0.00    +0.000 C 
ATOM     16  O   UNL     1      28.338  28.508  18.852  0.00  0.00    +0.000 OA
BRANCH  15  17
ATOM     17  C   UNL     1      30.549  28.009  18.065  0.00  0.00    +0.000 A 
ATOM     18  C   UNL     1      31.826  28.548  18.218  0.00  0.00    +0.000 A 
ATOM     19  C   UNL     1      32.443  28.395  17.000  0.00  0.00    +0.000 A 
ATOM     20  O   UNL     1      31.656  27.821  16.151  0.00  0.00    +0.000 OA
ATOM     21  C   UNL     1      30.491  27.566  16.756  0.00  0.00    +0.000 A 
ATOM     22  C   UNL     1      29.364  26.906  16.054  0.00  0.00    +0.000 C 
ENDBRANCH  15  17
ENDBRANCH  10  14
TORSDOF 2
ENDMDL
MODEL 7
REMARK VINA RESULT:      -6.0     22.363     23.582
REMARK  Name = 
REMARK  2 active torsions:
REMARK  status: ('A' for Active; 'I' for Inactive)
REMARK    1  A    between atoms: N_10  and  N_11
REMARK    2  A    between atoms: C_12  and  C_14
REMARK                            x       y       z     vdW  Elec       q    Type
REMARK                         _______ _______ _______ _____ _____    ______ ____
ROOT
ATOM      1  C   UNL     1      29.475  31.336  20.305  0.00  0.00    +0.000 C 
ATOM      2  C   UNL     1      29.584  29.850  20.110  0.00  0.00    +0.000 A 
ATOM      3  C   UNL     1      30.040  29.358  18.910  0.00  0.00    +0.000 A 
ATOM      4  C   UNL     1      30.172  28.007  18.651  0.00  0.00    +0.000 A 
ATOM      5  C   UNL     1      30.674  27.469  17.352  0.00  0.00    +0.000 C 
ATOM      6  C   UNL     1      29.830  27.114  19.632  0.00  0.00    +0.000 A 
ATOM      7  C   UNL     1      29.376  27.602  20.835  0.00  0.00    +0.000 A 
ATOM      8  C   UNL     1      29.244  28.950  21.100  0.00  0.00    +0.000 A 
ATOM      9  C   UNL     1      29.067  26.487  21.766  0.00  0.00    +0.000 C 
ATOM     10  N   UNL     1      28.616  26.588  22.951  0.00  0.00    +0.000 NA
ATOM     11  C   UNL     1      29.375  25.279  21.027  0.00  0.00    +0.000 C 
ATOM     12  O   UNL     1      29.238  24.136  21.493  0.00  0.00    +0.000 OA
ATOM     13  N   UNL     1      29.839  25.680  19.727  0.00  0.00    +0.000 NA
ENDROOT
BRANCH  10  14
ATOM     14  N   UNL     1      28.353  25.480  23.764  0.00  0.00    +0.000 NA
ATOM     15  C   UNL     1      29.079  25.181  24.948  0.00  0.00    +0.000 C 
ATOM     16  O   UNL     1      30.021  25.936  25.263  0.00  0.00    +0.000 OA
BRANCH  15  17
ATOM     17  C   UNL     1      28.683  24.000  25.732  0.00  0.00    +0.000 A 
ATOM     18  C   UNL     1      27.665  23.889  26.679  0.00  0.00    +0.000 A 
ATOM     19  C   UNL     1      27.753  22.610  27.172  0.00  0.00    +0.000 A 
ATOM     20  O   UNL     1      28.719  21.961  26.609  0.00  0.00    +0.000 OA
ATOM     21  C   UNL     1      29.313  22.768  25.724  0.00  0.00    +0.000 A 
ATOM     22  C   UNL     1      30.464  22.326  24.901  0.00  0.00    +0.000 C 
ENDBRANCH  15  17
ENDBRANCH  10  14
TORSDOF 2
ENDMDL
MODEL 8
REMARK VINA RESULT:      -6.0     17.828     19.260
REMARK  Name = 
REMARK  2 active torsions:
REMARK  status: ('A' for Active; 'I' for Inactive)
REMARK    1  A    between atoms: N_10  and  N_11
REMARK    2  A    between atoms: C_12  and  C_14
REMARK                            x       y       z     vdW  Elec       q    Type
REMARK                         _______ _______ _______ _____ _____    ______ ____
ROOT
ATOM      1  C   UNL     1      20.606  27.007  27.409  0.00  0.00    +0.000 C 
ATOM      2  C   UNL     1      21.900  26.694  28.106  0.00  0.00    +0.000 A 
ATOM      3  C   UNL     1      21.990  26.858  29.469  0.00  0.00    +0.000 A 
ATOM      4  C   UNL     1      23.141  26.590  30.185  0.00  0.00    +0.000 A 
ATOM      5  C   UNL     1      23.240  26.760  31.665  0.00  0.00    +0.000 C 
ATOM      6  C   UNL     1      24.246  26.144  29.510  0.00  0.00    +0.000 A 
ATOM      7  C   UNL     1      24.159  25.975  28.148  0.00  0.00    +0.000 A 
ATOM      8  C   UNL     1      23.012  26.239  27.427  0.00  0.00    +0.000 A 
ATOM      9  C   UNL     1      25.448  25.479  27.601  0.00  0.00    +0.000 C 
ATOM     10  N   UNL     1      25.714  25.233  26.382  0.00  0.00    +0.000 NA
ATOM     11  C   UNL     1      26.325  25.358  28.749  0.00  0.00    +0.000 C 
ATOM     12  O   UNL     1      27.501  24.966  28.676  0.00  0.00    +0.000 OA
ATOM     13  N   UNL     1      25.575  25.767  29.906  0.00  0.00    +0.000 NA
ENDROOT
BRANCH  10  14
ATOM     14  N   UNL     1      26.960  24.764  25.953  0.00  0.00    +0.000 NA
ATOM     15  C   UNL     1      27.161  23.489  25.359  0.00  0.00    +0.000 C 
ATOM     16  O   UNL     1      26.174  22.736  25.242  0.00  0.00    +0.000 OA
BRANCH  15  17
ATOM     17  C   UNL     1      28.520  23.128  24.922  0.00  0.00    +0.000 A 
ATOM     18  C   UNL     1      29.563  22.600  25.682  0.00  0.00    +0.000 A 
ATOM     19  C   UNL     1      30.637  22.512  24.831  0.00  0.00    +0.000 A 
ATOM     20  O   UNL     1      30.327  22.935  23.649  0.00  0.00    +0.000 OA
ATOM     21  C   UNL     1      29.047  23.319  23.658  0.00  0.00    +0.000 A 
ATOM     22  C   UNL     1      28.376  23.856  22.449  0.00  0.00    +0.000 C 
ENDBRANCH  15  17
ENDBRANCH  10  14
TORSDOF 2
ENDMDL
MODEL 9
REMARK VINA RESULT:      -5.9     20.804     22.946
REMARK  Name = 
REMARK  2 active torsions:
REMARK  status: ('A' for Active; 'I' for Inactive)
REMARK    1  A    between atoms: N_10  and  N_11
REMARK    2  A    between atoms: C_12  and  C_14
REMARK                            x       y       z     vdW  Elec       q    Type
REMARK                         _______ _______ _______ _____ _____    ______ ____
ROOT
ATOM      1  C   UNL     1      27.931   6.202  19.597  0.00  0.00    +0.000 C 
ATOM      2  C   UNL     1      27.369   6.075  18.210  0.00  0.00    +0.000 A 
ATOM      3  C   UNL     1      27.860   6.877  17.206  0.00  0.00    +0.000 A 
ATOM      4  C   UNL     1      27.399   6.820  15.905  0.00  0.00    +0.000 A 
ATOM      5  C   UNL     1      27.935   7.683  14.810  0.00  0.00    +0.000 C 
ATOM      6  C   UNL     1      26.406   5.929  15.597  0.00  0.00    +0.000 A 
ATOM      7  C   UNL     1      25.915   5.123  16.597  0.00  0.00    +0.000 A 
ATOM      8  C   UNL     1      26.371   5.173  17.898  0.00  0.00    +0.000 A 
ATOM      9  C   UNL     1      24.858   4.223  16.069  0.00  0.00    +0.000 C 
ATOM     10  N   UNL     1      24.188   3.366  16.728  0.00  0.00    +0.000 NA
ATOM     11  C   UNL     1      24.750   4.550  14.661  0.00  0.00    +0.000 C 
ATOM     12  O   UNL     1      23.957   3.991  13.885  0.00  0.00    +0.000 OA
ATOM     13  N   UNL     1      25.703   5.592  14.390  0.00  0.00    +0.000 NA
ENDROOT
BRANCH  10  14
ATOM     14  N   UNL     1      23.207   2.555  16.148  0.00  0.00    +0.000 NA
ATOM     15  C   UNL     1      22.333   1.718  16.894  0.00  0.00    +0.000 C 
ATOM     16  O   UNL     1      22.471   1.686  18.133  0.00  0.00    +0.000 OA
BRANCH  15  17
ATOM     17  C   UNL     1      21.323   0.935  16.164  0.00  0.00    +0.000 A 
ATOM     18  C   UNL     1      21.512   0.050  15.104  0.00  0.00    +0.000 A 
ATOM     19  C   UNL     1      20.255  -0.361  14.732  0.00  0.00    +0.000 A 
ATOM     20  O   UNL     1      19.350   0.194  15.469  0.00  0.00    +0.000 OA
ATOM     21  C   UNL     1      19.954   0.991  16.356  0.00  0.00    +0.000 A 
ATOM     22  C   UNL     1      19.194   1.778  17.357  0.00  0.00    +0.000 C 
ENDBRANCH  15  17
ENDBRANCH  10  14
TORSDOF 2
ENDMDL
MODEL 10
REMARK VINA RESULT:      -5.7     23.111     24.619
REMARK  Name = 
REMARK  2 active torsions:
REMARK  status: ('A' for Active; 'I' for Inactive)
REMARK    1  A    between atoms: N_10  and  N_11
REMARK    2  A    between atoms: C_12  and  C_14
REMARK                            x       y       z     vdW  Elec       q    Type
REMARK                         _______ _______ _______ _____ _____    ______ ____
ROOT
ATOM      1  C   UNL     1      29.254  32.242  19.389  0.00  0.00    +0.000 C 
ATOM      2  C   UNL     1      29.622  30.789  19.296  0.00  0.00    +0.000 A 
ATOM      3  C   UNL     1      30.626  30.400  18.440  0.00  0.00    +0.000 A 
ATOM      4  C   UNL     1      31.026  29.085  18.297  0.00  0.00    +0.000 A 
ATOM      5  C   UNL     1      32.121  28.660  17.375  0.00  0.00    +0.000 C 
ATOM      6  C   UNL     1      30.396  28.121  19.039  0.00  0.00    +0.000 A 
ATOM      7  C   UNL     1      29.394  28.507  19.899  0.00  0.00    +0.000 A 
ATOM      8  C   UNL     1      28.990  29.818  20.047  0.00  0.00    +0.000 A 
ATOM      9  C   UNL     1      28.842  27.329  20.616  0.00  0.00    +0.000 C 
ATOM     10  N   UNL     1      27.898  27.330  21.469  0.00  0.00    +0.000 NA
ATOM     11  C   UNL     1      29.596  26.195  20.120  0.00  0.00    +0.000 C 
ATOM     12  O   UNL     1      29.409  25.027  20.500  0.00  0.00    +0.000 OA
ATOM     13  N   UNL     1      30.540  26.697  19.159  0.00  0.00    +0.000 NA
ENDROOT
BRANCH  10  14
ATOM     14  N   UNL     1      27.440  26.170  22.101  0.00  0.00    +0.000 NA
ATOM     15  C   UNL     1      27.626  25.898  23.483  0.00  0.00    +0.000 C 
ATOM     16  O   UNL     1      28.261  26.730  24.163  0.00  0.00    +0.000 OA
BRANCH  15  17
ATOM     17  C   UNL     1      27.068  24.652  24.033  0.00  0.00    +0.000 A 
ATOM     18  C   UNL     1      25.780  24.417  24.515  0.00  0.00    +0.000 A 
ATOM     19  C   UNL     1      25.787  23.125  24.980  0.00  0.00    +0.000 A 
ATOM     20  O   UNL     1      26.947  22.580  24.818  0.00  0.00    +0.000 OA
ATOM     21  C   UNL     1      27.760  23.472  24.244  0.00  0.00    +0.000 A 
ATOM     22  C   UNL     1      29.172  23.160  23.917  0.00  0.00    +0.000 C 
ENDBRANCH  15  17
ENDBRANCH  10  14
TORSDOF 2
ENDMDL
