MODEL 1
REMARK VINA RESULT:      -7.0      0.000      0.000
REMARK  Name = 
REMARK  3 active torsions:
REMARK  status: ('A' for Active; 'I' for Inactive)
REMARK    1  A    between atoms: O_2  and  C_3
REMARK    2  A    between atoms: C_9  and  C_10
REMARK    3  A    between atoms: C_11  and  C_12
REMARK                            x       y       z     vdW  Elec       q    Type
REMARK                         _______ _______ _______ _____ _____    ______ ____
ROOT
ATOM      1  C   UNL     1      28.856  23.562  23.127  0.00  0.00    +0.000 A 
ATOM      2  C   UNL     1      27.528  23.358  23.407  0.00  0.00    +0.000 A 
ATOM      3  O   UNL     1      26.430  23.356  22.690  0.00  0.00    +0.000 OA
ATOM      4  C   UNL     1      25.380  23.103  23.430  0.00  0.00    +0.000 A 
ATOM      5  C   UNL     1      25.796  22.919  24.743  0.00  0.00    +0.000 A 
ATOM      6  C   UNL     1      27.167  23.081  24.734  0.00  0.00    +0.000 A 
ATOM      7  C   UNL     1      28.116  23.019  25.722  0.00  0.00    +0.000 A 
ATOM      8  C   UNL     1      29.429  23.231  25.388  0.00  0.00    +0.000 A 
ATOM      9  C   UNL     1      30.401  23.171  26.363  0.00  0.00    +0.000 A 
ATOM     10  C   UNL     1      31.751  23.383  26.060  0.00  0.00    +0.000 A 
ATOM     11  C   UNL     1      32.049  23.651  24.740  0.00  0.00    +0.000 A 
ATOM     12  O   UNL     1      33.276  23.848  24.434  0.00  0.00    +0.000 OA
ATOM     13  O   UNL     1      31.108  23.702  23.828  0.00  0.00    +0.000 OA
ATOM     14  C   UNL     1      29.830  23.506  24.092  0.00  0.00    +0.000 A 
ENDROOT
BRANCH   1  16
ATOM     15  C   UNL     1      29.148  25.151  21.319  0.00  0.00    +0.000 C 
ATOM     16  O   UNL     1      29.230  23.836  21.827  0.00  0.00    +0.000 OA
ENDBRANCH   1  16
BRANCH   7  17
ATOM     17  C   UNL     1      27.761  22.734  27.093  0.00  0.00    +0.000 C 
ATOM     18  C   UNL     1      27.413  23.709  27.879  0.00  0.00    +0.000 C 
BRANCH  18  19
ATOM     19  C   UNL     1      27.024  23.613  29.284  0.00  0.00    +0.000 C 
ATOM     20  C   UNL     1      27.010  22.126  29.656  0.00  0.00    +0.000 C 
ATOM     21  C   UNL     1      27.896  24.403  30.214  0.00  0.00    +0.000 C 
ATOM     22  O   UNL     1      25.680  24.035  29.370  0.00  0.00    +0.000 OA
ENDBRANCH  18  19
ENDBRANCH   7  17
TORSDOF 3
ENDMDL
MODEL 2
REMARK VINA RESULT:      -6.6     19.671     22.791
REMARK  Name = 
REMARK  3 active torsions:
REMARK  status: ('A' for Active; 'I' for Inactive)
REMARK    1  A    between atoms: O_2  and  C_3
REMARK    2  A    between atoms: C_9  and  C_10
REMARK    3  A    between atoms: C_11  and  C_12
REMARK                            x       y       z     vdW  Elec       q    Type
REMARK                         _______ _______ _______ _____ _____    ______ ____
ROOT
ATOM      1  C   UNL     1      16.927  11.028  36.596  0.00  0.00    +0.000 A 
ATOM      2  C   UNL     1      18.100  10.534  37.111  0.00  0.00    +0.000 A 
ATOM      3  O   UNL     1      19.328  10.434  36.662  0.00  0.00    +0.000 OA
ATOM      4  C   UNL     1      20.113   9.874  37.548  0.00  0.00    +0.000 A 
ATOM      5  C   UNL     1      19.363   9.574  38.678  0.00  0.00    +0.000 A 
ATOM      6  C   UNL     1      18.076   9.993  38.405  0.00  0.00    +0.000 A 
ATOM      7  C   UNL     1      16.914   9.959  39.132  0.00  0.00    +0.000 A 
ATOM      8  C   UNL     1      15.771  10.467  38.570  0.00  0.00    +0.000 A 
ATOM      9  C   UNL     1      14.592  10.445  39.282  0.00  0.00    +0.000 A 
ATOM     10  C   UNL     1      13.405  10.953  38.740  0.00  0.00    +0.000 A 
ATOM     11  C   UNL     1      13.485  11.473  37.465  0.00  0.00    +0.000 A 
ATOM     12  O   UNL     1      12.414  11.945  36.946  0.00  0.00    +0.000 OA
ATOM     13  O   UNL     1      14.618  11.484  36.806  0.00  0.00    +0.000 OA
ATOM     14  C   UNL     1      15.748  11.010  37.297  0.00  0.00    +0.000 A 
ENDROOT
BRANCH   1  16
ATOM     15  C   UNL     1      16.858  10.724  34.191  0.00  0.00    +0.000 C 
ATOM     16  O   UNL     1      16.931  11.565  35.324  0.00  0.00    +0.000 OA
ENDBRANCH   1  16
BRANCH   7  17
ATOM     17  C   UNL     1      16.874   9.406  40.466  0.00  0.00    +0.000 C 
ATOM     18  C   UNL     1      17.081   8.134  40.637  0.00  0.00    +0.000 C 
BRANCH  18  19
ATOM     19  C   UNL     1      17.079   7.403  41.902  0.00  0.00    +0.000 C 
ATOM     20  C   UNL     1      15.769   7.736  42.624  0.00  0.00    +0.000 C 
ATOM     21  C   UNL     1      17.261   5.922  41.752  0.00  0.00    +0.000 C 
ATOM     22  O   UNL     1      18.101   7.959  42.702  0.00  0.00    +0.000 OA
ENDBRANCH  18  19
ENDBRANCH   7  17
TORSDOF 3
ENDMDL
MODEL 3
REMARK VINA RESULT:      -6.5      2.381      4.213
REMARK  Name = 
REMARK  3 active torsions:
REMARK  status: ('A' for Active; 'I' for Inactive)
REMARK    1  A    between atoms: O_2  and  C_3
REMARK    2  A    between atoms: C_9  and  C_10
REMARK    3  A    between atoms: C_11  and  C_12
REMARK                            x       y       z     vdW  Elec       q    Type
REMARK                         _______ _______ _______ _____ _____    ______ ____
ROOT
ATOM      1  C   UNL     1      29.480  22.966  24.621  0.00  0.00    +0.000 A 
ATOM      2  C   UNL     1      28.823  22.769  25.810  0.00  0.00    +0.000 A 
ATOM      3  O   UNL     1      29.098  22.108  26.909  0.00  0.00    +0.000 OA
ATOM      4  C   UNL     1      28.132  22.224  27.786  0.00  0.00    +0.000 A 
ATOM      5  C   UNL     1      27.132  23.021  27.242  0.00  0.00    +0.000 A 
ATOM      6  C   UNL     1      27.569  23.372  25.980  0.00  0.00    +0.000 A 
ATOM      7  C   UNL     1      27.016  24.135  24.985  0.00  0.00    +0.000 A 
ATOM      8  C   UNL     1      27.714  24.301  23.816  0.00  0.00    +0.000 A 
ATOM      9  C   UNL     1      27.178  25.065  22.802  0.00  0.00    +0.000 A 
ATOM     10  C   UNL     1      27.862  25.255  21.595  0.00  0.00    +0.000 A 
ATOM     11  C   UNL     1      29.091  24.639  21.482  0.00  0.00    +0.000 A 
ATOM     12  O   UNL     1      29.738  24.797  20.389  0.00  0.00    +0.000 OA
ATOM     13  O   UNL     1      29.581  23.917  22.460  0.00  0.00    +0.000 OA
ATOM     14  C   UNL     1      28.954  23.724  23.605  0.00  0.00    +0.000 A 
ENDROOT
BRANCH   1  16
ATOM     15  C   UNL     1      31.900  23.117  24.661  0.00  0.00    +0.000 C 
ATOM     16  O   UNL     1      30.716  22.380  24.435  0.00  0.00    +0.000 OA
ENDBRANCH   1  16
BRANCH   7  17
ATOM     17  C   UNL     1      25.725  24.764  25.145  0.00  0.00    +0.000 C 
ATOM     18  C   UNL     1      25.588  25.737  25.995  0.00  0.00    +0.000 C 
BRANCH  18  19
ATOM     19  C   UNL     1      24.369  26.487  26.290  0.00  0.00    +0.000 C 
ATOM     20  C   UNL     1      23.496  26.457  25.030  0.00  0.00    +0.000 C 
ATOM     21  C   UNL     1      23.619  25.987  27.488  0.00  0.00    +0.000 C 
ATOM     22  O   UNL     1      24.745  27.838  26.455  0.00  0.00    +0.000 OA
ENDBRANCH  18  19
ENDBRANCH   7  17
TORSDOF 3
ENDMDL
MODEL 4
REMARK VINA RESULT:      -6.4      2.386      4.851
REMARK  Name = 
REMARK  3 active torsions:
REMARK  status: ('A' for Active; 'I' for Inactive)
REMARK    1  A    between atoms: O_2  and  C_3
REMARK    2  A    between atoms: C_9  and  C_10
REMARK    3  A    between atoms: C_11  and  C_12
REMARK                            x       y       z     vdW  Elec       q    Type
REMARK                         _______ _______ _______ _____ _____    ______ ____
ROOT
ATOM      1  C   UNL     1      26.829  23.239  26.792  0.00  0.00    +0.000 A 
ATOM      2  C   UNL     1      26.987  23.101  28.149  0.00  0.00    +0.000 A 
ATOM      3  O   UNL     1      26.185  23.214  29.181  0.00  0.00    +0.000 OA
ATOM      4  C   UNL     1      26.820  22.981  30.303  0.00  0.00    +0.000 A 
ATOM      5  C   UNL     1      28.146  22.688  30.009  0.00  0.00    +0.000 A 
ATOM      6  C   UNL     1      28.258  22.763  28.635  0.00  0.00    +0.000 A 
ATOM      7  C   UNL     1      29.312  22.578  27.778  0.00  0.00    +0.000 A 
ATOM      8  C   UNL     1      29.100  22.727  26.432  0.00  0.00    +0.000 A 
ATOM      9  C   UNL     1      30.144  22.544  25.551  0.00  0.00    +0.000 A 
ATOM     10  C   UNL     1      29.965  22.690  24.170  0.00  0.00    +0.000 A 
ATOM     11  C   UNL     1      28.695  23.023  23.747  0.00  0.00    +0.000 A 
ATOM     12  O   UNL     1      28.503  23.161  22.489  0.00  0.00    +0.000 OA
ATOM     13  O   UNL     1      27.716  23.191  24.603  0.00  0.00    +0.000 OA
ATOM     14  C   UNL     1      27.863  23.060  25.908  0.00  0.00    +0.000 A 
ENDROOT
BRANCH   1  16
ATOM     15  C   UNL     1      25.157  24.917  26.275  0.00  0.00    +0.000 C 
ATOM     16  O   UNL     1      25.585  23.571  26.295  0.00  0.00    +0.000 OA
ENDBRANCH   1  16
BRANCH   7  17
ATOM     17  C   UNL     1      30.627  22.229  28.263  0.00  0.00    +0.000 C 
ATOM     18  C   UNL     1      31.401  23.159  28.738  0.00  0.00    +0.000 C 
BRANCH  18  19
ATOM     19  C   UNL     1      32.753  22.995  29.269  0.00  0.00    +0.000 C 
ATOM     20  C   UNL     1      33.001  21.493  29.439  0.00  0.00    +0.000 C 
ATOM     21  C   UNL     1      33.820  23.636  28.432  0.00  0.00    +0.000 C 
ATOM     22  O   UNL     1      32.750  23.526  30.577  0.00  0.00    +0.000 OA
ENDBRANCH  18  19
ENDBRANCH   7  17
TORSDOF 3
ENDMDL
MODEL 5
REMARK VINA RESULT:      -6.3      2.763      4.952
REMARK  Name = 
REMARK  3 active torsions:
REMARK  status: ('A' for Active; 'I' for Inactive)
REMARK    1  A    between atoms: O_2  and  C_3
REMARK    2  A    between atoms: C_9  and  C_10
REMARK    3  A    between atoms: C_11  and  C_12
REMARK                            x       y       z     vdW  Elec       q    Type
REMARK                         _______ _______ _______ _____ _____    ______ ____
ROOT
ATOM      1  C   UNL     1      28.261  22.554  26.951  0.00  0.00    +0.000 A 
ATOM      2  C   UNL     1      27.722  22.726  28.202  0.00  0.00    +0.000 A 
ATOM      3  O   UNL     1      28.075  22.357  29.410  0.00  0.00    +0.000 OA
ATOM      4  C   UNL     1      27.212  22.772  30.304  0.00  0.00    +0.000 A 
ATOM      5  C   UNL     1      26.203  23.473  29.655  0.00  0.00    +0.000 A 
ATOM      6  C   UNL     1      26.524  23.447  28.312  0.00  0.00    +0.000 A 
ATOM      7  C   UNL     1      25.910  23.963  27.200  0.00  0.00    +0.000 A 
ATOM      8  C   UNL     1      26.491  23.763  25.974  0.00  0.00    +0.000 A 
ATOM      9  C   UNL     1      25.893  24.274  24.843  0.00  0.00    +0.000 A 
ATOM     10  C   UNL     1      26.456  24.088  23.575  0.00  0.00    +0.000 A 
ATOM     11  C   UNL     1      27.634  23.372  23.525  0.00  0.00    +0.000 A 
ATOM     12  O   UNL     1      28.171  23.188  22.378  0.00  0.00    +0.000 OA
ATOM     13  O   UNL     1      28.186  22.896  24.615  0.00  0.00    +0.000 OA
ATOM     14  C   UNL     1      27.671  23.058  25.819  0.00  0.00    +0.000 A 
ENDROOT
BRANCH   1  16
ATOM     15  C   UNL     1      30.680  22.468  27.088  0.00  0.00    +0.000 C 
ATOM     16  O   UNL     1      29.439  21.847  26.823  0.00  0.00    +0.000 OA
ENDBRANCH   1  16
BRANCH   7  17
ATOM     17  C   UNL     1      24.676  24.709  27.297  0.00  0.00    +0.000 C 
ATOM     18  C   UNL     1      24.668  25.854  27.912  0.00  0.00    +0.000 C 
BRANCH  18  19
ATOM     19  C   UNL     1      23.524  26.742  28.108  0.00  0.00    +0.000 C 
ATOM     20  C   UNL     1      22.424  26.292  27.140  0.00  0.00    +0.000 C 
ATOM     21  C   UNL     1      23.023  26.791  29.521  0.00  0.00    +0.000 C 
ATOM     22  O   UNL     1      23.915  28.023  27.664  0.00  0.00    +0.000 OA
ENDBRANCH  18  19
ENDBRANCH   7  17
TORSDOF 3
ENDMDL
MODEL 6
REMARK VINA RESULT:      -6.2      2.333      5.361
REMARK  Name = 
REMARK  3 active torsions:
REMARK  status: ('A' for Active; 'I' for Inactive)
REMARK    1  A    between atoms: O_2  and  C_3
REMARK    2  A    between atoms: C_9  and  C_10
REMARK    3  A    between atoms: C_11  and  C_12
REMARK                            x       y       z     vdW  Elec       q    Type
REMARK                         _______ _______ _______ _____ _____    ______ ____
ROOT
ATOM      1  C   UNL     1      27.399  23.034  26.427  0.00  0.00    +0.000 A 
ATOM      2  C   UNL     1      28.430  22.956  25.524  0.00  0.00    +0.000 A 
ATOM      3  O   UNL     1      28.508  23.005  24.215  0.00  0.00    +0.000 OA
ATOM      4  C   UNL     1      29.746  22.881  23.808  0.00  0.00    +0.000 A 
ATOM      5  C   UNL     1      30.567  22.738  24.921  0.00  0.00    +0.000 A 
ATOM      6  C   UNL     1      29.731  22.785  26.019  0.00  0.00    +0.000 A 
ATOM      7  C   UNL     1      29.964  22.698  27.367  0.00  0.00    +0.000 A 
ATOM      8  C   UNL     1      28.899  22.782  28.227  0.00  0.00    +0.000 A 
ATOM      9  C   UNL     1      29.108  22.699  29.586  0.00  0.00    +0.000 A 
ATOM     10  C   UNL     1      28.045  22.780  30.493  0.00  0.00    +0.000 A 
ATOM     11  C   UNL     1      26.787  22.947  29.951  0.00  0.00    +0.000 A 
ATOM     12  O   UNL     1      25.797  23.025  30.758  0.00  0.00    +0.000 OA
ATOM     13  O   UNL     1      26.611  23.025  28.654  0.00  0.00    +0.000 OA
ATOM     14  C   UNL     1      27.599  22.951  27.782  0.00  0.00    +0.000 A 
ENDROOT
BRANCH   1  16
ATOM     15  C   UNL     1      25.643  24.482  25.592  0.00  0.00    +0.000 C 
ATOM     16  O   UNL     1      26.112  23.201  25.958  0.00  0.00    +0.000 OA
ENDBRANCH   1  16
BRANCH   7  17
ATOM     17  C   UNL     1      31.298  22.524  27.893  0.00  0.00    +0.000 C 
ATOM     18  C   UNL     1      31.958  23.559  28.320  0.00  0.00    +0.000 C 
BRANCH  18  19
ATOM     19  C   UNL     1      33.308  23.575  28.880  0.00  0.00    +0.000 C 
ATOM     20  C   UNL     1      33.616  22.158  29.375  0.00  0.00    +0.000 C 
ATOM     21  C   UNL     1      34.359  24.065  27.928  0.00  0.00    +0.000 C 
ATOM     22  O   UNL     1      33.263  24.378  30.040  0.00  0.00    +0.000 OA
ENDBRANCH  18  19
ENDBRANCH   7  17
TORSDOF 3
ENDMDL
MODEL 7
REMARK VINA RESULT:      -6.2      2.225      5.567
REMARK  Name = 
REMARK  3 active torsions:
REMARK  status: ('A' for Active; 'I' for Inactive)
REMARK    1  A    between atoms: O_2  and  C_3
REMARK    2  A    between atoms: C_9  and  C_10
REMARK    3  A    between atoms: C_11  and  C_12
REMARK                            x       y       z     vdW  Elec       q    Type
REMARK                         _______ _______ _______ _____ _____    ______ ____
ROOT
ATOM      1  C   UNL     1      31.260  23.197  27.761  0.00  0.00    +0.000 A 
ATOM      2  C   UNL     1      29.985  22.818  27.420  0.00  0.00    +0.000 A 
ATOM      3  O   UNL     1      28.970  22.316  28.083  0.00  0.00    +0.000 OA
ATOM      4  C   UNL     1      27.941  22.119  27.297  0.00  0.00    +0.000 A 
ATOM      5  C   UNL     1      28.283  22.517  26.010  0.00  0.00    +0.000 A 
ATOM      6  C   UNL     1      29.587  22.964  26.083  0.00  0.00    +0.000 A 
ATOM      7  C   UNL     1      30.449  23.470  25.145  0.00  0.00    +0.000 A 
ATOM      8  C   UNL     1      31.711  23.834  25.538  0.00  0.00    +0.000 A 
ATOM      9  C   UNL     1      32.595  24.347  24.614  0.00  0.00    +0.000 A 
ATOM     10  C   UNL     1      33.891  24.728  24.979  0.00  0.00    +0.000 A 
ATOM     11  C   UNL     1      34.229  24.562  26.306  0.00  0.00    +0.000 A 
ATOM     12  O   UNL     1      35.409  24.904  26.667  0.00  0.00    +0.000 OA
ATOM     13  O   UNL     1      33.372  24.074  27.169  0.00  0.00    +0.000 OA
ATOM     14  C   UNL     1      32.146  23.707  26.846  0.00  0.00    +0.000 A 
ENDROOT
BRANCH   1  16
ATOM     15  C   UNL     1      32.094  21.807  29.563  0.00  0.00    +0.000 C 
ATOM     16  O   UNL     1      31.669  23.060  29.072  0.00  0.00    +0.000 OA
ENDBRANCH   1  16
BRANCH   7  17
ATOM     17  C   UNL     1      30.054  23.628  23.764  0.00  0.00    +0.000 C 
ATOM     18  C   UNL     1      29.548  24.757  23.369  0.00  0.00    +0.000 C 
BRANCH  18  19
ATOM     19  C   UNL     1      29.095  25.098  22.022  0.00  0.00    +0.000 C 
ATOM     20  C   UNL     1      27.613  24.718  21.926  0.00  0.00    +0.000 C 
ATOM     21  C   UNL     1      29.318  26.533  21.647  0.00  0.00    +0.000 C 
ATOM     22  O   UNL     1      29.764  24.232  21.130  0.00  0.00    +0.000 OA
ENDBRANCH  18  19
ENDBRANCH   7  17
TORSDOF 3
ENDMDL
MODEL 8
REMARK VINA RESULT:      -6.1     31.773     33.172
REMARK  Name = 
REMARK  3 active torsions:
REMARK  status: ('A' for Active; 'I' for Inactive)
REMARK    1  A    between atoms: O_2  and  C_3
REMARK    2  A    between atoms: C_9  and  C_10
REMARK    3  A    between atoms: C_11  and  C_12
REMARK                            x       y       z     vdW  Elec       q    Type
REMARK                         _______ _______ _______ _____ _____    ______ ____
ROOT
ATOM      1  C   UNL     1      21.503  -7.373  25.091  0.00  0.00    +0.000 A 
ATOM      2  C   UNL     1      21.982  -8.652  25.239  0.00  0.00    +0.000 A 
ATOM      3  O   UNL     1      22.984  -9.320  24.719  0.00  0.00    +0.000 OA
ATOM      4  C   UNL     1      23.031 -10.542  25.186  0.00  0.00    +0.000 A 
ATOM      5  C   UNL     1      21.988 -10.714  26.087  0.00  0.00    +0.000 A 
ATOM      6  C   UNL     1      21.314  -9.509  26.124  0.00  0.00    +0.000 A 
ATOM      7  C   UNL     1      20.214  -9.082  26.822  0.00  0.00    +0.000 A 
ATOM      8  C   UNL     1      19.777  -7.795  26.638  0.00  0.00    +0.000 A 
ATOM      9  C   UNL     1      18.674  -7.343  27.329  0.00  0.00    +0.000 A 
ATOM     10  C   UNL     1      18.198  -6.036  27.166  0.00  0.00    +0.000 A 
ATOM     11  C   UNL     1      18.892  -5.236  26.282  0.00  0.00    +0.000 A 
ATOM     12  O   UNL     1      18.479  -4.036  26.115  0.00  0.00    +0.000 OA
ATOM     13  O   UNL     1      19.940  -5.687  25.636  0.00  0.00    +0.000 OA
ATOM     14  C   UNL     1      20.404  -6.915  25.774  0.00  0.00    +0.000 A 
ENDROOT
BRANCH   1  16
ATOM     15  C   UNL     1      23.503  -6.177  24.424  0.00  0.00    +0.000 C 
ATOM     16  O   UNL     1      22.147  -6.515  24.223  0.00  0.00    +0.000 OA
ENDBRANCH   1  16
BRANCH   7  17
ATOM     17  C   UNL     1      19.516  -9.953  27.739  0.00  0.00    +0.000 C 
ATOM     18  C   UNL     1      19.911 -10.030  28.974  0.00  0.00    +0.000 C 
BRANCH  18  19
ATOM     19  C   UNL     1      19.333 -10.850  30.036  0.00  0.00    +0.000 C 
ATOM     20  C   UNL     1      19.215  -9.969  31.285  0.00  0.00    +0.000 C 
ATOM     21  C   UNL     1      18.016 -11.473  29.679  0.00  0.00    +0.000 C 
ATOM     22  O   UNL     1      20.287 -11.838  30.362  0.00  0.00    +0.000 OA
ENDBRANCH  18  19
ENDBRANCH   7  17
TORSDOF 3
ENDMDL
MODEL 9
REMARK VINA RESULT:      -6.1      1.989      6.412
REMARK  Name = 
REMARK  3 active torsions:
REMARK  status: ('A' for Active; 'I' for Inactive)
REMARK    1  A    between atoms: O_2  and  C_3
REMARK    2  A    between atoms: C_9  and  C_10
REMARK    3  A    between atoms: C_11  and  C_12
REMARK                            x       y       z     vdW  Elec       q    Type
REMARK                         _______ _______ _______ _____ _____    ______ ____
ROOT
ATOM      1  C   UNL     1      31.403  23.529  27.631  0.00  0.00    +0.000 A 
ATOM      2  C   UNL     1      32.223  23.939  26.608  0.00  0.00    +0.000 A 
ATOM      3  O   UNL     1      33.465  24.355  26.541  0.00  0.00    +0.000 OA
ATOM      4  C   UNL     1      33.804  24.637  25.308  0.00  0.00    +0.000 A 
ATOM      5  C   UNL     1      32.714  24.394  24.481  0.00  0.00    +0.000 A 
ATOM      6  C   UNL     1      31.701  23.949  25.306  0.00  0.00    +0.000 A 
ATOM      7  C   UNL     1      30.409  23.560  25.064  0.00  0.00    +0.000 A 
ATOM      8  C   UNL     1      29.633  23.159  26.121  0.00  0.00    +0.000 A 
ATOM      9  C   UNL     1      28.331  22.763  25.902  0.00  0.00    +0.000 A 
ATOM     10  C   UNL     1      27.509  22.349  26.956  0.00  0.00    +0.000 A 
ATOM     11  C   UNL     1      28.072  22.360  28.215  0.00  0.00    +0.000 A 
ATOM     12  O   UNL     1      27.343  21.985  29.197  0.00  0.00    +0.000 OA
ATOM     13  O   UNL     1      29.313  22.739  28.400  0.00  0.00    +0.000 OA
ATOM     14  C   UNL     1      30.105  23.134  27.421  0.00  0.00    +0.000 A 
ENDROOT
BRANCH   1  16
ATOM     15  C   UNL     1      31.929  24.696  29.689  0.00  0.00    +0.000 C 
ATOM     16  O   UNL     1      31.898  23.514  28.919  0.00  0.00    +0.000 OA
ENDBRANCH   1  16
BRANCH   7  17
ATOM     17  C   UNL     1      29.858  23.563  23.729  0.00  0.00    +0.000 C 
ATOM     18  C   UNL     1      29.479  24.687  23.196  0.00  0.00    +0.000 C 
BRANCH  18  19
ATOM     19  C   UNL     1      28.903  24.883  21.867  0.00  0.00    +0.000 C 
ATOM     20  C   UNL     1      27.593  24.090  21.813  0.00  0.00    +0.000 C 
ATOM     21  C   UNL     1      28.689  26.322  21.501  0.00  0.00    +0.000 C 
ATOM     22  O   UNL     1      29.765  24.250  20.946  0.00  0.00    +0.000 OA
ENDBRANCH  18  19
ENDBRANCH   7  17
TORSDOF 3
ENDMDL
MODEL 10
REMARK VINA RESULT:      -6.0     19.560     22.112
REMARK  Name = 
REMARK  3 active torsions:
REMARK  status: ('A' for Active; 'I' for Inactive)
REMARK    1  A    between atoms: O_2  and  C_3
REMARK    2  A    between atoms: C_9  and  C_10
REMARK    3  A    between atoms: C_11  and  C_12
REMARK                            x       y       z     vdW  Elec       q    Type
REMARK                         _______ _______ _______ _____ _____    ______ ____
ROOT
ATOM      1  C   UNL     1      17.098  10.886  36.512  0.00  0.00    +0.000 A 
ATOM      2  C   UNL     1      15.897  10.964  37.175  0.00  0.00    +0.000 A 
ATOM      3  O   UNL     1      14.697  11.380  36.849  0.00  0.00    +0.000 OA
ATOM      4  C   UNL     1      13.862  11.250  37.850  0.00  0.00    +0.000 A 
ATOM      5  C   UNL     1      14.547  10.705  38.930  0.00  0.00    +0.000 A 
ATOM      6  C   UNL     1      15.847  10.521  38.504  0.00  0.00    +0.000 A 
ATOM      7  C   UNL     1      16.966  10.026  39.123  0.00  0.00    +0.000 A 
ATOM      8  C   UNL     1      18.139   9.970  38.416  0.00  0.00    +0.000 A 
ATOM      9  C   UNL     1      19.276   9.475  39.016  0.00  0.00    +0.000 A 
ATOM     10  C   UNL     1      20.492   9.403  38.326  0.00  0.00    +0.000 A 
ATOM     11  C   UNL     1      20.485   9.852  37.021  0.00  0.00    +0.000 A 
ATOM     12  O   UNL     1      21.583   9.797  36.367  0.00  0.00    +0.000 OA
ATOM     13  O   UNL     1      19.390  10.318  36.470  0.00  0.00    +0.000 OA
ATOM     14  C   UNL     1      18.235  10.395  37.102  0.00  0.00    +0.000 A 
ENDROOT
BRANCH   1  16
ATOM     15  C   UNL     1      16.795  10.460  34.145  0.00  0.00    +0.000 C 
ATOM     16  O   UNL     1      17.167  11.318  35.203  0.00  0.00    +0.000 OA
ENDBRANCH   1  16
BRANCH   7  17
ATOM     17  C   UNL     1      16.930   9.565  40.491  0.00  0.00    +0.000 C 
ATOM     18  C   UNL     1      16.976   8.290  40.738  0.00  0.00    +0.000 C 
BRANCH  18  19
ATOM     19  C   UNL     1      16.951   7.643  42.048  0.00  0.00    +0.000 C 
ATOM     20  C   UNL     1      15.515   7.731  42.576  0.00  0.00    +0.000 C 
ATOM     21  C   UNL     1      17.447   6.227  42.041  0.00  0.00    +0.000 C 
ATOM     22  O   UNL     1      17.721   8.444  42.919  0.00  0.00    +0.000 OA
ENDBRANCH  18  19
ENDBRANCH   7  17
TORSDOF 3
ENDMDL
